c22.sdf
 OpenBabel04162418103D

 44 47  0  0  1  0  0  0  0  0999 V2000
    2.0309   -0.5742   -0.0555 C   0  0  0  0  0  0  0  0  0  0  0  0
    2.0405    0.7697    0.0408 N   0  0  0  0  0  0  0  0  0  0  0  0
    0.8657    1.4398    0.0866 C   0  0  0  0  0  0  0  0  0  0  0  0
   -0.3198    0.7307    0.0151 C   0  0  0  0  0  0  0  0  0  0  0  0
   -0.2195   -0.6480   -0.0139 C   0  0  0  0  0  0  0  0  0  0  0  0
    0.9371   -1.3364   -0.0159 N   0  0  0  0  0  0  0  0  0  0  0  0
   -1.6932    0.9952   -0.0518 C   0  0  0  0  0  0  0  0  0  0  0  0
   -2.4315   -0.1131   -0.1175 N   0  0  0  0  0  0  0  0  0  0  0  0
   -1.5208   -1.1395   -0.0686 N   0  0  0  0  0  0  0  0  0  0  0  0
   -1.9695   -2.4952   -0.0790 C   0  0  0  0  0  0  0  0  0  0  0  0
   -3.3402   -2.7710   -0.2082 C   0  0  0  0  0  0  0  0  0  0  0  0
   -3.8069   -4.0936   -0.2099 C   0  0  0  0  0  0  0  0  0  0  0  0
   -2.9120   -5.1543   -0.0758 C   0  0  0  0  0  0  0  0  0  0  0  0
   -1.5508   -4.8801    0.0509 C   0  0  0  0  0  0  0  0  0  0  0  0
   -1.0773   -3.5650    0.0468 C   0  0  0  0  0  0  0  0  0  0  0  0
   -3.2259   -6.4830   -0.0486 O   0  0  0  0  0  0  0  0  0  0  0  0
   -4.5988   -6.8232   -0.1801 C   0  0  0  0  0  0  0  0  0  0  0  0
    3.2237   -1.2563   -0.2842 N   0  0  0  0  0  0  0  0  0  0  0  0
    4.2410   -0.4878   -1.0027 C   0  0  2  0  0  0  0  0  0  0  0  0
    3.7857   -0.0867   -2.4118 C   0  0  0  0  0  0  0  0  0  0  0  0
    3.8996   -1.3649   -3.2332 C   0  0  0  0  0  0  0  0  0  0  0  0
    5.0327   -2.1668   -2.5824 C   0  0  2  0  0  0  0  0  0  0  0  0
    5.4359   -1.3916   -1.3181 C   0  0  0  0  0  0  0  0  0  0  0  0
    6.1717   -2.3461   -3.4801 N   0  0  0  0  0  0  0  0  0  0  0  0
    0.9264    2.5198    0.1380 H   0  0  0  0  0  0  0  0  0  0  0  0
   -2.1920    1.9556   -0.0713 H   0  0  0  0  0  0  0  0  0  0  0  0
   -4.0656   -1.9656   -0.3118 H   0  0  0  0  0  0  0  0  0  0  0  0
   -4.8744   -4.2559   -0.3160 H   0  0  0  0  0  0  0  0  0  0  0  0
   -0.8442   -5.7009    0.1561 H   0  0  0  0  0  0  0  0  0  0  0  0
   -0.0063   -3.4265    0.1538 H   0  0  0  0  0  0  0  0  0  0  0  0
   -4.6797   -7.9121   -0.1077 H   0  0  0  0  0  0  0  0  0  0  0  0
   -4.9844   -6.5230   -1.1599 H   0  0  0  0  0  0  0  0  0  0  0  0
   -5.1951   -6.3914    0.6309 H   0  0  0  0  0  0  0  0  0  0  0  0
    3.5479   -1.5361    0.6371 H   0  0  0  0  0  0  0  0  0  0  0  0
    4.5634    0.3766   -0.4091 H   0  0  0  0  0  0  0  0  0  0  0  0
    4.4710    0.6685   -2.8148 H   0  0  0  0  0  0  0  0  0  0  0  0
    2.7752    0.3272   -2.4694 H   0  0  0  0  0  0  0  0  0  0  0  0
    4.0645   -1.1414   -4.2924 H   0  0  0  0  0  0  0  0  0  0  0  0
    2.9658   -1.9377   -3.1715 H   0  0  0  0  0  0  0  0  0  0  0  0
    4.6582   -3.1587   -2.3034 H   0  0  0  0  0  0  0  0  0  0  0  0
    6.3137   -0.7610   -1.5124 H   0  0  0  0  0  0  0  0  0  0  0  0
    5.6969   -2.0693   -0.4976 H   0  0  0  0  0  0  0  0  0  0  0  0
    6.5064   -1.4376   -3.7997 H   0  0  0  0  0  0  0  0  0  0  0  0
    5.8596   -2.8336   -4.3204 H   0  0  0  0  0  0  0  0  0  0  0  0
  1  2  2  0  0  0  0
  1 18  1  0  0  0  0
  2  3  1  0  0  0  0
  3  4  2  0  0  0  0
  3 25  1  0  0  0  0
  4  5  1  0  0  0  0
  4  7  1  0  0  0  0
  5  6  2  0  0  0  0
  6  1  1  0  0  0  0
  7  8  2  0  0  0  0
  7 26  1  0  0  0  0
  8  9  1  0  0  0  0
  9  5  1  0  0  0  0
  9 10  1  0  0  0  0
 10 11  2  0  0  0  0
 11 12  1  0  0  0  0
 11 27  1  0  0  0  0
 12 13  2  0  0  0  0
 12 28  1  0  0  0  0
 13 14  1  0  0  0  0
 13 16  1  0  0  0  0
 14 15  2  0  0  0  0
 14 29  1  0  0  0  0
 15 10  1  0  0  0  0
 15 30  1  0  0  0  0
 16 17  1  0  0  0  0
 17 31  1  0  0  0  0
 17 32  1  0  0  0  0
 17 33  1  0  0  0  0
 18 34  1  0  0  0  0
 19 18  1  0  0  0  0
 19 20  1  0  0  0  0
 19 35  1  1  0  0  0
 20 21  1  0  0  0  0
 20 36  1  0  0  0  0
 20 37  1  0  0  0  0
 21 22  1  0  0  0  0
 21 38  1  0  0  0  0
 21 39  1  0  0  0  0
 22 23  1  0  0  0  0
 22 24  1  0  0  0  0
 22 40  1  1  0  0  0
 23 19  1  0  0  0  0
 23 41  1  0  0  0  0
 23 42  1  0  0  0  0
 24 43  1  0  0  0  0
 24 44  1  0  0  0  0
M  END
$$$$
