c22.sdf
  ChemDraw04162418092D

 24 27  0  0  1  0  0  0  0  0999 V2000
   -0.9564   -1.3674    0.0000 C   0  0  0  0  0  0  0  0  0  0  0  0
   -0.9564   -2.1911    0.0000 N   0  0  0  0  0  0  0  0  0  0  0  0
   -0.2431   -2.6027    0.0000 C   0  0  0  0  0  0  0  0  0  0  0  0
    0.4703   -2.1911    0.0000 C   0  0  0  0  0  0  0  0  0  0  0  0
    0.4703   -1.3674    0.0000 C   0  0  0  0  0  0  0  0  0  0  0  0
   -0.2431   -0.9555    0.0000 N   0  0  0  0  0  0  0  0  0  0  0  0
    1.2535   -2.4457    0.0000 C   0  0  0  0  0  0  0  0  0  0  0  0
    1.7375   -1.7791    0.0000 N   0  0  0  0  0  0  0  0  0  0  0  0
    1.2535   -1.1128    0.0000 N   0  0  0  0  0  0  0  0  0  0  0  0
    1.5078   -0.3296    0.0000 C   0  0  0  0  0  0  0  0  0  0  0  0
    2.3136   -0.1583    0.0000 C   0  0  0  0  0  0  0  0  0  0  0  0
    2.5682    0.6249    0.0000 C   0  0  0  0  0  0  0  0  0  0  0  0
    2.0171    1.2371    0.0000 C   0  0  0  0  0  0  0  0  0  0  0  0
    1.2114    1.0658    0.0000 C   0  0  0  0  0  0  0  0  0  0  0  0
    0.9567    0.2826    0.0000 C   0  0  0  0  0  0  0  0  0  0  0  0
    2.2715    2.0203    0.0000 O   0  0  0  0  0  0  0  0  0  0  0  0
    1.6891    2.6027    0.0000 C   0  0  0  0  0  0  0  0  0  0  0  0
   -1.6709   -0.9550    0.0000 N   0  0  0  0  0  0  0  0  0  0  0  0
   -1.6710   -0.1300    0.0000 C   0  0  0  0  0  0  0  0  0  0  0  0
   -1.0035    0.3549    0.0000 C   0  0  0  0  0  0  0  0  0  0  0  0
   -1.2583    1.1395    0.0000 C   0  0  0  0  0  0  0  0  0  0  0  0
   -2.0833    1.1395    0.0000 C   0  0  0  0  0  0  0  0  0  0  0  0
   -2.3384    0.3549    0.0000 C   0  0  0  0  0  0  0  0  0  0  0  0
   -2.5682    1.8070    0.0000 N   0  0  0  0  0  0  0  0  0  0  0  0
  1  2  2  0        0
  2  3  1  0        0
  3  4  2  0        0
  4  5  1  0        0
  5  6  2  0        0
  6  1  1  0        0
  4  7  1  0        0
  7  8  2  0        0
  8  9  1  0        0
  9  5  1  0        0
  9 10  1  0        0
 10 11  2  0        0
 11 12  1  0        0
 12 13  2  0        0
 13 14  1  0        0
 14 15  2  0        0
 15 10  1  0        0
 13 16  1  0        0
 16 17  1  0        0
  1 18  1  0        0
 19 18  1  1        0
 19 20  1  0        0
 20 21  1  0        0
 21 22  1  0        0
 22 23  1  0        0
 23 19  1  0        0
 22 24  1  6        0
M  END
$$$$
