c22.sdf
 OpenBabel04162418103D

 44 47  0  0  0  0  0  0  0  0999 V2000
    1.9452   -0.6103    0.1257 C   0  0  0  1  0  0  0  0  0  0  0  0
    2.0362    0.7233    0.1482 N   0  0  0  1  0  0  0  0  0  0  0  0
    0.8946    1.4376    0.0881 C   0  0  0  1  0  0  0  0  0  0  0  0
   -0.3452    0.7386    0.0096 C   0  0  0  1  0  0  0  0  0  0  0  0
   -0.2528   -0.6477    0.0020 C   0  0  0  1  0  0  0  0  0  0  0  0
    0.8779   -1.3912    0.0539 N   0  0  0  1  0  0  0  0  0  0  0  0
   -1.7303    0.9921   -0.0538 C   0  0  0  1  0  0  0  0  0  0  0  0
   -2.4282   -0.1191   -0.1028 N   0  0  0  1  0  0  0  0  0  0  0  0
   -1.5125   -1.1342   -0.0681 N   0  0  0  1  0  0  0  0  0  0  0  0
   -1.8385   -2.5051   -0.1010 C   0  0  0  1  0  0  0  0  0  0  0  0
   -2.3475   -3.0142   -1.2808 C   0  0  0  1  0  0  0  0  0  0  0  0
   -2.6798   -4.3571   -1.3697 C   0  0  0  1  0  0  0  0  0  0  0  0
   -2.5073   -5.1857   -0.2770 C   0  0  0  1  0  0  0  0  0  0  0  0
   -1.9968   -4.6748    0.9063 C   0  0  0  1  0  0  0  0  0  0  0  0
   -1.6655   -3.3359    0.9951 C   0  0  0  1  0  0  0  0  0  0  0  0
   -2.7999   -6.5074   -0.2433 O   0  0  0  1  0  0  0  0  0  0  0  0
   -3.4094   -7.0746   -1.4134 C   0  0  0  1  0  0  0  0  0  0  0  0
    3.1213   -1.2605    0.1851 N   0  0  0  1  0  0  0  0  0  0  0  0
    4.4208   -0.5911    0.2592 C   0  0  0  1  0  0  0  0  0  0  0  0
    5.0740   -0.5277   -1.1178 C   0  0  0  1  0  0  0  0  0  0  0  0
    6.1171   -1.6499   -1.1837 C   0  0  0  1  0  0  0  0  0  0  0  0
    6.6832   -1.6597    0.2760 C   0  0  0  1  0  0  0  0  0  0  0  0
    5.4244   -1.4236    1.1309 C   0  0  0  1  0  0  0  0  0  0  0  0
    7.6817   -0.5644    0.4737 N   0  0  0  1  0  0  0  0  0  0  0  0
    0.9180    2.4772    0.0988 H   0  0  0  1  0  0  0  0  0  0  0  0
   -2.1490    1.9441   -0.0609 H   0  0  0  1  0  0  0  0  0  0  0  0
   -2.4811   -2.3900   -2.1018 H   0  0  0  1  0  0  0  0  0  0  0  0
   -3.0590   -4.7410   -2.2587 H   0  0  0  1  0  0  0  0  0  0  0  0
   -1.8632   -5.2990    1.7273 H   0  0  0  1  0  0  0  0  0  0  0  0
   -1.2863   -2.9518    1.8841 H   0  0  0  1  0  0  0  0  0  0  0  0
   -4.2776   -6.5065   -1.6749 H   0  0  0  1  0  0  0  0  0  0  0  0
   -3.6929   -8.0867   -1.2125 H   0  0  0  1  0  0  0  0  0  0  0  0
   -2.7119   -7.0533   -2.2245 H   0  0  0  1  0  0  0  0  0  0  0  0
    3.1072   -2.2404    0.1784 H   0  0  0  1  0  0  0  0  0  0  0  0
    4.2940    0.3915    0.6632 H   0  0  0  1  0  0  0  0  0  0  0  0
    5.5491    0.4214   -1.2536 H   0  0  0  1  0  0  0  0  0  0  0  0
    4.3359   -0.6698   -1.8793 H   0  0  0  1  0  0  0  0  0  0  0  0
    5.6638   -2.5872   -1.4303 H   0  0  0  1  0  0  0  0  0  0  0  0
    6.8838   -1.4256   -1.8956 H   0  0  0  1  0  0  0  0  0  0  0  0
    7.1354   -2.6014    0.5077 H   0  0  0  1  0  0  0  0  0  0  0  0
    5.6794   -0.8796    2.0162 H   0  0  0  1  0  0  0  0  0  0  0  0
    4.9844   -2.3607    1.4018 H   0  0  0  1  0  0  0  0  0  0  0  0
    8.0813   -0.6430    1.3652 H   0  0  0  1  0  0  0  0  0  0  0  0
    7.2344    0.3038    0.3920 H   0  0  0  1  0  0  0  0  0  0  0  0
  1  2  4  0  0  0  0
  1  6  4  0  0  0  0
  1 18  1  0  0  0  0
  2  3  4  0  0  0  0
  3  4  4  0  0  0  0
  3 25  1  0  0  0  0
  4  5  4  0  0  0  0
  4  7  4  0  0  0  0
  5  6  4  0  0  0  0
  5  9  4  0  0  0  0
  7  8  4  0  0  0  0
  7 26  1  0  0  0  0
  8  9  4  0  0  0  0
  9 10  1  0  0  0  0
 10 11  4  0  0  0  0
 10 15  4  0  0  0  0
 11 12  4  0  0  0  0
 11 27  1  0  0  0  0
 12 13  4  0  0  0  0
 12 28  1  0  0  0  0
 13 14  4  0  0  0  0
 13 16  1  0  0  0  0
 14 15  4  0  0  0  0
 14 29  1  0  0  0  0
 15 30  1  0  0  0  0
 16 17  1  0  0  0  0
 17 31  1  0  0  0  0
 17 32  1  0  0  0  0
 17 33  1  0  0  0  0
 18 19  1  0  0  0  0
 18 34  1  0  0  0  0
 19 20  1  0  0  0  0
 19 23  1  0  0  0  0
 19 35  1  0  0  0  0
 20 21  1  0  0  0  0
 20 36  1  0  0  0  0
 20 37  1  0  0  0  0
 21 22  1  0  0  0  0
 21 38  1  0  0  0  0
 21 39  1  0  0  0  0
 22 23  1  0  0  0  0
 22 24  1  0  0  0  0
 22 40  1  0  0  0  0
 23 41  1  0  0  0  0
 23 42  1  0  0  0  0
 24 43  1  0  0  0  0
 24 44  1  0  0  0  0
M  END
> <ConfClashScore>
0 

> <ConfOneFourInteractionScore>
-0.984337 

> <ConfScore>
-0.134924 

> <ConfScorePBest>
0.0053259 

> <ConfTolerance>
0.279313 

$$$$
c22.sdf
 OpenBabel04162418103D

 44 47  0  0  0  0  0  0  0  0999 V2000
    1.9452   -0.6103    0.1255 C   0  0  0  1  0  0  0  0  0  0  0  0
    2.0363    0.7232    0.1480 N   0  0  0  1  0  0  0  0  0  0  0  0
    0.8946    1.4376    0.0881 C   0  0  0  1  0  0  0  0  0  0  0  0
   -0.3452    0.7386    0.0096 C   0  0  0  1  0  0  0  0  0  0  0  0
   -0.2529   -0.6478    0.0020 C   0  0  0  1  0  0  0  0  0  0  0  0
    0.8779   -1.3913    0.0538 N   0  0  0  1  0  0  0  0  0  0  0  0
   -1.7303    0.9921   -0.0538 C   0  0  0  1  0  0  0  0  0  0  0  0
   -2.4282   -0.1191   -0.1028 N   0  0  0  1  0  0  0  0  0  0  0  0
   -1.5125   -1.1342   -0.0681 N   0  0  0  1  0  0  0  0  0  0  0  0
   -1.8398   -2.5098   -0.1011 C   0  0  0  1  0  0  0  0  0  0  0  0
   -2.6423   -3.0051   -1.1114 C   0  0  0  1  0  0  0  0  0  0  0  0
   -2.9585   -4.3543   -1.1467 C   0  0  0  1  0  0  0  0  0  0  0  0
   -2.4757   -5.2033   -0.1688 C   0  0  0  1  0  0  0  0  0  0  0  0
   -1.6708   -4.7062    0.8446 C   0  0  0  1  0  0  0  0  0  0  0  0
   -1.3554   -3.3610    0.8799 C   0  0  0  1  0  0  0  0  0  0  0  0
   -2.7204   -6.5332   -0.0965 O   0  0  0  1  0  0  0  0  0  0  0  0
   -3.7734   -7.0525   -0.9236 C   0  0  0  1  0  0  0  0  0  0  0  0
    3.1447   -1.2735    0.1859 N   0  0  0  1  0  0  0  0  0  0  0  0
    3.2138   -2.7237    0.2258 C   0  0  0  1  0  0  0  0  0  0  0  0
    3.0468   -3.2261    1.6545 C   0  0  0  1  0  0  0  0  0  0  0  0
    3.8844   -4.5100    1.7158 C   0  0  0  1  0  0  0  0  0  0  0  0
    5.1262   -4.0979    0.9206 C   0  0  0  1  0  0  0  0  0  0  0  0
    4.6001   -3.2069   -0.2158 C   0  0  0  1  0  0  0  0  0  0  0  0
    5.8166   -5.3024    0.3654 N   0  0  0  1  0  0  0  0  0  0  0  0
    0.9179    2.4772    0.0987 H   0  0  0  1  0  0  0  0  0  0  0  0
   -2.1490    1.9441   -0.0607 H   0  0  0  1  0  0  0  0  0  0  0  0
   -3.0089   -2.3657   -1.8452 H   0  0  0  1  0  0  0  0  0  0  0  0
   -3.5590   -4.7278   -1.9093 H   0  0  0  1  0  0  0  0  0  0  0  0
   -1.3041   -5.3457    1.5782 H   0  0  0  1  0  0  0  0  0  0  0  0
   -0.7549   -2.9876    1.6424 H   0  0  0  1  0  0  0  0  0  0  0  0
   -4.7156   -6.6830   -0.5763 H   0  0  0  1  0  0  0  0  0  0  0  0
   -3.7701   -8.1214   -0.8755 H   0  0  0  1  0  0  0  0  0  0  0  0
   -3.6189   -6.7400   -1.9352 H   0  0  0  1  0  0  0  0  0  0  0  0
    3.9764   -0.7554    0.2027 H   0  0  0  1  0  0  0  0  0  0  0  0
    2.4550   -3.1349   -0.4067 H   0  0  0  1  0  0  0  0  0  0  0  0
    3.4126   -2.5034    2.3537 H   0  0  0  1  0  0  0  0  0  0  0  0
    2.0186   -3.4362    1.8628 H   0  0  0  1  0  0  0  0  0  0  0  0
    4.1330   -4.7673    2.7242 H   0  0  0  1  0  0  0  0  0  0  0  0
    3.3774   -5.3305    1.2524 H   0  0  0  1  0  0  0  0  0  0  0  0
    5.8050   -3.5517    1.5417 H   0  0  0  1  0  0  0  0  0  0  0  0
    4.5251   -3.7691   -1.1231 H   0  0  0  1  0  0  0  0  0  0  0  0
    5.2532   -2.3727   -0.3654 H   0  0  0  1  0  0  0  0  0  0  0  0
    6.5200   -5.0191   -0.2554 H   0  0  0  1  0  0  0  0  0  0  0  0
    5.1667   -5.8607   -0.1104 H   0  0  0  1  0  0  0  0  0  0  0  0
  1  2  4  0  0  0  0
  1  6  4  0  0  0  0
  1 18  1  0  0  0  0
  2  3  4  0  0  0  0
  3  4  4  0  0  0  0
  3 25  1  0  0  0  0
  4  5  4  0  0  0  0
  4  7  4  0  0  0  0
  5  6  4  0  0  0  0
  5  9  4  0  0  0  0
  7  8  4  0  0  0  0
  7 26  1  0  0  0  0
  8  9  4  0  0  0  0
  9 10  1  0  0  0  0
 10 11  4  0  0  0  0
 10 15  4  0  0  0  0
 11 12  4  0  0  0  0
 11 27  1  0  0  0  0
 12 13  4  0  0  0  0
 12 28  1  0  0  0  0
 13 14  4  0  0  0  0
 13 16  1  0  0  0  0
 14 15  4  0  0  0  0
 14 29  1  0  0  0  0
 15 30  1  0  0  0  0
 16 17  1  0  0  0  0
 17 31  1  0  0  0  0
 17 32  1  0  0  0  0
 17 33  1  0  0  0  0
 18 19  1  0  0  0  0
 18 34  1  0  0  0  0
 19 20  1  0  0  0  0
 19 23  1  0  0  0  0
 19 35  1  0  0  0  0
 20 21  1  0  0  0  0
 20 36  1  0  0  0  0
 20 37  1  0  0  0  0
 21 22  1  0  0  0  0
 21 38  1  0  0  0  0
 21 39  1  0  0  0  0
 22 23  1  0  0  0  0
 22 24  1  0  0  0  0
 22 40  1  0  0  0  0
 23 41  1  0  0  0  0
 23 42  1  0  0  0  0
 24 43  1  0  0  0  0
 24 44  1  0  0  0  0
M  END
> <ConfClashScore>
0 

> <ConfOneFourInteractionScore>
-0.984337 

> <ConfScore>
-0.134924 

> <ConfScorePBest>
0.00531257 

> <ConfTolerance>
0.249236 

$$$$
c22.sdf
 OpenBabel04162418103D

 44 47  0  0  0  0  0  0  0  0999 V2000
    1.9452   -0.6102    0.1255 C   0  0  0  1  0  0  0  0  0  0  0  0
    2.0363    0.7232    0.1482 N   0  0  0  1  0  0  0  0  0  0  0  0
    0.8946    1.4376    0.0881 C   0  0  0  1  0  0  0  0  0  0  0  0
   -0.3452    0.7386    0.0096 C   0  0  0  1  0  0  0  0  0  0  0  0
   -0.2528   -0.6478    0.0019 C   0  0  0  1  0  0  0  0  0  0  0  0
    0.8780   -1.3913    0.0538 N   0  0  0  1  0  0  0  0  0  0  0  0
   -1.7303    0.9921   -0.0538 C   0  0  0  1  0  0  0  0  0  0  0  0
   -2.4281   -0.1192   -0.1028 N   0  0  0  1  0  0  0  0  0  0  0  0
   -1.5125   -1.1342   -0.0681 N   0  0  0  1  0  0  0  0  0  0  0  0
   -1.8419   -2.5193   -0.1014 C   0  0  0  1  0  0  0  0  0  0  0  0
   -1.4359   -3.3508    0.9252 C   0  0  0  1  0  0  0  0  0  0  0  0
   -1.7611   -4.6979    0.8954 C   0  0  0  1  0  0  0  0  0  0  0  0
   -2.4866   -5.2107   -0.1633 C   0  0  0  1  0  0  0  0  0  0  0  0
   -2.8937   -4.3765   -1.1929 C   0  0  0  1  0  0  0  0  0  0  0  0
   -2.5696   -3.0332   -1.1634 C   0  0  0  1  0  0  0  0  0  0  0  0
   -2.7394   -6.5389   -0.0859 O   0  0  0  1  0  0  0  0  0  0  0  0
   -3.2868   -7.1718   -1.2531 C   0  0  0  1  0  0  0  0  0  0  0  0
    3.1379   -1.2697    0.1857 N   0  0  0  1  0  0  0  0  0  0  0  0
    3.2080   -2.7201    0.2032 C   0  0  0  1  0  0  0  0  0  0  0  0
    3.3540   -3.2228    1.6411 C   0  0  0  1  0  0  0  0  0  0  0  0
    4.7542   -3.8132    1.7391 C   0  0  0  1  0  0  0  0  0  0  0  0
    5.5475   -3.2397    0.5729 C   0  0  0  1  0  0  0  0  0  0  0  0
    4.4717   -3.2069   -0.5762 C   0  0  0  1  0  0  0  0  0  0  0  0
    6.6877   -4.1159    0.2165 N   0  0  0  1  0  0  0  0  0  0  0  0
    0.9178    2.4772    0.0988 H   0  0  0  1  0  0  0  0  0  0  0  0
   -2.1490    1.9440   -0.0608 H   0  0  0  1  0  0  0  0  0  0  0  0
   -0.8865   -2.9659    1.7200 H   0  0  0  1  0  0  0  0  0  0  0  0
   -1.4592   -5.3229    1.6699 H   0  0  0  1  0  0  0  0  0  0  0  0
   -3.4431   -4.7615   -1.9877 H   0  0  0  1  0  0  0  0  0  0  0  0
   -2.8715   -2.4082   -1.9378 H   0  0  0  1  0  0  0  0  0  0  0  0
   -3.4970   -8.1985   -1.0372 H   0  0  0  1  0  0  0  0  0  0  0  0
   -2.5804   -7.1135   -2.0545 H   0  0  0  1  0  0  0  0  0  0  0  0
   -4.1909   -6.6749   -1.5370 H   0  0  0  1  0  0  0  0  0  0  0  0
    3.9690   -0.7512    0.2179 H   0  0  0  1  0  0  0  0  0  0  0  0
    2.3228   -3.1258   -0.2404 H   0  0  0  1  0  0  0  0  0  0  0  0
    2.6193   -3.9723    1.8492 H   0  0  0  1  0  0  0  0  0  0  0  0
    3.2433   -2.4126    2.3311 H   0  0  0  1  0  0  0  0  0  0  0  0
    5.2082   -3.5352    2.6673 H   0  0  0  1  0  0  0  0  0  0  0  0
    4.7112   -4.8800    1.6678 H   0  0  0  1  0  0  0  0  0  0  0  0
    5.9079   -2.2570    0.7950 H   0  0  0  1  0  0  0  0  0  0  0  0
    4.7445   -2.5189   -1.3488 H   0  0  0  1  0  0  0  0  0  0  0  0
    4.3210   -4.1781   -0.9995 H   0  0  0  1  0  0  0  0  0  0  0  0
    7.1910   -3.7137   -0.5220 H   0  0  0  1  0  0  0  0  0  0  0  0
    6.3510   -4.9943   -0.0583 H   0  0  0  1  0  0  0  0  0  0  0  0
  1  2  4  0  0  0  0
  1  6  4  0  0  0  0
  1 18  1  0  0  0  0
  2  3  4  0  0  0  0
  3  4  4  0  0  0  0
  3 25  1  0  0  0  0
  4  5  4  0  0  0  0
  4  7  4  0  0  0  0
  5  6  4  0  0  0  0
  5  9  4  0  0  0  0
  7  8  4  0  0  0  0
  7 26  1  0  0  0  0
  8  9  4  0  0  0  0
  9 10  1  0  0  0  0
 10 11  4  0  0  0  0
 10 15  4  0  0  0  0
 11 12  4  0  0  0  0
 11 27  1  0  0  0  0
 12 13  4  0  0  0  0
 12 28  1  0  0  0  0
 13 14  4  0  0  0  0
 13 16  1  0  0  0  0
 14 15  4  0  0  0  0
 14 29  1  0  0  0  0
 15 30  1  0  0  0  0
 16 17  1  0  0  0  0
 17 31  1  0  0  0  0
 17 32  1  0  0  0  0
 17 33  1  0  0  0  0
 18 19  1  0  0  0  0
 18 34  1  0  0  0  0
 19 20  1  0  0  0  0
 19 23  1  0  0  0  0
 19 35  1  0  0  0  0
 20 21  1  0  0  0  0
 20 36  1  0  0  0  0
 20 37  1  0  0  0  0
 21 22  1  0  0  0  0
 21 38  1  0  0  0  0
 21 39  1  0  0  0  0
 22 23  1  0  0  0  0
 22 24  1  0  0  0  0
 22 40  1  0  0  0  0
 23 41  1  0  0  0  0
 23 42  1  0  0  0  0
 24 43  1  0  0  0  0
 24 44  1  0  0  0  0
M  END
> <ConfClashScore>
0 

> <ConfOneFourInteractionScore>
-0.984337 

> <ConfScore>
-0.134924 

> <ConfScorePBest>
0.00529924 

> <ConfTolerance>
0.216659 

$$$$
c22.sdf
 OpenBabel04162418103D

 44 47  0  0  0  0  0  0  0  0999 V2000
    1.9452   -0.6102    0.1256 C   0  0  0  1  0  0  0  0  0  0  0  0
    2.0362    0.7233    0.1482 N   0  0  0  1  0  0  0  0  0  0  0  0
    0.8946    1.4376    0.0881 C   0  0  0  1  0  0  0  0  0  0  0  0
   -0.3452    0.7386    0.0096 C   0  0  0  1  0  0  0  0  0  0  0  0
   -0.2528   -0.6478    0.0020 C   0  0  0  1  0  0  0  0  0  0  0  0
    0.8780   -1.3913    0.0539 N   0  0  0  1  0  0  0  0  0  0  0  0
   -1.7303    0.9920   -0.0538 C   0  0  0  1  0  0  0  0  0  0  0  0
   -2.4282   -0.1191   -0.1028 N   0  0  0  1  0  0  0  0  0  0  0  0
   -1.5125   -1.1341   -0.0681 N   0  0  0  1  0  0  0  0  0  0  0  0
   -1.8370   -2.4986   -0.1008 C   0  0  0  1  0  0  0  0  0  0  0  0
   -1.4353   -3.2301    1.0007 C   0  0  0  1  0  0  0  0  0  0  0  0
   -1.7118   -4.5867    1.0699 C   0  0  0  1  0  0  0  0  0  0  0  0
   -2.3844   -5.2087    0.0350 C   0  0  0  1  0  0  0  0  0  0  0  0
   -2.7871   -4.4747   -1.0698 C   0  0  0  1  0  0  0  0  0  0  0  0
   -2.5116   -3.1221   -1.1389 C   0  0  0  1  0  0  0  0  0  0  0  0
   -2.7604   -6.5076    0.1088 O   0  0  0  1  0  0  0  0  0  0  0  0
   -3.3144   -7.0987   -1.0770 C   0  0  0  1  0  0  0  0  0  0  0  0
    3.1257   -1.2629    0.1852 N   0  0  0  1  0  0  0  0  0  0  0  0
    4.4289   -0.5983    0.1348 C   0  0  0  1  0  0  0  0  0  0  0  0
    5.0233   -0.6599   -1.2854 C   0  0  0  1  0  0  0  0  0  0  0  0
    6.5504   -0.5855   -1.1111 C   0  0  0  1  0  0  0  0  0  0  0  0
    6.8464   -0.9297    0.3759 C   0  0  0  1  0  0  0  0  0  0  0  0
    5.4808   -1.3635    1.0074 C   0  0  0  1  0  0  0  0  0  0  0  0
    7.3924    0.2803    1.0932 N   0  0  0  1  0  0  0  0  0  0  0  0
    0.9179    2.4772    0.0988 H   0  0  0  1  0  0  0  0  0  0  0  0
   -2.1490    1.9441   -0.0608 H   0  0  0  1  0  0  0  0  0  0  0  0
   -0.9257   -2.7630    1.7777 H   0  0  0  1  0  0  0  0  0  0  0  0
   -1.4131   -5.1365    1.9007 H   0  0  0  1  0  0  0  0  0  0  0  0
   -3.2968   -4.9418   -1.8467 H   0  0  0  1  0  0  0  0  0  0  0  0
   -2.8103   -2.5722   -1.9695 H   0  0  0  1  0  0  0  0  0  0  0  0
   -3.4342   -8.1516   -0.9287 H   0  0  0  1  0  0  0  0  0  0  0  0
   -2.6548   -6.9278   -1.9020 H   0  0  0  1  0  0  0  0  0  0  0  0
   -4.2669   -6.6573   -1.2837 H   0  0  0  1  0  0  0  0  0  0  0  0
    3.1090   -2.2393    0.2669 H   0  0  0  1  0  0  0  0  0  0  0  0
    4.3259    0.4152    0.4622 H   0  0  0  1  0  0  0  0  0  0  0  0
    4.6755    0.1662   -1.8698 H   0  0  0  1  0  0  0  0  0  0  0  0
    4.7483   -1.5767   -1.7637 H   0  0  0  1  0  0  0  0  0  0  0  0
    6.8999    0.3999   -1.3382 H   0  0  0  1  0  0  0  0  0  0  0  0
    7.0301   -1.2922   -1.7556 H   0  0  0  1  0  0  0  0  0  0  0  0
    7.5536   -1.7304    0.4370 H   0  0  0  1  0  0  0  0  0  0  0  0
    5.3430   -2.4221    0.9349 H   0  0  0  1  0  0  0  0  0  0  0  0
    5.4195   -1.0647    2.0330 H   0  0  0  1  0  0  0  0  0  0  0  0
    6.6935    0.9640    1.1599 H   0  0  0  1  0  0  0  0  0  0  0  0
    8.1544    0.6401    0.5929 H   0  0  0  1  0  0  0  0  0  0  0  0
  1  2  4  0  0  0  0
  1  6  4  0  0  0  0
  1 18  1  0  0  0  0
  2  3  4  0  0  0  0
  3  4  4  0  0  0  0
  3 25  1  0  0  0  0
  4  5  4  0  0  0  0
  4  7  4  0  0  0  0
  5  6  4  0  0  0  0
  5  9  4  0  0  0  0
  7  8  4  0  0  0  0
  7 26  1  0  0  0  0
  8  9  4  0  0  0  0
  9 10  1  0  0  0  0
 10 11  4  0  0  0  0
 10 15  4  0  0  0  0
 11 12  4  0  0  0  0
 11 27  1  0  0  0  0
 12 13  4  0  0  0  0
 12 28  1  0  0  0  0
 13 14  4  0  0  0  0
 13 16  1  0  0  0  0
 14 15  4  0  0  0  0
 14 29  1  0  0  0  0
 15 30  1  0  0  0  0
 16 17  1  0  0  0  0
 17 31  1  0  0  0  0
 17 32  1  0  0  0  0
 17 33  1  0  0  0  0
 18 19  1  0  0  0  0
 18 34  1  0  0  0  0
 19 20  1  0  0  0  0
 19 23  1  0  0  0  0
 19 35  1  0  0  0  0
 20 21  1  0  0  0  0
 20 36  1  0  0  0  0
 20 37  1  0  0  0  0
 21 22  1  0  0  0  0
 21 38  1  0  0  0  0
 21 39  1  0  0  0  0
 22 23  1  0  0  0  0
 22 24  1  0  0  0  0
 22 40  1  0  0  0  0
 23 41  1  0  0  0  0
 23 42  1  0  0  0  0
 24 43  1  0  0  0  0
 24 44  1  0  0  0  0
M  END
> <ConfClashScore>
0 

> <ConfOneFourInteractionScore>
-0.984337 

> <ConfScore>
-0.131922 

> <ConfScorePBest>
0.00528591 

> <ConfTolerance>
0.237608 

$$$$
c22.sdf
 OpenBabel04162418103D

 44 47  0  0  0  0  0  0  0  0999 V2000
    1.9453   -0.6102    0.1256 C   0  0  0  1  0  0  0  0  0  0  0  0
    2.0363    0.7234    0.1482 N   0  0  0  1  0  0  0  0  0  0  0  0
    0.8946    1.4376    0.0881 C   0  0  0  1  0  0  0  0  0  0  0  0
   -0.3452    0.7386    0.0096 C   0  0  0  1  0  0  0  0  0  0  0  0
   -0.2528   -0.6477    0.0021 C   0  0  0  1  0  0  0  0  0  0  0  0
    0.8779   -1.3912    0.0539 N   0  0  0  1  0  0  0  0  0  0  0  0
   -1.7304    0.9921   -0.0538 C   0  0  0  1  0  0  0  0  0  0  0  0
   -2.4282   -0.1191   -0.1029 N   0  0  0  1  0  0  0  0  0  0  0  0
   -1.5125   -1.1341   -0.0681 N   0  0  0  1  0  0  0  0  0  0  0  0
   -1.8385   -2.5051   -0.1010 C   0  0  0  1  0  0  0  0  0  0  0  0
   -2.5423   -2.9699   -1.1959 C   0  0  0  1  0  0  0  0  0  0  0  0
   -2.8841   -4.3105   -1.2817 C   0  0  0  1  0  0  0  0  0  0  0  0
   -2.5260   -5.1814   -0.2699 C   0  0  0  1  0  0  0  0  0  0  0  0
   -1.8202   -4.7149    0.8282 C   0  0  0  1  0  0  0  0  0  0  0  0
   -1.4792   -3.3782    0.9139 C   0  0  0  1  0  0  0  0  0  0  0  0
   -2.8076   -6.5056   -0.2410 O   0  0  0  1  0  0  0  0  0  0  0  0
   -3.5946   -7.0328   -1.3204 C   0  0  0  1  0  0  0  0  0  0  0  0
    3.1213   -1.2604    0.1850 N   0  0  0  1  0  0  0  0  0  0  0  0
    4.4530   -0.6487    0.2378 C   0  0  0  1  0  0  0  0  0  0  0  0
    5.0321   -0.5253   -1.1731 C   0  0  0  1  0  0  0  0  0  0  0  0
    6.2046   -1.4948   -1.2319 C   0  0  0  1  0  0  0  0  0  0  0  0
    6.0079   -2.4807   -0.0884 C   0  0  0  1  0  0  0  0  0  0  0  0
    5.4307   -1.5581    1.0494 C   0  0  0  1  0  0  0  0  0  0  0  0
    7.2942   -3.0952    0.3187 N   0  0  0  1  0  0  0  0  0  0  0  0
    0.9179    2.4773    0.0988 H   0  0  0  1  0  0  0  0  0  0  0  0
   -2.1490    1.9442   -0.0609 H   0  0  0  1  0  0  0  0  0  0  0  0
   -2.8153   -2.3140   -1.9554 H   0  0  0  1  0  0  0  0  0  0  0  0
   -3.4101   -4.6612   -2.1075 H   0  0  0  1  0  0  0  0  0  0  0  0
   -1.5471   -5.3708    1.5877 H   0  0  0  1  0  0  0  0  0  0  0  0
   -0.9533   -3.0275    1.7397 H   0  0  0  1  0  0  0  0  0  0  0  0
   -3.7901   -8.0703   -1.1463 H   0  0  0  1  0  0  0  0  0  0  0  0
   -3.0591   -6.9205   -2.2399 H   0  0  0  1  0  0  0  0  0  0  0  0
   -4.5210   -6.5006   -1.3792 H   0  0  0  1  0  0  0  0  0  0  0  0
    3.0845   -2.2397    0.1939 H   0  0  0  1  0  0  0  0  0  0  0  0
    4.3847    0.3170    0.6934 H   0  0  0  1  0  0  0  0  0  0  0  0
    4.2945   -0.7895   -1.9019 H   0  0  0  1  0  0  0  0  0  0  0  0
    5.3676    0.4749   -1.3510 H   0  0  0  1  0  0  0  0  0  0  0  0
    7.1272   -0.9668   -1.1102 H   0  0  0  1  0  0  0  0  0  0  0  0
    6.2100   -2.0118   -2.1687 H   0  0  0  1  0  0  0  0  0  0  0  0
    5.3130   -3.2496   -0.3543 H   0  0  0  1  0  0  0  0  0  0  0  0
    4.9109   -2.1287    1.7905 H   0  0  0  1  0  0  0  0  0  0  0  0
    6.2026   -0.9837    1.5175 H   0  0  0  1  0  0  0  0  0  0  0  0
    7.9581   -2.3914    0.4749 H   0  0  0  1  0  0  0  0  0  0  0  0
    7.6108   -3.6907   -0.3923 H   0  0  0  1  0  0  0  0  0  0  0  0
  1  2  4  0  0  0  0
  1  6  4  0  0  0  0
  1 18  1  0  0  0  0
  2  3  4  0  0  0  0
  3  4  4  0  0  0  0
  3 25  1  0  0  0  0
  4  5  4  0  0  0  0
  4  7  4  0  0  0  0
  5  6  4  0  0  0  0
  5  9  4  0  0  0  0
  7  8  4  0  0  0  0
  7 26  1  0  0  0  0
  8  9  4  0  0  0  0
  9 10  1  0  0  0  0
 10 11  4  0  0  0  0
 10 15  4  0  0  0  0
 11 12  4  0  0  0  0
 11 27  1  0  0  0  0
 12 13  4  0  0  0  0
 12 28  1  0  0  0  0
 13 14  4  0  0  0  0
 13 16  1  0  0  0  0
 14 15  4  0  0  0  0
 14 29  1  0  0  0  0
 15 30  1  0  0  0  0
 16 17  1  0  0  0  0
 17 31  1  0  0  0  0
 17 32  1  0  0  0  0
 17 33  1  0  0  0  0
 18 19  1  0  0  0  0
 18 34  1  0  0  0  0
 19 20  1  0  0  0  0
 19 23  1  0  0  0  0
 19 35  1  0  0  0  0
 20 21  1  0  0  0  0
 20 36  1  0  0  0  0
 20 37  1  0  0  0  0
 21 22  1  0  0  0  0
 21 38  1  0  0  0  0
 21 39  1  0  0  0  0
 22 23  1  0  0  0  0
 22 24  1  0  0  0  0
 22 40  1  0  0  0  0
 23 41  1  0  0  0  0
 23 42  1  0  0  0  0
 24 43  1  0  0  0  0
 24 44  1  0  0  0  0
M  END
> <ConfClashScore>
0 

> <ConfOneFourInteractionScore>
-0.984337 

> <ConfScore>
-0.131922 

> <ConfScorePBest>
0.00527258 

> <ConfTolerance>
0.218552 

$$$$
c22.sdf
 OpenBabel04162418103D

 44 47  0  0  0  0  0  0  0  0999 V2000
    1.9453   -0.6102    0.1255 C   0  0  0  1  0  0  0  0  0  0  0  0
    2.0364    0.7233    0.1481 N   0  0  0  1  0  0  0  0  0  0  0  0
    0.8946    1.4376    0.0881 C   0  0  0  1  0  0  0  0  0  0  0  0
   -0.3453    0.7386    0.0096 C   0  0  0  1  0  0  0  0  0  0  0  0
   -0.2528   -0.6478    0.0020 C   0  0  0  1  0  0  0  0  0  0  0  0
    0.8780   -1.3913    0.0539 N   0  0  0  1  0  0  0  0  0  0  0  0
   -1.7304    0.9920   -0.0538 C   0  0  0  1  0  0  0  0  0  0  0  0
   -2.4281   -0.1191   -0.1028 N   0  0  0  1  0  0  0  0  0  0  0  0
   -1.5125   -1.1341   -0.0681 N   0  0  0  1  0  0  0  0  0  0  0  0
   -1.8419   -2.5192   -0.1013 C   0  0  0  1  0  0  0  0  0  0  0  0
   -1.3355   -3.3731    0.8603 C   0  0  0  1  0  0  0  0  0  0  0  0
   -1.6604   -4.7204    0.8309 C   0  0  0  1  0  0  0  0  0  0  0  0
   -2.4864   -5.2108   -0.1629 C   0  0  0  1  0  0  0  0  0  0  0  0
   -2.9942   -4.3542   -1.1271 C   0  0  0  1  0  0  0  0  0  0  0  0
   -2.6703   -3.0108   -1.0981 C   0  0  0  1  0  0  0  0  0  0  0  0
   -2.8378   -6.5157   -0.2509 O   0  0  0  1  0  0  0  0  0  0  0  0
   -3.9309   -6.8434   -1.1227 C   0  0  0  1  0  0  0  0  0  0  0  0
    3.1545   -1.2789    0.1866 N   0  0  0  1  0  0  0  0  0  0  0  0
    3.1249   -2.7399    0.2686 C   0  0  0  1  0  0  0  0  0  0  0  0
    2.8256   -3.1910    1.7261 C   0  0  0  1  0  0  0  0  0  0  0  0
    4.0983   -3.8840    2.2435 C   0  0  0  1  0  0  0  0  0  0  0  0
    5.2345   -3.4498    1.2974 C   0  0  0  1  0  0  0  0  0  0  0  0
    4.5283   -3.3316   -0.0956 C   0  0  0  1  0  0  0  0  0  0  0  0
    6.3108   -4.4685    1.2604 N   0  0  0  1  0  0  0  0  0  0  0  0
    0.9179    2.4772    0.0988 H   0  0  0  1  0  0  0  0  0  0  0  0
   -2.1490    1.9441   -0.0608 H   0  0  0  1  0  0  0  0  0  0  0  0
   -0.7107   -3.0049    1.6056 H   0  0  0  1  0  0  0  0  0  0  0  0
   -1.2826   -5.3623    1.5568 H   0  0  0  1  0  0  0  0  0  0  0  0
   -3.6190   -4.7224   -1.8727 H   0  0  0  1  0  0  0  0  0  0  0  0
   -3.0481   -2.3690   -1.8239 H   0  0  0  1  0  0  0  0  0  0  0  0
   -3.6627   -6.6158   -2.1332 H   0  0  0  1  0  0  0  0  0  0  0  0
   -4.7919   -6.2718   -0.8452 H   0  0  0  1  0  0  0  0  0  0  0  0
   -4.1529   -7.8868   -1.0392 H   0  0  0  1  0  0  0  0  0  0  0  0
    4.0038   -0.7900    0.1752 H   0  0  0  1  0  0  0  0  0  0  0  0
    2.3786   -3.1200   -0.3973 H   0  0  0  1  0  0  0  0  0  0  0  0
    2.5946   -2.3419    2.3348 H   0  0  0  1  0  0  0  0  0  0  0  0
    2.0024   -3.8744    1.7389 H   0  0  0  1  0  0  0  0  0  0  0  0
    4.3098   -3.5728    3.2452 H   0  0  0  1  0  0  0  0  0  0  0  0
    3.9793   -4.9471    2.2174 H   0  0  0  1  0  0  0  0  0  0  0  0
    5.6440   -2.5084    1.5992 H   0  0  0  1  0  0  0  0  0  0  0  0
    4.4320   -4.2907   -0.5602 H   0  0  0  1  0  0  0  0  0  0  0  0
    5.0664   -2.6727   -0.7446 H   0  0  0  1  0  0  0  0  0  0  0  0
    5.9491   -5.3146    0.9232 H   0  0  0  1  0  0  0  0  0  0  0  0
    6.6651   -4.6021    2.1643 H   0  0  0  1  0  0  0  0  0  0  0  0
  1  2  4  0  0  0  0
  1  6  4  0  0  0  0
  1 18  1  0  0  0  0
  2  3  4  0  0  0  0
  3  4  4  0  0  0  0
  3 25  1  0  0  0  0
  4  5  4  0  0  0  0
  4  7  4  0  0  0  0
  5  6  4  0  0  0  0
  5  9  4  0  0  0  0
  7  8  4  0  0  0  0
  7 26  1  0  0  0  0
  8  9  4  0  0  0  0
  9 10  1  0  0  0  0
 10 11  4  0  0  0  0
 10 15  4  0  0  0  0
 11 12  4  0  0  0  0
 11 27  1  0  0  0  0
 12 13  4  0  0  0  0
 12 28  1  0  0  0  0
 13 14  4  0  0  0  0
 13 16  1  0  0  0  0
 14 15  4  0  0  0  0
 14 29  1  0  0  0  0
 15 30  1  0  0  0  0
 16 17  1  0  0  0  0
 17 31  1  0  0  0  0
 17 32  1  0  0  0  0
 17 33  1  0  0  0  0
 18 19  1  0  0  0  0
 18 34  1  0  0  0  0
 19 20  1  0  0  0  0
 19 23  1  0  0  0  0
 19 35  1  0  0  0  0
 20 21  1  0  0  0  0
 20 36  1  0  0  0  0
 20 37  1  0  0  0  0
 21 22  1  0  0  0  0
 21 38  1  0  0  0  0
 21 39  1  0  0  0  0
 22 23  1  0  0  0  0
 22 24  1  0  0  0  0
 22 40  1  0  0  0  0
 23 41  1  0  0  0  0
 23 42  1  0  0  0  0
 24 43  1  0  0  0  0
 24 44  1  0  0  0  0
M  END
> <ConfClashScore>
0 

> <ConfOneFourInteractionScore>
-0.984337 

> <ConfScore>
-0.131922 

> <ConfScorePBest>
0.00525926 

> <ConfTolerance>
0.250944 

$$$$
c22.sdf
 OpenBabel04162418103D

 44 47  0  0  0  0  0  0  0  0999 V2000
    1.9453   -0.6102    0.1257 C   0  0  0  1  0  0  0  0  0  0  0  0
    2.0363    0.7233    0.1483 N   0  0  0  1  0  0  0  0  0  0  0  0
    0.8946    1.4376    0.0881 C   0  0  0  1  0  0  0  0  0  0  0  0
   -0.3452    0.7386    0.0096 C   0  0  0  1  0  0  0  0  0  0  0  0
   -0.2528   -0.6477    0.0020 C   0  0  0  1  0  0  0  0  0  0  0  0
    0.8779   -1.3912    0.0540 N   0  0  0  1  0  0  0  0  0  0  0  0
   -1.7304    0.9921   -0.0538 C   0  0  0  1  0  0  0  0  0  0  0  0
   -2.4282   -0.1191   -0.1029 N   0  0  0  1  0  0  0  0  0  0  0  0
   -1.5125   -1.1341   -0.0681 N   0  0  0  1  0  0  0  0  0  0  0  0
   -1.8397   -2.5099   -0.1011 C   0  0  0  1  0  0  0  0  0  0  0  0
   -1.2887   -3.3735    0.8268 C   0  0  0  1  0  0  0  0  0  0  0  0
   -1.6135   -4.7207    0.7976 C   0  0  0  1  0  0  0  0  0  0  0  0
   -2.4840   -5.2014   -0.1623 C   0  0  0  1  0  0  0  0  0  0  0  0
   -3.0365   -4.3351   -1.0928 C   0  0  0  1  0  0  0  0  0  0  0  0
   -2.7127   -2.9918   -1.0639 C   0  0  0  1  0  0  0  0  0  0  0  0
   -2.7204   -6.5260   -0.0955 O   0  0  0  1  0  0  0  0  0  0  0  0
   -3.6306   -7.0367   -1.0971 C   0  0  0  1  0  0  0  0  0  0  0  0
    3.1380   -1.2695    0.1860 N   0  0  0  1  0  0  0  0  0  0  0  0
    3.2104   -2.7371    0.1726 C   0  0  0  1  0  0  0  0  0  0  0  0
    3.3876   -3.3018    1.5847 C   0  0  0  1  0  0  0  0  0  0  0  0
    4.0457   -4.6768    1.3896 C   0  0  0  1  0  0  0  0  0  0  0  0
    4.6762   -4.6553   -0.0077 C   0  0  0  1  0  0  0  0  0  0  0  0
    4.4917   -3.2295   -0.5123 C   0  0  0  1  0  0  0  0  0  0  0  0
    3.9823   -5.6221   -0.9087 N   0  0  0  1  0  0  0  0  0  0  0  0
    0.9178    2.4773    0.0988 H   0  0  0  1  0  0  0  0  0  0  0  0
   -2.1490    1.9440   -0.0609 H   0  0  0  1  0  0  0  0  0  0  0  0
   -0.6306   -3.0126    1.5466 H   0  0  0  1  0  0  0  0  0  0  0  0
   -1.2021   -5.3700    1.4982 H   0  0  0  1  0  0  0  0  0  0  0  0
   -3.6946   -4.6959   -1.8126 H   0  0  0  1  0  0  0  0  0  0  0  0
   -3.1241   -2.3425   -1.7645 H   0  0  0  1  0  0  0  0  0  0  0  0
   -3.1920   -6.9279   -2.0670 H   0  0  0  1  0  0  0  0  0  0  0  0
   -4.5485   -6.4882   -1.0574 H   0  0  0  1  0  0  0  0  0  0  0  0
   -3.8245   -8.0718   -0.9079 H   0  0  0  1  0  0  0  0  0  0  0  0
    3.9679   -0.7511    0.2394 H   0  0  0  1  0  0  0  0  0  0  0  0
    2.3364   -3.1335   -0.3005 H   0  0  0  1  0  0  0  0  0  0  0  0
    4.0183   -2.6634    2.1675 H   0  0  0  1  0  0  0  0  0  0  0  0
    2.4390   -3.4054    2.0689 H   0  0  0  1  0  0  0  0  0  0  0  0
    3.3107   -5.4519    1.4527 H   0  0  0  1  0  0  0  0  0  0  0  0
    4.7981   -4.8367    2.1334 H   0  0  0  1  0  0  0  0  0  0  0  0
    5.7162   -4.9013    0.0470 H   0  0  0  1  0  0  0  0  0  0  0  0
    4.3792   -3.2176   -1.5764 H   0  0  0  1  0  0  0  0  0  0  0  0
    5.3261   -2.6200   -0.2346 H   0  0  0  1  0  0  0  0  0  0  0  0
    3.0123   -5.5159   -0.8175 H   0  0  0  1  0  0  0  0  0  0  0  0
    4.2351   -6.5364   -0.6631 H   0  0  0  1  0  0  0  0  0  0  0  0
  1  2  4  0  0  0  0
  1  6  4  0  0  0  0
  1 18  1  0  0  0  0
  2  3  4  0  0  0  0
  3  4  4  0  0  0  0
  3 25  1  0  0  0  0
  4  5  4  0  0  0  0
  4  7  4  0  0  0  0
  5  6  4  0  0  0  0
  5  9  4  0  0  0  0
  7  8  4  0  0  0  0
  7 26  1  0  0  0  0
  8  9  4  0  0  0  0
  9 10  1  0  0  0  0
 10 11  4  0  0  0  0
 10 15  4  0  0  0  0
 11 12  4  0  0  0  0
 11 27  1  0  0  0  0
 12 13  4  0  0  0  0
 12 28  1  0  0  0  0
 13 14  4  0  0  0  0
 13 16  1  0  0  0  0
 14 15  4  0  0  0  0
 14 29  1  0  0  0  0
 15 30  1  0  0  0  0
 16 17  1  0  0  0  0
 17 31  1  0  0  0  0
 17 32  1  0  0  0  0
 17 33  1  0  0  0  0
 18 19  1  0  0  0  0
 18 34  1  0  0  0  0
 19 20  1  0  0  0  0
 19 23  1  0  0  0  0
 19 35  1  0  0  0  0
 20 21  1  0  0  0  0
 20 36  1  0  0  0  0
 20 37  1  0  0  0  0
 21 22  1  0  0  0  0
 21 38  1  0  0  0  0
 21 39  1  0  0  0  0
 22 23  1  0  0  0  0
 22 24  1  0  0  0  0
 22 40  1  0  0  0  0
 23 41  1  0  0  0  0
 23 42  1  0  0  0  0
 24 43  1  0  0  0  0
 24 44  1  0  0  0  0
M  END
> <ConfClashScore>
0 

> <ConfOneFourInteractionScore>
-0.984337 

> <ConfScore>
-0.131922 

> <ConfScorePBest>
0.00524593 

> <ConfTolerance>
0.216489 

$$$$
c22.sdf
 OpenBabel04162418103D

 44 47  0  0  0  0  0  0  0  0999 V2000
    1.9452   -0.6102    0.1256 C   0  0  0  1  0  0  0  0  0  0  0  0
    2.0363    0.7233    0.1481 N   0  0  0  1  0  0  0  0  0  0  0  0
    0.8945    1.4375    0.0881 C   0  0  0  1  0  0  0  0  0  0  0  0
   -0.3453    0.7386    0.0096 C   0  0  0  1  0  0  0  0  0  0  0  0
   -0.2528   -0.6478    0.0020 C   0  0  0  1  0  0  0  0  0  0  0  0
    0.8779   -1.3912    0.0539 N   0  0  0  1  0  0  0  0  0  0  0  0
   -1.7303    0.9921   -0.0538 C   0  0  0  1  0  0  0  0  0  0  0  0
   -2.4282   -0.1191   -0.1028 N   0  0  0  1  0  0  0  0  0  0  0  0
   -1.5125   -1.1341   -0.0681 N   0  0  0  1  0  0  0  0  0  0  0  0
   -1.8397   -2.5098   -0.1011 C   0  0  0  1  0  0  0  0  0  0  0  0
   -0.9625   -3.4152   -0.6676 C   0  0  0  1  0  0  0  0  0  0  0  0
   -1.2808   -4.7641   -0.6951 C   0  0  0  1  0  0  0  0  0  0  0  0
   -2.4776   -5.2030   -0.1609 C   0  0  0  1  0  0  0  0  0  0  0  0
   -3.3572   -4.2948    0.4073 C   0  0  0  1  0  0  0  0  0  0  0  0
   -3.0400   -2.9498    0.4347 C   0  0  0  1  0  0  0  0  0  0  0  0
   -2.8976   -6.4902   -0.1348 O   0  0  0  1  0  0  0  0  0  0  0  0
   -2.0902   -7.4579   -0.8233 C   0  0  0  1  0  0  0  0  0  0  0  0
    3.1379   -1.2696    0.1858 N   0  0  0  1  0  0  0  0  0  0  0  0
    4.4128   -0.5504    0.2500 C   0  0  0  1  0  0  0  0  0  0  0  0
    5.1048   -0.5312   -1.1031 C   0  0  0  1  0  0  0  0  0  0  0  0
    5.7552   -1.9136   -1.2215 C   0  0  0  1  0  0  0  0  0  0  0  0
    5.9565   -2.4179    0.2138 C   0  0  0  1  0  0  0  0  0  0  0  0
    5.4312   -1.2987    1.1170 C   0  0  0  1  0  0  0  0  0  0  0  0
    7.4045   -2.6680    0.4809 N   0  0  0  1  0  0  0  0  0  0  0  0
    0.9179    2.4772    0.0987 H   0  0  0  1  0  0  0  0  0  0  0  0
   -2.1490    1.9441   -0.0608 H   0  0  0  1  0  0  0  0  0  0  0  0
   -0.0638   -3.0846   -1.0732 H   0  0  0  1  0  0  0  0  0  0  0  0
   -0.6189   -5.4459   -1.1177 H   0  0  0  1  0  0  0  0  0  0  0  0
   -4.2559   -4.6255    0.8129 H   0  0  0  1  0  0  0  0  0  0  0  0
   -3.7019   -2.2679    0.8574 H   0  0  0  1  0  0  0  0  0  0  0  0
   -2.5090   -8.4333   -0.6884 H   0  0  0  1  0  0  0  0  0  0  0  0
   -1.0963   -7.4390   -0.4278 H   0  0  0  1  0  0  0  0  0  0  0  0
   -2.0640   -7.2227   -1.8668 H   0  0  0  1  0  0  0  0  0  0  0  0
    3.1421   -2.2496    0.1861 H   0  0  0  1  0  0  0  0  0  0  0  0
    4.2455    0.4413    0.6152 H   0  0  0  1  0  0  0  0  0  0  0  0
    4.3945   -0.3790   -1.8887 H   0  0  0  1  0  0  0  0  0  0  0  0
    5.8461    0.2396   -1.1376 H   0  0  0  1  0  0  0  0  0  0  0  0
    6.6972   -1.8381   -1.7234 H   0  0  0  1  0  0  0  0  0  0  0  0
    5.1149   -2.5792   -1.7617 H   0  0  0  1  0  0  0  0  0  0  0  0
    5.4027   -3.3193    0.3746 H   0  0  0  1  0  0  0  0  0  0  0  0
    6.2268   -0.6471    1.4129 H   0  0  0  1  0  0  0  0  0  0  0  0
    4.9601   -1.7052    1.9875 H   0  0  0  1  0  0  0  0  0  0  0  0
    7.5072   -3.0883    1.3602 H   0  0  0  1  0  0  0  0  0  0  0  0
    7.8908   -1.8173    0.4668 H   0  0  0  1  0  0  0  0  0  0  0  0
  1  2  4  0  0  0  0
  1  6  4  0  0  0  0
  1 18  1  0  0  0  0
  2  3  4  0  0  0  0
  3  4  4  0  0  0  0
  3 25  1  0  0  0  0
  4  5  4  0  0  0  0
  4  7  4  0  0  0  0
  5  6  4  0  0  0  0
  5  9  4  0  0  0  0
  7  8  4  0  0  0  0
  7 26  1  0  0  0  0
  8  9  4  0  0  0  0
  9 10  1  0  0  0  0
 10 11  4  0  0  0  0
 10 15  4  0  0  0  0
 11 12  4  0  0  0  0
 11 27  1  0  0  0  0
 12 13  4  0  0  0  0
 12 28  1  0  0  0  0
 13 14  4  0  0  0  0
 13 16  1  0  0  0  0
 14 15  4  0  0  0  0
 14 29  1  0  0  0  0
 15 30  1  0  0  0  0
 16 17  1  0  0  0  0
 17 31  1  0  0  0  0
 17 32  1  0  0  0  0
 17 33  1  0  0  0  0
 18 19  1  0  0  0  0
 18 34  1  0  0  0  0
 19 20  1  0  0  0  0
 19 23  1  0  0  0  0
 19 35  1  0  0  0  0
 20 21  1  0  0  0  0
 20 36  1  0  0  0  0
 20 37  1  0  0  0  0
 21 22  1  0  0  0  0
 21 38  1  0  0  0  0
 21 39  1  0  0  0  0
 22 23  1  0  0  0  0
 22 24  1  0  0  0  0
 22 40  1  0  0  0  0
 23 41  1  0  0  0  0
 23 42  1  0  0  0  0
 24 43  1  0  0  0  0
 24 44  1  0  0  0  0
M  END
> <ConfClashScore>
0 

> <ConfOneFourInteractionScore>
-0.984337 

> <ConfScore>
-0.130267 

> <ConfScorePBest>
0.0052326 

> <ConfTolerance>
0.20612 

$$$$
c22.sdf
 OpenBabel04162418103D

 44 47  0  0  0  0  0  0  0  0999 V2000
    1.9452   -0.6102    0.1256 C   0  0  0  1  0  0  0  0  0  0  0  0
    2.0363    0.7233    0.1481 N   0  0  0  1  0  0  0  0  0  0  0  0
    0.8946    1.4375    0.0881 C   0  0  0  1  0  0  0  0  0  0  0  0
   -0.3452    0.7386    0.0097 C   0  0  0  1  0  0  0  0  0  0  0  0
   -0.2528   -0.6477    0.0020 C   0  0  0  1  0  0  0  0  0  0  0  0
    0.8780   -1.3912    0.0539 N   0  0  0  1  0  0  0  0  0  0  0  0
   -1.7304    0.9921   -0.0538 C   0  0  0  1  0  0  0  0  0  0  0  0
   -2.4281   -0.1191   -0.1029 N   0  0  0  1  0  0  0  0  0  0  0  0
   -1.5125   -1.1341   -0.0681 N   0  0  0  1  0  0  0  0  0  0  0  0
   -1.8396   -2.5099   -0.1011 C   0  0  0  1  0  0  0  0  0  0  0  0
   -3.0223   -3.0022    0.4176 C   0  0  0  1  0  0  0  0  0  0  0  0
   -3.2949   -4.3597    0.3538 C   0  0  0  1  0  0  0  0  0  0  0  0
   -2.3818   -5.2218   -0.2234 C   0  0  0  1  0  0  0  0  0  0  0  0
   -1.1956   -4.7279   -0.7436 C   0  0  0  1  0  0  0  0  0  0  0  0
   -0.9237   -3.3742   -0.6802 C   0  0  0  1  0  0  0  0  0  0  0  0
   -2.7541   -6.5238   -0.2235 O   0  0  0  1  0  0  0  0  0  0  0  0
   -1.7771   -7.4857   -0.6510 C   0  0  0  1  0  0  0  0  0  0  0  0
    3.1214   -1.2604    0.1849 N   0  0  0  1  0  0  0  0  0  0  0  0
    3.3148   -2.7132    0.1665 C   0  0  0  1  0  0  0  0  0  0  0  0
    3.5378   -3.2675    1.5795 C   0  0  0  1  0  0  0  0  0  0  0  0
    4.9856   -2.9231    1.9058 C   0  0  0  1  0  0  0  0  0  0  0  0
    5.7132   -2.9050    0.5564 C   0  0  0  1  0  0  0  0  0  0  0  0
    4.6303   -3.0943   -0.5177 C   0  0  0  1  0  0  0  0  0  0  0  0
    6.7126   -4.0222    0.4896 N   0  0  0  1  0  0  0  0  0  0  0  0
    0.9179    2.4772    0.0988 H   0  0  0  1  0  0  0  0  0  0  0  0
   -2.1490    1.9441   -0.0608 H   0  0  0  1  0  0  0  0  0  0  0  0
   -3.7077   -2.3541    0.8557 H   0  0  0  1  0  0  0  0  0  0  0  0
   -4.1867   -4.7297    0.7406 H   0  0  0  1  0  0  0  0  0  0  0  0
   -0.5102   -5.3759   -1.1817 H   0  0  0  1  0  0  0  0  0  0  0  0
   -0.0320   -3.0042   -1.0669 H   0  0  0  1  0  0  0  0  0  0  0  0
   -0.8577   -7.3163   -0.1306 H   0  0  0  1  0  0  0  0  0  0  0  0
   -1.6147   -7.3849   -1.7037 H   0  0  0  1  0  0  0  0  0  0  0  0
   -2.1311   -8.4724   -0.4370 H   0  0  0  1  0  0  0  0  0  0  0  0
    3.9286   -0.7082    0.2465 H   0  0  0  1  0  0  0  0  0  0  0  0
    2.4771   -3.1791   -0.3090 H   0  0  0  1  0  0  0  0  0  0  0  0
    3.3887   -4.3270    1.5970 H   0  0  0  1  0  0  0  0  0  0  0  0
    2.8729   -2.8019    2.2767 H   0  0  0  1  0  0  0  0  0  0  0  0
    5.0454   -1.9639    2.3762 H   0  0  0  1  0  0  0  0  0  0  0  0
    5.4105   -3.6641    2.5502 H   0  0  0  1  0  0  0  0  0  0  0  0
    6.2135   -1.9695    0.4176 H   0  0  0  1  0  0  0  0  0  0  0  0
    4.8167   -2.4546   -1.3548 H   0  0  0  1  0  0  0  0  0  0  0  0
    4.6013   -4.1124   -0.8455 H   0  0  0  1  0  0  0  0  0  0  0  0
    7.2979   -3.8917   -0.2856 H   0  0  0  1  0  0  0  0  0  0  0  0
    6.2414   -4.8770    0.4026 H   0  0  0  1  0  0  0  0  0  0  0  0
  1  2  4  0  0  0  0
  1  6  4  0  0  0  0
  1 18  1  0  0  0  0
  2  3  4  0  0  0  0
  3  4  4  0  0  0  0
  3 25  1  0  0  0  0
  4  5  4  0  0  0  0
  4  7  4  0  0  0  0
  5  6  4  0  0  0  0
  5  9  4  0  0  0  0
  7  8  4  0  0  0  0
  7 26  1  0  0  0  0
  8  9  4  0  0  0  0
  9 10  1  0  0  0  0
 10 11  4  0  0  0  0
 10 15  4  0  0  0  0
 11 12  4  0  0  0  0
 11 27  1  0  0  0  0
 12 13  4  0  0  0  0
 12 28  1  0  0  0  0
 13 14  4  0  0  0  0
 13 16  1  0  0  0  0
 14 15  4  0  0  0  0
 14 29  1  0  0  0  0
 15 30  1  0  0  0  0
 16 17  1  0  0  0  0
 17 31  1  0  0  0  0
 17 32  1  0  0  0  0
 17 33  1  0  0  0  0
 18 19  1  0  0  0  0
 18 34  1  0  0  0  0
 19 20  1  0  0  0  0
 19 23  1  0  0  0  0
 19 35  1  0  0  0  0
 20 21  1  0  0  0  0
 20 36  1  0  0  0  0
 20 37  1  0  0  0  0
 21 22  1  0  0  0  0
 21 38  1  0  0  0  0
 21 39  1  0  0  0  0
 22 23  1  0  0  0  0
 22 24  1  0  0  0  0
 22 40  1  0  0  0  0
 23 41  1  0  0  0  0
 23 42  1  0  0  0  0
 24 43  1  0  0  0  0
 24 44  1  0  0  0  0
M  END
> <ConfClashScore>
0 

> <ConfOneFourInteractionScore>
-0.984337 

> <ConfScore>
-0.130267 

> <ConfScorePBest>
0.00521927 

> <ConfTolerance>
0.232343 

$$$$
c22.sdf
 OpenBabel04162418103D

 44 47  0  0  0  0  0  0  0  0999 V2000
    1.9453   -0.6103    0.1254 C   0  0  0  1  0  0  0  0  0  0  0  0
    2.0363    0.7233    0.1481 N   0  0  0  1  0  0  0  0  0  0  0  0
    0.8946    1.4376    0.0881 C   0  0  0  1  0  0  0  0  0  0  0  0
   -0.3452    0.7386    0.0096 C   0  0  0  1  0  0  0  0  0  0  0  0
   -0.2528   -0.6478    0.0020 C   0  0  0  1  0  0  0  0  0  0  0  0
    0.8780   -1.3913    0.0538 N   0  0  0  1  0  0  0  0  0  0  0  0
   -1.7303    0.9921   -0.0538 C   0  0  0  1  0  0  0  0  0  0  0  0
   -2.4282   -0.1191   -0.1028 N   0  0  0  1  0  0  0  0  0  0  0  0
   -1.5126   -1.1341   -0.0681 N   0  0  0  1  0  0  0  0  0  0  0  0
   -1.8370   -2.4985   -0.1009 C   0  0  0  1  0  0  0  0  0  0  0  0
   -0.9275   -3.3088   -0.7538 C   0  0  0  1  0  0  0  0  0  0  0  0
   -1.1515   -4.6741   -0.8382 C   0  0  0  1  0  0  0  0  0  0  0  0
   -2.2869   -5.2245   -0.2739 C   0  0  0  1  0  0  0  0  0  0  0  0
   -3.1991   -4.4116    0.3809 C   0  0  0  1  0  0  0  0  0  0  0  0
   -2.9757   -3.0502    0.4651 C   0  0  0  1  0  0  0  0  0  0  0  0
   -2.5672   -6.5483   -0.3256 O   0  0  0  1  0  0  0  0  0  0  0  0
   -1.6293   -7.3913   -1.0125 C   0  0  0  1  0  0  0  0  0  0  0  0
    3.1148   -1.2568    0.1845 N   0  0  0  1  0  0  0  0  0  0  0  0
    3.3136   -2.7035    0.0916 C   0  0  0  1  0  0  0  0  0  0  0  0
    3.2839   -3.3627    1.4731 C   0  0  0  1  0  0  0  0  0  0  0  0
    4.0823   -4.6664    1.3153 C   0  0  0  1  0  0  0  0  0  0  0  0
    4.9479   -4.4893    0.0624 C   0  0  0  1  0  0  0  0  0  0  0  0
    4.7343   -3.0458   -0.3756 C   0  0  0  1  0  0  0  0  0  0  0  0
    4.5116   -5.4312   -1.0114 N   0  0  0  1  0  0  0  0  0  0  0  0
    0.9179    2.4772    0.0988 H   0  0  0  1  0  0  0  0  0  0  0  0
   -2.1490    1.9441   -0.0608 H   0  0  0  1  0  0  0  0  0  0  0  0
   -0.0751   -2.8942   -1.1819 H   0  0  0  1  0  0  0  0  0  0  0  0
   -0.4652   -5.2845   -1.3260 H   0  0  0  1  0  0  0  0  0  0  0  0
   -4.0514   -4.8261    0.8090 H   0  0  0  1  0  0  0  0  0  0  0  0
   -3.6621   -2.4398    0.9529 H   0  0  0  1  0  0  0  0  0  0  0  0
   -1.8681   -8.4176   -0.8259 H   0  0  0  1  0  0  0  0  0  0  0  0
   -0.6403   -7.1857   -0.6596 H   0  0  0  1  0  0  0  0  0  0  0  0
   -1.6807   -7.1990   -2.0638 H   0  0  0  1  0  0  0  0  0  0  0  0
    3.9178   -0.7073    0.3015 H   0  0  0  1  0  0  0  0  0  0  0  0
    2.5757   -3.1244   -0.5589 H   0  0  0  1  0  0  0  0  0  0  0  0
    3.7431   -2.7276    2.2017 H   0  0  0  1  0  0  0  0  0  0  0  0
    2.2767   -3.5729    1.7668 H   0  0  0  1  0  0  0  0  0  0  0  0
    4.7007   -4.8286    2.1733 H   0  0  0  1  0  0  0  0  0  0  0  0
    3.4174   -5.4956    1.1924 H   0  0  0  1  0  0  0  0  0  0  0  0
    5.9786   -4.6622    0.2920 H   0  0  0  1  0  0  0  0  0  0  0  0
    4.8130   -2.9586   -1.4392 H   0  0  0  1  0  0  0  0  0  0  0  0
    5.4501   -2.4006    0.0894 H   0  0  0  1  0  0  0  0  0  0  0  0
    5.0444   -5.2758   -1.8192 H   0  0  0  1  0  0  0  0  0  0  0  0
    3.5640   -5.2815   -1.2117 H   0  0  0  1  0  0  0  0  0  0  0  0
  1  2  4  0  0  0  0
  1  6  4  0  0  0  0
  1 18  1  0  0  0  0
  2  3  4  0  0  0  0
  3  4  4  0  0  0  0
  3 25  1  0  0  0  0
  4  5  4  0  0  0  0
  4  7  4  0  0  0  0
  5  6  4  0  0  0  0
  5  9  4  0  0  0  0
  7  8  4  0  0  0  0
  7 26  1  0  0  0  0
  8  9  4  0  0  0  0
  9 10  1  0  0  0  0
 10 11  4  0  0  0  0
 10 15  4  0  0  0  0
 11 12  4  0  0  0  0
 11 27  1  0  0  0  0
 12 13  4  0  0  0  0
 12 28  1  0  0  0  0
 13 14  4  0  0  0  0
 13 16  1  0  0  0  0
 14 15  4  0  0  0  0
 14 29  1  0  0  0  0
 15 30  1  0  0  0  0
 16 17  1  0  0  0  0
 17 31  1  0  0  0  0
 17 32  1  0  0  0  0
 17 33  1  0  0  0  0
 18 19  1  0  0  0  0
 18 34  1  0  0  0  0
 19 20  1  0  0  0  0
 19 23  1  0  0  0  0
 19 35  1  0  0  0  0
 20 21  1  0  0  0  0
 20 36  1  0  0  0  0
 20 37  1  0  0  0  0
 21 22  1  0  0  0  0
 21 38  1  0  0  0  0
 21 39  1  0  0  0  0
 22 23  1  0  0  0  0
 22 24  1  0  0  0  0
 22 40  1  0  0  0  0
 23 41  1  0  0  0  0
 23 42  1  0  0  0  0
 24 43  1  0  0  0  0
 24 44  1  0  0  0  0
M  END
> <ConfClashScore>
0 

> <ConfOneFourInteractionScore>
-0.984337 

> <ConfScore>
-0.130267 

> <ConfScorePBest>
0.00520594 

> <ConfTolerance>
0.231943 

$$$$
c22.sdf
 OpenBabel04162418103D

 44 47  0  0  0  0  0  0  0  0999 V2000
    1.9453   -0.6102    0.1256 C   0  0  0  1  0  0  0  0  0  0  0  0
    2.0363    0.7233    0.1482 N   0  0  0  1  0  0  0  0  0  0  0  0
    0.8946    1.4376    0.0881 C   0  0  0  1  0  0  0  0  0  0  0  0
   -0.3452    0.7386    0.0096 C   0  0  0  1  0  0  0  0  0  0  0  0
   -0.2528   -0.6477    0.0020 C   0  0  0  1  0  0  0  0  0  0  0  0
    0.8779   -1.3913    0.0539 N   0  0  0  1  0  0  0  0  0  0  0  0
   -1.7303    0.9921   -0.0538 C   0  0  0  1  0  0  0  0  0  0  0  0
   -2.4281   -0.1191   -0.1029 N   0  0  0  1  0  0  0  0  0  0  0  0
   -1.5125   -1.1342   -0.0681 N   0  0  0  1  0  0  0  0  0  0  0  0
   -1.8419   -2.5192   -0.1014 C   0  0  0  1  0  0  0  0  0  0  0  0
   -2.9477   -2.9832    0.5857 C   0  0  0  1  0  0  0  0  0  0  0  0
   -3.2713   -4.3305    0.5489 C   0  0  0  1  0  0  0  0  0  0  0  0
   -2.4852   -5.2109   -0.1704 C   0  0  0  1  0  0  0  0  0  0  0  0
   -1.3761   -4.7453   -0.8595 C   0  0  0  1  0  0  0  0  0  0  0  0
   -1.0533   -3.4019   -0.8229 C   0  0  0  1  0  0  0  0  0  0  0  0
   -2.8959   -6.5006   -0.1284 O   0  0  0  1  0  0  0  0  0  0  0  0
   -2.0269   -7.4852   -0.7096 C   0  0  0  1  0  0  0  0  0  0  0  0
    3.1148   -1.2568    0.1847 N   0  0  0  1  0  0  0  0  0  0  0  0
    4.4453   -0.6451    0.2626 C   0  0  0  1  0  0  0  0  0  0  0  0
    4.9000   -0.1835   -1.1270 C   0  0  0  1  0  0  0  0  0  0  0  0
    6.0910   -1.0670   -1.4765 C   0  0  0  1  0  0  0  0  0  0  0  0
    6.7235   -1.4205   -0.1242 C   0  0  0  1  0  0  0  0  0  0  0  0
    5.4805   -1.6798    0.7312 C   0  0  0  1  0  0  0  0  0  0  0  0
    7.5342   -0.2797    0.4173 N   0  0  0  1  0  0  0  0  0  0  0  0
    0.9179    2.4773    0.0988 H   0  0  0  1  0  0  0  0  0  0  0  0
   -2.1490    1.9441   -0.0607 H   0  0  0  1  0  0  0  0  0  0  0  0
   -3.5369   -2.3214    1.1303 H   0  0  0  1  0  0  0  0  0  0  0  0
   -4.1056   -4.6791    1.0627 H   0  0  0  1  0  0  0  0  0  0  0  0
   -0.7869   -5.4070   -1.4041 H   0  0  0  1  0  0  0  0  0  0  0  0
   -0.2189   -3.0533   -1.3366 H   0  0  0  1  0  0  0  0  0  0  0  0
   -1.0751   -7.4543   -0.2216 H   0  0  0  1  0  0  0  0  0  0  0  0
   -1.8999   -7.2779   -1.7516 H   0  0  0  1  0  0  0  0  0  0  0  0
   -2.4580   -8.4570   -0.5887 H   0  0  0  1  0  0  0  0  0  0  0  0
    3.0790   -2.2361    0.1748 H   0  0  0  1  0  0  0  0  0  0  0  0
    4.4181    0.1842    0.9382 H   0  0  0  1  0  0  0  0  0  0  0  0
    4.1139   -0.3151   -1.8409 H   0  0  0  1  0  0  0  0  0  0  0  0
    5.1917    0.8456   -1.1026 H   0  0  0  1  0  0  0  0  0  0  0  0
    6.7872   -0.5358   -2.0913 H   0  0  0  1  0  0  0  0  0  0  0  0
    5.7683   -1.9515   -1.9847 H   0  0  0  1  0  0  0  0  0  0  0  0
    7.3384   -2.2932   -0.1959 H   0  0  0  1  0  0  0  0  0  0  0  0
    5.1163   -2.6733    0.5719 H   0  0  0  1  0  0  0  0  0  0  0  0
    5.7041   -1.5434    1.7686 H   0  0  0  1  0  0  0  0  0  0  0  0
    6.9588    0.5052    0.5318 H   0  0  0  1  0  0  0  0  0  0  0  0
    8.2567   -0.0663   -0.2094 H   0  0  0  1  0  0  0  0  0  0  0  0
  1  2  4  0  0  0  0
  1  6  4  0  0  0  0
  1 18  1  0  0  0  0
  2  3  4  0  0  0  0
  3  4  4  0  0  0  0
  3 25  1  0  0  0  0
  4  5  4  0  0  0  0
  4  7  4  0  0  0  0
  5  6  4  0  0  0  0
  5  9  4  0  0  0  0
  7  8  4  0  0  0  0
  7 26  1  0  0  0  0
  8  9  4  0  0  0  0
  9 10  1  0  0  0  0
 10 11  4  0  0  0  0
 10 15  4  0  0  0  0
 11 12  4  0  0  0  0
 11 27  1  0  0  0  0
 12 13  4  0  0  0  0
 12 28  1  0  0  0  0
 13 14  4  0  0  0  0
 13 16  1  0  0  0  0
 14 15  4  0  0  0  0
 14 29  1  0  0  0  0
 15 30  1  0  0  0  0
 16 17  1  0  0  0  0
 17 31  1  0  0  0  0
 17 32  1  0  0  0  0
 17 33  1  0  0  0  0
 18 19  1  0  0  0  0
 18 34  1  0  0  0  0
 19 20  1  0  0  0  0
 19 23  1  0  0  0  0
 19 35  1  0  0  0  0
 20 21  1  0  0  0  0
 20 36  1  0  0  0  0
 20 37  1  0  0  0  0
 21 22  1  0  0  0  0
 21 38  1  0  0  0  0
 21 39  1  0  0  0  0
 22 23  1  0  0  0  0
 22 24  1  0  0  0  0
 22 40  1  0  0  0  0
 23 41  1  0  0  0  0
 23 42  1  0  0  0  0
 24 43  1  0  0  0  0
 24 44  1  0  0  0  0
M  END
> <ConfClashScore>
0 

> <ConfOneFourInteractionScore>
-0.984337 

> <ConfScore>
-0.127265 

> <ConfScorePBest>
0.00519261 

> <ConfTolerance>
0.196552 

$$$$
c22.sdf
 OpenBabel04162418103D

 44 47  0  0  0  0  0  0  0  0999 V2000
    1.9452   -0.6103    0.1254 C   0  0  0  1  0  0  0  0  0  0  0  0
    2.0363    0.7232    0.1481 N   0  0  0  1  0  0  0  0  0  0  0  0
    0.8946    1.4376    0.0881 C   0  0  0  1  0  0  0  0  0  0  0  0
   -0.3453    0.7386    0.0096 C   0  0  0  1  0  0  0  0  0  0  0  0
   -0.2528   -0.6478    0.0020 C   0  0  0  1  0  0  0  0  0  0  0  0
    0.8779   -1.3913    0.0538 N   0  0  0  1  0  0  0  0  0  0  0  0
   -1.7303    0.9921   -0.0538 C   0  0  0  1  0  0  0  0  0  0  0  0
   -2.4281   -0.1191   -0.1029 N   0  0  0  1  0  0  0  0  0  0  0  0
   -1.5126   -1.1342   -0.0681 N   0  0  0  1  0  0  0  0  0  0  0  0
   -1.8397   -2.5099   -0.1012 C   0  0  0  1  0  0  0  0  0  0  0  0
   -0.9270   -3.4255   -0.5896 C   0  0  0  1  0  0  0  0  0  0  0  0
   -1.2456   -4.7743   -0.6170 C   0  0  0  1  0  0  0  0  0  0  0  0
   -2.4779   -5.2029   -0.1609 C   0  0  0  1  0  0  0  0  0  0  0  0
   -3.3932   -4.2843    0.3290 C   0  0  0  1  0  0  0  0  0  0  0  0
   -3.0757   -2.9394    0.3563 C   0  0  0  1  0  0  0  0  0  0  0  0
   -2.8995   -6.4823   -0.1431 O   0  0  0  1  0  0  0  0  0  0  0  0
   -1.9036   -7.4604   -0.5229 C   0  0  0  1  0  0  0  0  0  0  0  0
    3.1379   -1.2697    0.1856 N   0  0  0  1  0  0  0  0  0  0  0  0
    4.4048   -0.5652    0.0960 C   0  0  0  1  0  0  0  0  0  0  0  0
    4.9764   -0.6345   -1.3136 C   0  0  0  1  0  0  0  0  0  0  0  0
    6.4790   -0.4272   -1.1811 C   0  0  0  1  0  0  0  0  0  0  0  0
    6.8177   -0.7184    0.2823 C   0  0  0  1  0  0  0  0  0  0  0  0
    5.5199   -1.2859    0.9421 C   0  0  0  1  0  0  0  0  0  0  0  0
    7.2378    0.5378    0.9724 N   0  0  0  1  0  0  0  0  0  0  0  0
    0.9179    2.4772    0.0987 H   0  0  0  1  0  0  0  0  0  0  0  0
   -2.1490    1.9441   -0.0607 H   0  0  0  1  0  0  0  0  0  0  0  0
   -0.0013   -3.1027   -0.9366 H   0  0  0  1  0  0  0  0  0  0  0  0
   -0.5573   -5.4639   -0.9809 H   0  0  0  1  0  0  0  0  0  0  0  0
   -4.3189   -4.6071    0.6759 H   0  0  0  1  0  0  0  0  0  0  0  0
   -3.7640   -2.2499    0.7202 H   0  0  0  1  0  0  0  0  0  0  0  0
   -2.3694   -8.4162   -0.6426 H   0  0  0  1  0  0  0  0  0  0  0  0
   -1.1553   -7.5215    0.2394 H   0  0  0  1  0  0  0  0  0  0  0  0
   -1.4497   -7.1668   -1.4463 H   0  0  0  1  0  0  0  0  0  0  0  0
    3.1400   -2.2439    0.2921 H   0  0  0  1  0  0  0  0  0  0  0  0
    4.2728    0.4487    0.4116 H   0  0  0  1  0  0  0  0  0  0  0  0
    4.7722   -1.5905   -1.7486 H   0  0  0  1  0  0  0  0  0  0  0  0
    4.5496    0.1340   -1.9236 H   0  0  0  1  0  0  0  0  0  0  0  0
    7.0052   -1.1003   -1.8253 H   0  0  0  1  0  0  0  0  0  0  0  0
    6.7384    0.5809   -1.4291 H   0  0  0  1  0  0  0  0  0  0  0  0
    7.6062   -1.4393    0.3414 H   0  0  0  1  0  0  0  0  0  0  0  0
    5.4586   -1.0215    1.9771 H   0  0  0  1  0  0  0  0  0  0  0  0
    5.4620   -2.3496    0.8413 H   0  0  0  1  0  0  0  0  0  0  0  0
    6.4899    1.1709    0.9832 H   0  0  0  1  0  0  0  0  0  0  0  0
    7.9951    0.9353    0.4940 H   0  0  0  1  0  0  0  0  0  0  0  0
  1  2  4  0  0  0  0
  1  6  4  0  0  0  0
  1 18  1  0  0  0  0
  2  3  4  0  0  0  0
  3  4  4  0  0  0  0
  3 25  1  0  0  0  0
  4  5  4  0  0  0  0
  4  7  4  0  0  0  0
  5  6  4  0  0  0  0
  5  9  4  0  0  0  0
  7  8  4  0  0  0  0
  7 26  1  0  0  0  0
  8  9  4  0  0  0  0
  9 10  1  0  0  0  0
 10 11  4  0  0  0  0
 10 15  4  0  0  0  0
 11 12  4  0  0  0  0
 11 27  1  0  0  0  0
 12 13  4  0  0  0  0
 12 28  1  0  0  0  0
 13 14  4  0  0  0  0
 13 16  1  0  0  0  0
 14 15  4  0  0  0  0
 14 29  1  0  0  0  0
 15 30  1  0  0  0  0
 16 17  1  0  0  0  0
 17 31  1  0  0  0  0
 17 32  1  0  0  0  0
 17 33  1  0  0  0  0
 18 19  1  0  0  0  0
 18 34  1  0  0  0  0
 19 20  1  0  0  0  0
 19 23  1  0  0  0  0
 19 35  1  0  0  0  0
 20 21  1  0  0  0  0
 20 36  1  0  0  0  0
 20 37  1  0  0  0  0
 21 22  1  0  0  0  0
 21 38  1  0  0  0  0
 21 39  1  0  0  0  0
 22 23  1  0  0  0  0
 22 24  1  0  0  0  0
 22 40  1  0  0  0  0
 23 41  1  0  0  0  0
 23 42  1  0  0  0  0
 24 43  1  0  0  0  0
 24 44  1  0  0  0  0
M  END
> <ConfClashScore>
0 

> <ConfOneFourInteractionScore>
-0.984337 

> <ConfScore>
-0.127265 

> <ConfScorePBest>
0.00517929 

> <ConfTolerance>
0.232621 

$$$$
c22.sdf
 OpenBabel04162418103D

 44 47  0  0  0  0  0  0  0  0999 V2000
    1.9452   -0.6103    0.1255 C   0  0  0  1  0  0  0  0  0  0  0  0
    2.0363    0.7233    0.1481 N   0  0  0  1  0  0  0  0  0  0  0  0
    0.8946    1.4376    0.0881 C   0  0  0  1  0  0  0  0  0  0  0  0
   -0.3452    0.7386    0.0096 C   0  0  0  1  0  0  0  0  0  0  0  0
   -0.2528   -0.6477    0.0020 C   0  0  0  1  0  0  0  0  0  0  0  0
    0.8779   -1.3913    0.0538 N   0  0  0  1  0  0  0  0  0  0  0  0
   -1.7303    0.9921   -0.0538 C   0  0  0  1  0  0  0  0  0  0  0  0
   -2.4281   -0.1191   -0.1028 N   0  0  0  1  0  0  0  0  0  0  0  0
   -1.5126   -1.1342   -0.0681 N   0  0  0  1  0  0  0  0  0  0  0  0
   -1.8397   -2.5098   -0.1011 C   0  0  0  1  0  0  0  0  0  0  0  0
   -1.6070   -3.3022    1.0071 C   0  0  0  1  0  0  0  0  0  0  0  0
   -1.9325   -4.6492    0.9765 C   0  0  0  1  0  0  0  0  0  0  0  0
   -2.4849   -5.2012   -0.1638 C   0  0  0  1  0  0  0  0  0  0  0  0
   -2.7182   -4.4063   -1.2753 C   0  0  0  1  0  0  0  0  0  0  0  0
   -2.3936   -3.0632   -1.2450 C   0  0  0  1  0  0  0  0  0  0  0  0
   -2.8844   -6.4951   -0.1593 O   0  0  0  1  0  0  0  0  0  0  0  0
   -3.6440   -6.9513   -1.2896 C   0  0  0  1  0  0  0  0  0  0  0  0
    3.1379   -1.2697    0.1858 N   0  0  0  1  0  0  0  0  0  0  0  0
    4.4097   -0.5519    0.2638 C   0  0  0  1  0  0  0  0  0  0  0  0
    4.8529   -0.0925   -1.1278 C   0  0  0  1  0  0  0  0  0  0  0  0
    6.3675    0.0512   -0.9301 C   0  0  0  1  0  0  0  0  0  0  0  0
    6.7635   -1.1552   -0.0881 C   0  0  0  1  0  0  0  0  0  0  0  0
    5.5265   -1.4866    0.7547 C   0  0  0  1  0  0  0  0  0  0  0  0
    7.9121   -0.8226    0.7859 N   0  0  0  1  0  0  0  0  0  0  0  0
    0.9179    2.4772    0.0988 H   0  0  0  1  0  0  0  0  0  0  0  0
   -2.1490    1.9441   -0.0607 H   0  0  0  1  0  0  0  0  0  0  0  0
   -1.1877   -2.8878    1.8639 H   0  0  0  1  0  0  0  0  0  0  0  0
   -1.7612   -5.2446    1.8119 H   0  0  0  1  0  0  0  0  0  0  0  0
   -3.1376   -4.8207   -2.1320 H   0  0  0  1  0  0  0  0  0  0  0  0
   -2.5650   -2.4678   -2.0803 H   0  0  0  1  0  0  0  0  0  0  0  0
   -3.1229   -6.7078   -2.1919 H   0  0  0  1  0  0  0  0  0  0  0  0
   -4.6017   -6.4742   -1.2913 H   0  0  0  1  0  0  0  0  0  0  0  0
   -3.7732   -8.0117   -1.2276 H   0  0  0  1  0  0  0  0  0  0  0  0
    3.1426   -2.2496    0.1764 H   0  0  0  1  0  0  0  0  0  0  0  0
    4.3068    0.2867    0.9204 H   0  0  0  1  0  0  0  0  0  0  0  0
    4.4025    0.8409   -1.3937 H   0  0  0  1  0  0  0  0  0  0  0  0
    4.6233   -0.8249   -1.8733 H   0  0  0  1  0  0  0  0  0  0  0  0
    6.5961    0.9615   -0.4160 H   0  0  0  1  0  0  0  0  0  0  0  0
    6.8741    0.0364   -1.8724 H   0  0  0  1  0  0  0  0  0  0  0  0
    7.0207   -1.9821   -0.7167 H   0  0  0  1  0  0  0  0  0  0  0  0
    5.2438   -2.5087    0.6123 H   0  0  0  1  0  0  0  0  0  0  0  0
    5.7267   -1.3125    1.7913 H   0  0  0  1  0  0  0  0  0  0  0  0
    8.7211   -0.7273    0.2410 H   0  0  0  1  0  0  0  0  0  0  0  0
    8.0424   -1.5399    1.4409 H   0  0  0  1  0  0  0  0  0  0  0  0
  1  2  4  0  0  0  0
  1  6  4  0  0  0  0
  1 18  1  0  0  0  0
  2  3  4  0  0  0  0
  3  4  4  0  0  0  0
  3 25  1  0  0  0  0
  4  5  4  0  0  0  0
  4  7  4  0  0  0  0
  5  6  4  0  0  0  0
  5  9  4  0  0  0  0
  7  8  4  0  0  0  0
  7 26  1  0  0  0  0
  8  9  4  0  0  0  0
  9 10  1  0  0  0  0
 10 11  4  0  0  0  0
 10 15  4  0  0  0  0
 11 12  4  0  0  0  0
 11 27  1  0  0  0  0
 12 13  4  0  0  0  0
 12 28  1  0  0  0  0
 13 14  4  0  0  0  0
 13 16  1  0  0  0  0
 14 15  4  0  0  0  0
 14 29  1  0  0  0  0
 15 30  1  0  0  0  0
 16 17  1  0  0  0  0
 17 31  1  0  0  0  0
 17 32  1  0  0  0  0
 17 33  1  0  0  0  0
 18 19  1  0  0  0  0
 18 34  1  0  0  0  0
 19 20  1  0  0  0  0
 19 23  1  0  0  0  0
 19 35  1  0  0  0  0
 20 21  1  0  0  0  0
 20 36  1  0  0  0  0
 20 37  1  0  0  0  0
 21 22  1  0  0  0  0
 21 38  1  0  0  0  0
 21 39  1  0  0  0  0
 22 23  1  0  0  0  0
 22 24  1  0  0  0  0
 22 40  1  0  0  0  0
 23 41  1  0  0  0  0
 23 42  1  0  0  0  0
 24 43  1  0  0  0  0
 24 44  1  0  0  0  0
M  END
> <ConfClashScore>
0 

> <ConfOneFourInteractionScore>
-0.984337 

> <ConfScore>
-0.117562 

> <ConfScorePBest>
0.00516596 

> <ConfTolerance>
0.222839 

$$$$
c22.sdf
 OpenBabel04162418103D

 44 47  0  0  0  0  0  0  0  0999 V2000
    1.9452   -0.6102    0.1256 C   0  0  0  1  0  0  0  0  0  0  0  0
    2.0363    0.7233    0.1482 N   0  0  0  1  0  0  0  0  0  0  0  0
    0.8946    1.4376    0.0881 C   0  0  0  1  0  0  0  0  0  0  0  0
   -0.3453    0.7387    0.0097 C   0  0  0  1  0  0  0  0  0  0  0  0
   -0.2529   -0.6477    0.0020 C   0  0  0  1  0  0  0  0  0  0  0  0
    0.8779   -1.3913    0.0539 N   0  0  0  1  0  0  0  0  0  0  0  0
   -1.7304    0.9921   -0.0538 C   0  0  0  1  0  0  0  0  0  0  0  0
   -2.4281   -0.1191   -0.1029 N   0  0  0  1  0  0  0  0  0  0  0  0
   -1.5125   -1.1341   -0.0681 N   0  0  0  1  0  0  0  0  0  0  0  0
   -1.8416   -2.5179   -0.1014 C   0  0  0  1  0  0  0  0  0  0  0  0
   -1.0726   -3.3890   -0.8497 C   0  0  0  1  0  0  0  0  0  0  0  0
   -1.3287   -4.7507   -0.8078 C   0  0  0  1  0  0  0  0  0  0  0  0
   -2.3566   -5.2368   -0.0220 C   0  0  0  1  0  0  0  0  0  0  0  0
   -3.1278   -4.3631    0.7285 C   0  0  0  1  0  0  0  0  0  0  0  0
   -2.8726   -3.0053    0.6868 C   0  0  0  1  0  0  0  0  0  0  0  0
   -2.6101   -6.5666    0.0148 O   0  0  0  1  0  0  0  0  0  0  0  0
   -3.7750   -6.9927    0.7387 C   0  0  0  1  0  0  0  0  0  0  0  0
    3.1257   -1.2628    0.1851 N   0  0  0  1  0  0  0  0  0  0  0  0
    4.4231   -0.5943    0.3213 C   0  0  0  1  0  0  0  0  0  0  0  0
    5.0304   -0.3155   -1.0601 C   0  0  0  1  0  0  0  0  0  0  0  0
    6.3687   -1.0610   -1.0986 C   0  0  0  1  0  0  0  0  0  0  0  0
    6.7686   -1.2012    0.3608 C   0  0  0  1  0  0  0  0  0  0  0  0
    5.4250   -1.5096    1.0305 C   0  0  0  1  0  0  0  0  0  0  0  0
    7.3583    0.0665    0.8861 N   0  0  0  1  0  0  0  0  0  0  0  0
    0.9179    2.4772    0.0988 H   0  0  0  1  0  0  0  0  0  0  0  0
   -2.1490    1.9441   -0.0608 H   0  0  0  1  0  0  0  0  0  0  0  0
   -0.3017   -3.0229   -1.4440 H   0  0  0  1  0  0  0  0  0  0  0  0
   -0.7474   -5.4065   -1.3677 H   0  0  0  1  0  0  0  0  0  0  0  0
   -3.8987   -4.7291    1.3228 H   0  0  0  1  0  0  0  0  0  0  0  0
   -3.4538   -2.3494    1.2468 H   0  0  0  1  0  0  0  0  0  0  0  0
   -3.7470   -6.5896    1.7295 H   0  0  0  1  0  0  0  0  0  0  0  0
   -3.7920   -8.0614    0.7891 H   0  0  0  1  0  0  0  0  0  0  0  0
   -4.6535   -6.6446    0.2369 H   0  0  0  1  0  0  0  0  0  0  0  0
    3.1145   -2.2415    0.1344 H   0  0  0  1  0  0  0  0  0  0  0  0
    4.2992    0.3181    0.8664 H   0  0  0  1  0  0  0  0  0  0  0  0
    5.1874    0.7347   -1.1909 H   0  0  0  1  0  0  0  0  0  0  0  0
    4.3819   -0.6784   -1.8301 H   0  0  0  1  0  0  0  0  0  0  0  0
    6.2528   -2.0228   -1.5530 H   0  0  0  1  0  0  0  0  0  0  0  0
    7.1003   -0.4968   -1.6386 H   0  0  0  1  0  0  0  0  0  0  0  0
    7.4644   -2.0025    0.4981 H   0  0  0  1  0  0  0  0  0  0  0  0
    5.4644   -1.2882    2.0765 H   0  0  0  1  0  0  0  0  0  0  0  0
    5.1613   -2.5374    0.8926 H   0  0  0  1  0  0  0  0  0  0  0  0
    7.5760   -0.0426    1.8354 H   0  0  0  1  0  0  0  0  0  0  0  0
    6.7118    0.7954    0.7811 H   0  0  0  1  0  0  0  0  0  0  0  0
  1  2  4  0  0  0  0
  1  6  4  0  0  0  0
  1 18  1  0  0  0  0
  2  3  4  0  0  0  0
  3  4  4  0  0  0  0
  3 25  1  0  0  0  0
  4  5  4  0  0  0  0
  4  7  4  0  0  0  0
  5  6  4  0  0  0  0
  5  9  4  0  0  0  0
  7  8  4  0  0  0  0
  7 26  1  0  0  0  0
  8  9  4  0  0  0  0
  9 10  1  0  0  0  0
 10 11  4  0  0  0  0
 10 15  4  0  0  0  0
 11 12  4  0  0  0  0
 11 27  1  0  0  0  0
 12 13  4  0  0  0  0
 12 28  1  0  0  0  0
 13 14  4  0  0  0  0
 13 16  1  0  0  0  0
 14 15  4  0  0  0  0
 14 29  1  0  0  0  0
 15 30  1  0  0  0  0
 16 17  1  0  0  0  0
 17 31  1  0  0  0  0
 17 32  1  0  0  0  0
 17 33  1  0  0  0  0
 18 19  1  0  0  0  0
 18 34  1  0  0  0  0
 19 20  1  0  0  0  0
 19 23  1  0  0  0  0
 19 35  1  0  0  0  0
 20 21  1  0  0  0  0
 20 36  1  0  0  0  0
 20 37  1  0  0  0  0
 21 22  1  0  0  0  0
 21 38  1  0  0  0  0
 21 39  1  0  0  0  0
 22 23  1  0  0  0  0
 22 24  1  0  0  0  0
 22 40  1  0  0  0  0
 23 41  1  0  0  0  0
 23 42  1  0  0  0  0
 24 43  1  0  0  0  0
 24 44  1  0  0  0  0
M  END
> <ConfClashScore>
0 

> <ConfOneFourInteractionScore>
-0.984337 

> <ConfScore>
-0.115556 

> <ConfScorePBest>
0.00515263 

> <ConfTolerance>
0.217438 

$$$$
c22.sdf
 OpenBabel04162418103D

 44 47  0  0  0  0  0  0  0  0999 V2000
    1.9453   -0.6103    0.1255 C   0  0  0  1  0  0  0  0  0  0  0  0
    2.0363    0.7232    0.1480 N   0  0  0  1  0  0  0  0  0  0  0  0
    0.8946    1.4376    0.0881 C   0  0  0  1  0  0  0  0  0  0  0  0
   -0.3452    0.7386    0.0096 C   0  0  0  1  0  0  0  0  0  0  0  0
   -0.2528   -0.6477    0.0020 C   0  0  0  1  0  0  0  0  0  0  0  0
    0.8780   -1.3913    0.0538 N   0  0  0  1  0  0  0  0  0  0  0  0
   -1.7303    0.9921   -0.0538 C   0  0  0  1  0  0  0  0  0  0  0  0
   -2.4282   -0.1191   -0.1028 N   0  0  0  1  0  0  0  0  0  0  0  0
   -1.5125   -1.1341   -0.0681 N   0  0  0  1  0  0  0  0  0  0  0  0
   -1.8385   -2.5051   -0.1010 C   0  0  0  1  0  0  0  0  0  0  0  0
   -1.0338   -3.4426   -0.7203 C   0  0  0  1  0  0  0  0  0  0  0  0
   -1.3998   -4.7796   -0.7181 C   0  0  0  1  0  0  0  0  0  0  0  0
   -2.5720   -5.1744   -0.1015 C   0  0  0  1  0  0  0  0  0  0  0  0
   -3.3790   -4.2339    0.5196 C   0  0  0  1  0  0  0  0  0  0  0  0
   -3.0143   -2.9008    0.5175 C   0  0  0  1  0  0  0  0  0  0  0  0
   -2.9807   -6.4594   -0.1845 O   0  0  0  1  0  0  0  0  0  0  0  0
   -4.3210   -6.8015    0.2018 C   0  0  0  1  0  0  0  0  0  0  0  0
    3.1257   -1.2630    0.1850 N   0  0  0  1  0  0  0  0  0  0  0  0
    4.4242   -0.5938    0.2783 C   0  0  0  1  0  0  0  0  0  0  0  0
    5.0393   -0.3696   -1.1057 C   0  0  0  1  0  0  0  0  0  0  0  0
    6.5529   -0.2619   -0.8617 C   0  0  0  1  0  0  0  0  0  0  0  0
    6.8138   -0.9101    0.5029 C   0  0  0  1  0  0  0  0  0  0  0  0
    5.4759   -1.4987    0.9331 C   0  0  0  1  0  0  0  0  0  0  0  0
    7.2714    0.1047    1.4795 N   0  0  0  1  0  0  0  0  0  0  0  0
    0.9179    2.4772    0.0987 H   0  0  0  1  0  0  0  0  0  0  0  0
   -2.1490    1.9441   -0.0608 H   0  0  0  1  0  0  0  0  0  0  0  0
   -0.1537   -3.1451   -1.1879 H   0  0  0  1  0  0  0  0  0  0  0  0
   -0.7922   -5.4857   -1.1807 H   0  0  0  1  0  0  0  0  0  0  0  0
   -4.2591   -4.5314    0.9871 H   0  0  0  1  0  0  0  0  0  0  0  0
   -3.6218   -2.1947    0.9800 H   0  0  0  1  0  0  0  0  0  0  0  0
   -5.0166   -6.2752   -0.4180 H   0  0  0  1  0  0  0  0  0  0  0  0
   -4.4777   -6.5289    1.2245 H   0  0  0  1  0  0  0  0  0  0  0  0
   -4.4672   -7.8551    0.0865 H   0  0  0  1  0  0  0  0  0  0  0  0
    3.1124   -2.2426    0.1646 H   0  0  0  1  0  0  0  0  0  0  0  0
    4.3138    0.3273    0.8114 H   0  0  0  1  0  0  0  0  0  0  0  0
    4.6645    0.5331   -1.5409 H   0  0  0  1  0  0  0  0  0  0  0  0
    4.8213   -1.1947   -1.7511 H   0  0  0  1  0  0  0  0  0  0  0  0
    7.0898   -0.7814   -1.6276 H   0  0  0  1  0  0  0  0  0  0  0  0
    6.8541    0.7648   -0.8481 H   0  0  0  1  0  0  0  0  0  0  0  0
    7.5513   -1.6806    0.4164 H   0  0  0  1  0  0  0  0  0  0  0  0
    5.3771   -2.5054    0.5845 H   0  0  0  1  0  0  0  0  0  0  0  0
    5.3802   -1.4786    1.9986 H   0  0  0  1  0  0  0  0  0  0  0  0
    7.3742   -0.3120    2.3605 H   0  0  0  1  0  0  0  0  0  0  0  0
    6.6102    0.8260    1.5348 H   0  0  0  1  0  0  0  0  0  0  0  0
  1  2  4  0  0  0  0
  1  6  4  0  0  0  0
  1 18  1  0  0  0  0
  2  3  4  0  0  0  0
  3  4  4  0  0  0  0
  3 25  1  0  0  0  0
  4  5  4  0  0  0  0
  4  7  4  0  0  0  0
  5  6  4  0  0  0  0
  5  9  4  0  0  0  0
  7  8  4  0  0  0  0
  7 26  1  0  0  0  0
  8  9  4  0  0  0  0
  9 10  1  0  0  0  0
 10 11  4  0  0  0  0
 10 15  4  0  0  0  0
 11 12  4  0  0  0  0
 11 27  1  0  0  0  0
 12 13  4  0  0  0  0
 12 28  1  0  0  0  0
 13 14  4  0  0  0  0
 13 16  1  0  0  0  0
 14 15  4  0  0  0  0
 14 29  1  0  0  0  0
 15 30  1  0  0  0  0
 16 17  1  0  0  0  0
 17 31  1  0  0  0  0
 17 32  1  0  0  0  0
 17 33  1  0  0  0  0
 18 19  1  0  0  0  0
 18 34  1  0  0  0  0
 19 20  1  0  0  0  0
 19 23  1  0  0  0  0
 19 35  1  0  0  0  0
 20 21  1  0  0  0  0
 20 36  1  0  0  0  0
 20 37  1  0  0  0  0
 21 22  1  0  0  0  0
 21 38  1  0  0  0  0
 21 39  1  0  0  0  0
 22 23  1  0  0  0  0
 22 24  1  0  0  0  0
 22 40  1  0  0  0  0
 23 41  1  0  0  0  0
 23 42  1  0  0  0  0
 24 43  1  0  0  0  0
 24 44  1  0  0  0  0
M  END
> <ConfClashScore>
0 

> <ConfOneFourInteractionScore>
-0.984337 

> <ConfScore>
-0.115556 

> <ConfScorePBest>
0.0051393 

> <ConfTolerance>
0.251925 

$$$$
c22.sdf
 OpenBabel04162418103D

 44 47  0  0  0  0  0  0  0  0999 V2000
    1.9452   -0.6102    0.1256 C   0  0  0  1  0  0  0  0  0  0  0  0
    2.0364    0.7233    0.1481 N   0  0  0  1  0  0  0  0  0  0  0  0
    0.8946    1.4376    0.0881 C   0  0  0  1  0  0  0  0  0  0  0  0
   -0.3453    0.7386    0.0096 C   0  0  0  1  0  0  0  0  0  0  0  0
   -0.2528   -0.6477    0.0020 C   0  0  0  1  0  0  0  0  0  0  0  0
    0.8780   -1.3913    0.0538 N   0  0  0  1  0  0  0  0  0  0  0  0
   -1.7303    0.9921   -0.0538 C   0  0  0  1  0  0  0  0  0  0  0  0
   -2.4282   -0.1191   -0.1029 N   0  0  0  1  0  0  0  0  0  0  0  0
   -1.5125   -1.1342   -0.0681 N   0  0  0  1  0  0  0  0  0  0  0  0
   -1.8418   -2.5193   -0.1013 C   0  0  0  1  0  0  0  0  0  0  0  0
   -0.9262   -3.4358   -0.5827 C   0  0  0  1  0  0  0  0  0  0  0  0
   -1.2448   -4.7845   -0.6102 C   0  0  0  1  0  0  0  0  0  0  0  0
   -2.4801   -5.2123   -0.1610 C   0  0  0  1  0  0  0  0  0  0  0  0
   -3.3983   -4.2929    0.3218 C   0  0  0  1  0  0  0  0  0  0  0  0
   -3.0807   -2.9480    0.3491 C   0  0  0  1  0  0  0  0  0  0  0  0
   -2.8550   -6.5136   -0.1657 O   0  0  0  1  0  0  0  0  0  0  0  0
   -4.2488   -6.7955    0.0348 C   0  0  0  1  0  0  0  0  0  0  0  0
    3.1258   -1.2628    0.1850 N   0  0  0  1  0  0  0  0  0  0  0  0
    4.4159   -0.5979    0.3201 C   0  0  0  1  0  0  0  0  0  0  0  0
    5.0631   -0.4203   -1.0549 C   0  0  0  1  0  0  0  0  0  0  0  0
    6.2798   -1.3355   -1.0676 C   0  0  0  1  0  0  0  0  0  0  0  0
    6.0674   -2.3523    0.0457 C   0  0  0  1  0  0  0  0  0  0  0  0
    5.3890   -1.4797    1.1669 C   0  0  0  1  0  0  0  0  0  0  0  0
    7.3698   -2.9232    0.5154 N   0  0  0  1  0  0  0  0  0  0  0  0
    0.9179    2.4773    0.0988 H   0  0  0  1  0  0  0  0  0  0  0  0
   -2.1490    1.9441   -0.0608 H   0  0  0  1  0  0  0  0  0  0  0  0
    0.0017   -3.1136   -0.9244 H   0  0  0  1  0  0  0  0  0  0  0  0
   -0.5544   -5.4748   -0.9686 H   0  0  0  1  0  0  0  0  0  0  0  0
   -4.3262   -4.6151    0.6635 H   0  0  0  1  0  0  0  0  0  0  0  0
   -3.7712   -2.2578    0.7075 H   0  0  0  1  0  0  0  0  0  0  0  0
   -4.5491   -6.4446    1.0000 H   0  0  0  1  0  0  0  0  0  0  0  0
   -4.4114   -7.8512   -0.0271 H   0  0  0  1  0  0  0  0  0  0  0  0
   -4.8246   -6.3006   -0.7193 H   0  0  0  1  0  0  0  0  0  0  0  0
    3.1145   -2.2415    0.1344 H   0  0  0  1  0  0  0  0  0  0  0  0
    4.2796    0.3543    0.7887 H   0  0  0  1  0  0  0  0  0  0  0  0
    4.3781   -0.7019   -1.8273 H   0  0  0  1  0  0  0  0  0  0  0  0
    5.3620    0.5974   -1.1963 H   0  0  0  1  0  0  0  0  0  0  0  0
    6.3586   -1.8325   -2.0120 H   0  0  0  1  0  0  0  0  0  0  0  0
    7.1698   -0.7697   -0.8865 H   0  0  0  1  0  0  0  0  0  0  0  0
    5.4231   -3.1456   -0.2713 H   0  0  0  1  0  0  0  0  0  0  0  0
    4.8567   -2.0877    1.8683 H   0  0  0  1  0  0  0  0  0  0  0  0
    6.1081   -0.8813    1.6864 H   0  0  0  1  0  0  0  0  0  0  0  0
    7.2347   -3.3882    1.3674 H   0  0  0  1  0  0  0  0  0  0  0  0
    8.0184   -2.1989    0.6381 H   0  0  0  1  0  0  0  0  0  0  0  0
  1  2  4  0  0  0  0
  1  6  4  0  0  0  0
  1 18  1  0  0  0  0
  2  3  4  0  0  0  0
  3  4  4  0  0  0  0
  3 25  1  0  0  0  0
  4  5  4  0  0  0  0
  4  7  4  0  0  0  0
  5  6  4  0  0  0  0
  5  9  4  0  0  0  0
  7  8  4  0  0  0  0
  7 26  1  0  0  0  0
  8  9  4  0  0  0  0
  9 10  1  0  0  0  0
 10 11  4  0  0  0  0
 10 15  4  0  0  0  0
 11 12  4  0  0  0  0
 11 27  1  0  0  0  0
 12 13  4  0  0  0  0
 12 28  1  0  0  0  0
 13 14  4  0  0  0  0
 13 16  1  0  0  0  0
 14 15  4  0  0  0  0
 14 29  1  0  0  0  0
 15 30  1  0  0  0  0
 16 17  1  0  0  0  0
 17 31  1  0  0  0  0
 17 32  1  0  0  0  0
 17 33  1  0  0  0  0
 18 19  1  0  0  0  0
 18 34  1  0  0  0  0
 19 20  1  0  0  0  0
 19 23  1  0  0  0  0
 19 35  1  0  0  0  0
 20 21  1  0  0  0  0
 20 36  1  0  0  0  0
 20 37  1  0  0  0  0
 21 22  1  0  0  0  0
 21 38  1  0  0  0  0
 21 39  1  0  0  0  0
 22 23  1  0  0  0  0
 22 24  1  0  0  0  0
 22 40  1  0  0  0  0
 23 41  1  0  0  0  0
 23 42  1  0  0  0  0
 24 43  1  0  0  0  0
 24 44  1  0  0  0  0
M  END
> <ConfClashScore>
0 

> <ConfOneFourInteractionScore>
-0.984337 

> <ConfScore>
-0.115556 

> <ConfScorePBest>
0.00512597 

> <ConfTolerance>
0.239951 

$$$$
c22.sdf
 OpenBabel04162418103D

 44 47  0  0  0  0  0  0  0  0999 V2000
    1.9452   -0.6101    0.1255 C   0  0  0  1  0  0  0  0  0  0  0  0
    2.0363    0.7234    0.1481 N   0  0  0  1  0  0  0  0  0  0  0  0
    0.8946    1.4376    0.0881 C   0  0  0  1  0  0  0  0  0  0  0  0
   -0.3452    0.7387    0.0096 C   0  0  0  1  0  0  0  0  0  0  0  0
   -0.2528   -0.6477    0.0020 C   0  0  0  1  0  0  0  0  0  0  0  0
    0.8779   -1.3912    0.0538 N   0  0  0  1  0  0  0  0  0  0  0  0
   -1.7304    0.9921   -0.0538 C   0  0  0  1  0  0  0  0  0  0  0  0
   -2.4282   -0.1191   -0.1028 N   0  0  0  1  0  0  0  0  0  0  0  0
   -1.5125   -1.1342   -0.0681 N   0  0  0  1  0  0  0  0  0  0  0  0
   -1.8423   -2.5207   -0.1014 C   0  0  0  1  0  0  0  0  0  0  0  0
   -1.3758   -3.4106    0.8477 C   0  0  0  1  0  0  0  0  0  0  0  0
   -1.8049   -4.7285    0.8318 C   0  0  0  1  0  0  0  0  0  0  0  0
   -2.6951   -5.1541   -0.1361 C   0  0  0  1  0  0  0  0  0  0  0  0
   -3.1628   -4.2613   -1.0880 C   0  0  0  1  0  0  0  0  0  0  0  0
   -2.7349   -2.9471   -1.0723 C   0  0  0  1  0  0  0  0  0  0  0  0
   -3.0686   -6.4479   -0.0994 O   0  0  0  1  0  0  0  0  0  0  0  0
   -3.9616   -6.8578   -1.1610 C   0  0  0  1  0  0  0  0  0  0  0  0
    3.1323   -1.2664    0.1854 N   0  0  0  1  0  0  0  0  0  0  0  0
    4.4363   -0.5963    0.2145 C   0  0  0  1  0  0  0  0  0  0  0  0
    5.5612   -1.5867   -0.1056 C   0  0  0  1  0  0  0  0  0  0  0  0
    6.7756   -0.8840    0.4786 C   0  0  0  1  0  0  0  0  0  0  0  0
    6.2710   -0.2713    1.7894 C   0  0  0  1  0  0  0  0  0  0  0  0
    4.7554   -0.0952    1.6259 C   0  0  0  1  0  0  0  0  0  0  0  0
    6.9228    1.0514    2.0266 N   0  0  0  1  0  0  0  0  0  0  0  0
    0.9178    2.4773    0.0988 H   0  0  0  1  0  0  0  0  0  0  0  0
   -2.1490    1.9441   -0.0607 H   0  0  0  1  0  0  0  0  0  0  0  0
   -0.7029   -3.0914    1.5736 H   0  0  0  1  0  0  0  0  0  0  0  0
   -1.4572   -5.3972    1.5484 H   0  0  0  1  0  0  0  0  0  0  0  0
   -3.8357   -4.5804   -1.8139 H   0  0  0  1  0  0  0  0  0  0  0  0
   -3.0828   -2.2784   -1.7888 H   0  0  0  1  0  0  0  0  0  0  0  0
   -3.5587   -6.5529   -2.1042 H   0  0  0  1  0  0  0  0  0  0  0  0
   -4.9186   -6.4011   -1.0180 H   0  0  0  1  0  0  0  0  0  0  0  0
   -4.0680   -7.9224   -1.1462 H   0  0  0  1  0  0  0  0  0  0  0  0
    3.1167   -2.2460    0.2106 H   0  0  0  1  0  0  0  0  0  0  0  0
    4.4368    0.2147   -0.4836 H   0  0  0  1  0  0  0  0  0  0  0  0
    5.6649   -1.7293   -1.1610 H   0  0  0  1  0  0  0  0  0  0  0  0
    5.3937   -2.5316    0.3678 H   0  0  0  1  0  0  0  0  0  0  0  0
    7.5630   -1.5836    0.6668 H   0  0  0  1  0  0  0  0  0  0  0  0
    7.1265   -0.1212   -0.1848 H   0  0  0  1  0  0  0  0  0  0  0  0
    6.4816   -0.9254    2.6094 H   0  0  0  1  0  0  0  0  0  0  0  0
    4.2306   -0.6749    2.3561 H   0  0  0  1  0  0  0  0  0  0  0  0
    4.4856    0.9354    1.7267 H   0  0  0  1  0  0  0  0  0  0  0  0
    6.5434    1.4635    2.8307 H   0  0  0  1  0  0  0  0  0  0  0  0
    6.7662    1.6355    1.2555 H   0  0  0  1  0  0  0  0  0  0  0  0
  1  2  4  0  0  0  0
  1  6  4  0  0  0  0
  1 18  1  0  0  0  0
  2  3  4  0  0  0  0
  3  4  4  0  0  0  0
  3 25  1  0  0  0  0
  4  5  4  0  0  0  0
  4  7  4  0  0  0  0
  5  6  4  0  0  0  0
  5  9  4  0  0  0  0
  7  8  4  0  0  0  0
  7 26  1  0  0  0  0
  8  9  4  0  0  0  0
  9 10  1  0  0  0  0
 10 11  4  0  0  0  0
 10 15  4  0  0  0  0
 11 12  4  0  0  0  0
 11 27  1  0  0  0  0
 12 13  4  0  0  0  0
 12 28  1  0  0  0  0
 13 14  4  0  0  0  0
 13 16  1  0  0  0  0
 14 15  4  0  0  0  0
 14 29  1  0  0  0  0
 15 30  1  0  0  0  0
 16 17  1  0  0  0  0
 17 31  1  0  0  0  0
 17 32  1  0  0  0  0
 17 33  1  0  0  0  0
 18 19  1  0  0  0  0
 18 34  1  0  0  0  0
 19 20  1  0  0  0  0
 19 23  1  0  0  0  0
 19 35  1  0  0  0  0
 20 21  1  0  0  0  0
 20 36  1  0  0  0  0
 20 37  1  0  0  0  0
 21 22  1  0  0  0  0
 21 38  1  0  0  0  0
 21 39  1  0  0  0  0
 22 23  1  0  0  0  0
 22 24  1  0  0  0  0
 22 40  1  0  0  0  0
 23 41  1  0  0  0  0
 23 42  1  0  0  0  0
 24 43  1  0  0  0  0
 24 44  1  0  0  0  0
M  END
> <ConfClashScore>
0 

> <ConfOneFourInteractionScore>
-0.984337 

> <ConfScore>
-0.115079 

> <ConfScorePBest>
0.00511265 

> <ConfTolerance>
0.228713 

$$$$
c22.sdf
 OpenBabel04162418103D

 44 47  0  0  0  0  0  0  0  0999 V2000
    1.9453   -0.6102    0.1256 C   0  0  0  1  0  0  0  0  0  0  0  0
    2.0363    0.7233    0.1482 N   0  0  0  1  0  0  0  0  0  0  0  0
    0.8946    1.4376    0.0881 C   0  0  0  1  0  0  0  0  0  0  0  0
   -0.3452    0.7386    0.0096 C   0  0  0  1  0  0  0  0  0  0  0  0
   -0.2528   -0.6477    0.0020 C   0  0  0  1  0  0  0  0  0  0  0  0
    0.8780   -1.3912    0.0539 N   0  0  0  1  0  0  0  0  0  0  0  0
   -1.7303    0.9921   -0.0538 C   0  0  0  1  0  0  0  0  0  0  0  0
   -2.4281   -0.1191   -0.1029 N   0  0  0  1  0  0  0  0  0  0  0  0
   -1.5125   -1.1341   -0.0681 N   0  0  0  1  0  0  0  0  0  0  0  0
   -1.8384   -2.5051   -0.1009 C   0  0  0  1  0  0  0  0  0  0  0  0
   -2.4253   -2.9964   -1.2518 C   0  0  0  1  0  0  0  0  0  0  0  0
   -2.7614   -4.3384   -1.3397 C   0  0  0  1  0  0  0  0  0  0  0  0
   -2.5146   -5.1840   -0.2746 C   0  0  0  1  0  0  0  0  0  0  0  0
   -1.9260   -4.6910    0.8796 C   0  0  0  1  0  0  0  0  0  0  0  0
   -1.5908   -3.3530    0.9674 C   0  0  0  1  0  0  0  0  0  0  0  0
   -2.8013   -6.4999   -0.2427 O   0  0  0  1  0  0  0  0  0  0  0  0
   -3.3630   -7.0338   -1.4641 C   0  0  0  1  0  0  0  0  0  0  0  0
    3.1646   -1.2843    0.1871 N   0  0  0  1  0  0  0  0  0  0  0  0
    4.3458   -0.4168    0.2399 C   0  0  0  1  0  0  0  0  0  0  0  0
    5.5545   -1.1270   -0.3809 C   0  0  0  1  0  0  0  0  0  0  0  0
    6.5275   -1.3495    0.7704 C   0  0  0  1  0  0  0  0  0  0  0  0
    6.2535   -0.1929    1.7404 C   0  0  0  1  0  0  0  0  0  0  0  0
    4.7247   -0.1212    1.6996 C   0  0  0  1  0  0  0  0  0  0  0  0
    6.8627    1.0582    1.2704 N   0  0  0  1  0  0  0  0  0  0  0  0
    0.9179    2.4772    0.0987 H   0  0  0  1  0  0  0  0  0  0  0  0
   -2.1490    1.9440   -0.0608 H   0  0  0  1  0  0  0  0  0  0  0  0
   -2.6148   -2.3594   -2.0517 H   0  0  0  1  0  0  0  0  0  0  0  0
   -3.1994   -4.7090   -2.2071 H   0  0  0  1  0  0  0  0  0  0  0  0
   -1.7366   -5.3280    1.6796 H   0  0  0  1  0  0  0  0  0  0  0  0
   -1.1529   -2.9823    1.8347 H   0  0  0  1  0  0  0  0  0  0  0  0
   -2.7298   -6.7811   -2.2888 H   0  0  0  1  0  0  0  0  0  0  0  0
   -4.3359   -6.6170   -1.6210 H   0  0  0  1  0  0  0  0  0  0  0  0
   -3.4388   -8.0983   -1.3860 H   0  0  0  1  0  0  0  0  0  0  0  0
    3.2273   -2.2623    0.1946 H   0  0  0  1  0  0  0  0  0  0  0  0
    4.1431    0.4947   -0.2825 H   0  0  0  1  0  0  0  0  0  0  0  0
    5.2601   -2.0627   -0.8082 H   0  0  0  1  0  0  0  0  0  0  0  0
    6.0016   -0.5146   -1.1357 H   0  0  0  1  0  0  0  0  0  0  0  0
    7.5384   -1.3178    0.4214 H   0  0  0  1  0  0  0  0  0  0  0  0
    6.3425   -2.2909    1.2440 H   0  0  0  1  0  0  0  0  0  0  0  0
    6.6087   -0.4153    2.7249 H   0  0  0  1  0  0  0  0  0  0  0  0
    4.3872    0.8533    1.9846 H   0  0  0  1  0  0  0  0  0  0  0  0
    4.2974   -0.8526    2.3533 H   0  0  0  1  0  0  0  0  0  0  0  0
    6.5079    1.8100    1.7893 H   0  0  0  1  0  0  0  0  0  0  0  0
    6.6520    1.1878    0.3221 H   0  0  0  1  0  0  0  0  0  0  0  0
  1  2  4  0  0  0  0
  1  6  4  0  0  0  0
  1 18  1  0  0  0  0
  2  3  4  0  0  0  0
  3  4  4  0  0  0  0
  3 25  1  0  0  0  0
  4  5  4  0  0  0  0
  4  7  4  0  0  0  0
  5  6  4  0  0  0  0
  5  9  4  0  0  0  0
  7  8  4  0  0  0  0
  7 26  1  0  0  0  0
  8  9  4  0  0  0  0
  9 10  1  0  0  0  0
 10 11  4  0  0  0  0
 10 15  4  0  0  0  0
 11 12  4  0  0  0  0
 11 27  1  0  0  0  0
 12 13  4  0  0  0  0
 12 28  1  0  0  0  0
 13 14  4  0  0  0  0
 13 16  1  0  0  0  0
 14 15  4  0  0  0  0
 14 29  1  0  0  0  0
 15 30  1  0  0  0  0
 16 17  1  0  0  0  0
 17 31  1  0  0  0  0
 17 32  1  0  0  0  0
 17 33  1  0  0  0  0
 18 19  1  0  0  0  0
 18 34  1  0  0  0  0
 19 20  1  0  0  0  0
 19 23  1  0  0  0  0
 19 35  1  0  0  0  0
 20 21  1  0  0  0  0
 20 36  1  0  0  0  0
 20 37  1  0  0  0  0
 21 22  1  0  0  0  0
 21 38  1  0  0  0  0
 21 39  1  0  0  0  0
 22 23  1  0  0  0  0
 22 24  1  0  0  0  0
 22 40  1  0  0  0  0
 23 41  1  0  0  0  0
 23 42  1  0  0  0  0
 24 43  1  0  0  0  0
 24 44  1  0  0  0  0
M  END
> <ConfClashScore>
0 

> <ConfOneFourInteractionScore>
-0.984337 

> <ConfScore>
-0.115079 

> <ConfScorePBest>
0.00509932 

> <ConfTolerance>
0.275725 

$$$$
c22.sdf
 OpenBabel04162418103D

 44 47  0  0  0  0  0  0  0  0999 V2000
    1.9452   -0.6102    0.1256 C   0  0  0  1  0  0  0  0  0  0  0  0
    2.0363    0.7233    0.1481 N   0  0  0  1  0  0  0  0  0  0  0  0
    0.8946    1.4376    0.0881 C   0  0  0  1  0  0  0  0  0  0  0  0
   -0.3453    0.7386    0.0096 C   0  0  0  1  0  0  0  0  0  0  0  0
   -0.2528   -0.6477    0.0021 C   0  0  0  1  0  0  0  0  0  0  0  0
    0.8779   -1.3913    0.0539 N   0  0  0  1  0  0  0  0  0  0  0  0
   -1.7303    0.9921   -0.0538 C   0  0  0  1  0  0  0  0  0  0  0  0
   -2.4282   -0.1191   -0.1029 N   0  0  0  1  0  0  0  0  0  0  0  0
   -1.5126   -1.1342   -0.0681 N   0  0  0  1  0  0  0  0  0  0  0  0
   -1.8419   -2.5193   -0.1013 C   0  0  0  1  0  0  0  0  0  0  0  0
   -2.6043   -3.0235   -1.1380 C   0  0  0  1  0  0  0  0  0  0  0  0
   -2.9203   -4.3727   -1.1731 C   0  0  0  1  0  0  0  0  0  0  0  0
   -2.4776   -5.2127   -0.1687 C   0  0  0  1  0  0  0  0  0  0  0  0
   -1.7130   -4.7068    0.8709 C   0  0  0  1  0  0  0  0  0  0  0  0
   -1.3977   -3.3615    0.9061 C   0  0  0  1  0  0  0  0  0  0  0  0
   -2.8995   -6.4995   -0.1820 O   0  0  0  1  0  0  0  0  0  0  0  0
   -3.5249   -6.9726   -1.3851 C   0  0  0  1  0  0  0  0  0  0  0  0
    3.1256   -1.2628    0.1851 N   0  0  0  1  0  0  0  0  0  0  0  0
    4.4310   -0.5948    0.1642 C   0  0  0  1  0  0  0  0  0  0  0  0
    5.4996   -1.4719   -0.5011 C   0  0  0  1  0  0  0  0  0  0  0  0
    5.8699   -2.5012    0.5595 C   0  0  0  1  0  0  0  0  0  0  0  0
    5.6398   -1.8009    1.9037 C   0  0  0  1  0  0  0  0  0  0  0  0
    5.0039   -0.4407    1.5757 C   0  0  0  1  0  0  0  0  0  0  0  0
    6.9446   -1.6059    2.6184 N   0  0  0  1  0  0  0  0  0  0  0  0
    0.9178    2.4773    0.0988 H   0  0  0  1  0  0  0  0  0  0  0  0
   -2.1491    1.9441   -0.0608 H   0  0  0  1  0  0  0  0  0  0  0  0
   -2.9409   -2.3907   -1.8916 H   0  0  0  1  0  0  0  0  0  0  0  0
   -3.4907   -4.7528   -1.9553 H   0  0  0  1  0  0  0  0  0  0  0  0
   -1.3764   -5.3395    1.6246 H   0  0  0  1  0  0  0  0  0  0  0  0
   -0.8275   -2.9813    1.6882 H   0  0  0  1  0  0  0  0  0  0  0  0
   -2.7834   -7.1036   -2.1454 H   0  0  0  1  0  0  0  0  0  0  0  0
   -4.2505   -6.2584   -1.7141 H   0  0  0  1  0  0  0  0  0  0  0  0
   -4.0067   -7.9084   -1.1921 H   0  0  0  1  0  0  0  0  0  0  0  0
    3.1091   -2.2408    0.2459 H   0  0  0  1  0  0  0  0  0  0  0  0
    4.3402    0.3515   -0.3268 H   0  0  0  1  0  0  0  0  0  0  0  0
    5.1047   -1.9526   -1.3717 H   0  0  0  1  0  0  0  0  0  0  0  0
    6.3530   -0.8863   -0.7725 H   0  0  0  1  0  0  0  0  0  0  0  0
    5.2452   -3.3659    0.4762 H   0  0  0  1  0  0  0  0  0  0  0  0
    6.8952   -2.7903    0.4587 H   0  0  0  1  0  0  0  0  0  0  0  0
    4.9805   -2.3805    2.5156 H   0  0  0  1  0  0  0  0  0  0  0  0
    5.7421    0.3335    1.5984 H   0  0  0  1  0  0  0  0  0  0  0  0
    4.2255   -0.2126    2.2734 H   0  0  0  1  0  0  0  0  0  0  0  0
    6.8168   -0.9913    3.3710 H   0  0  0  1  0  0  0  0  0  0  0  0
    7.6036   -1.2298    1.9982 H   0  0  0  1  0  0  0  0  0  0  0  0
  1  2  4  0  0  0  0
  1  6  4  0  0  0  0
  1 18  1  0  0  0  0
  2  3  4  0  0  0  0
  3  4  4  0  0  0  0
  3 25  1  0  0  0  0
  4  5  4  0  0  0  0
  4  7  4  0  0  0  0
  5  6  4  0  0  0  0
  5  9  4  0  0  0  0
  7  8  4  0  0  0  0
  7 26  1  0  0  0  0
  8  9  4  0  0  0  0
  9 10  1  0  0  0  0
 10 11  4  0  0  0  0
 10 15  4  0  0  0  0
 11 12  4  0  0  0  0
 11 27  1  0  0  0  0
 12 13  4  0  0  0  0
 12 28  1  0  0  0  0
 13 14  4  0  0  0  0
 13 16  1  0  0  0  0
 14 15  4  0  0  0  0
 14 29  1  0  0  0  0
 15 30  1  0  0  0  0
 16 17  1  0  0  0  0
 17 31  1  0  0  0  0
 17 32  1  0  0  0  0
 17 33  1  0  0  0  0
 18 19  1  0  0  0  0
 18 34  1  0  0  0  0
 19 20  1  0  0  0  0
 19 23  1  0  0  0  0
 19 35  1  0  0  0  0
 20 21  1  0  0  0  0
 20 36  1  0  0  0  0
 20 37  1  0  0  0  0
 21 22  1  0  0  0  0
 21 38  1  0  0  0  0
 21 39  1  0  0  0  0
 22 23  1  0  0  0  0
 22 24  1  0  0  0  0
 22 40  1  0  0  0  0
 23 41  1  0  0  0  0
 23 42  1  0  0  0  0
 24 43  1  0  0  0  0
 24 44  1  0  0  0  0
M  END
> <ConfClashScore>
0 

> <ConfOneFourInteractionScore>
-0.984337 

> <ConfScore>
-0.115079 

> <ConfScorePBest>
0.00508599 

> <ConfTolerance>
0.22354 

$$$$
c22.sdf
 OpenBabel04162418103D

 44 47  0  0  0  0  0  0  0  0999 V2000
    1.9453   -0.6103    0.1256 C   0  0  0  1  0  0  0  0  0  0  0  0
    2.0364    0.7232    0.1481 N   0  0  0  1  0  0  0  0  0  0  0  0
    0.8946    1.4376    0.0881 C   0  0  0  1  0  0  0  0  0  0  0  0
   -0.3453    0.7386    0.0096 C   0  0  0  1  0  0  0  0  0  0  0  0
   -0.2528   -0.6478    0.0020 C   0  0  0  1  0  0  0  0  0  0  0  0
    0.8780   -1.3913    0.0538 N   0  0  0  1  0  0  0  0  0  0  0  0
   -1.7304    0.9921   -0.0538 C   0  0  0  1  0  0  0  0  0  0  0  0
   -2.4281   -0.1192   -0.1028 N   0  0  0  1  0  0  0  0  0  0  0  0
   -1.5125   -1.1342   -0.0681 N   0  0  0  1  0  0  0  0  0  0  0  0
   -1.8370   -2.4986   -0.1008 C   0  0  0  1  0  0  0  0  0  0  0  0
   -1.3221   -3.4481    0.7615 C   0  0  0  1  0  0  0  0  0  0  0  0
   -1.7135   -4.7730    0.6470 C   0  0  0  1  0  0  0  0  0  0  0  0
   -2.6144   -5.1454   -0.3328 C   0  0  0  1  0  0  0  0  0  0  0  0
   -3.1306   -4.1930   -1.1976 C   0  0  0  1  0  0  0  0  0  0  0  0
   -2.7405   -2.8720   -1.0835 C   0  0  0  1  0  0  0  0  0  0  0  0
   -2.9907   -6.4339   -0.4473 O   0  0  0  1  0  0  0  0  0  0  0  0
   -3.9955   -6.6909   -1.4557 C   0  0  0  1  0  0  0  0  0  0  0  0
    3.1213   -1.2605    0.1849 N   0  0  0  1  0  0  0  0  0  0  0  0
    4.4212   -0.5905    0.2919 C   0  0  0  1  0  0  0  0  0  0  0  0
    5.4710   -1.3134   -0.5461 C   0  0  0  1  0  0  0  0  0  0  0  0
    6.3019   -2.1810    0.4070 C   0  0  0  1  0  0  0  0  0  0  0  0
    6.3791   -1.2834    1.6873 C   0  0  0  1  0  0  0  0  0  0  0  0
    4.9677   -0.6719    1.7599 C   0  0  0  1  0  0  0  0  0  0  0  0
    7.4197   -0.2201    1.5377 N   0  0  0  1  0  0  0  0  0  0  0  0
    0.9179    2.4772    0.0987 H   0  0  0  1  0  0  0  0  0  0  0  0
   -2.1490    1.9441   -0.0608 H   0  0  0  1  0  0  0  0  0  0  0  0
   -0.6412   -3.1686    1.4962 H   0  0  0  1  0  0  0  0  0  0  0  0
   -1.3291   -5.4868    1.2985 H   0  0  0  1  0  0  0  0  0  0  0  0
   -3.8116   -4.4725   -1.9323 H   0  0  0  1  0  0  0  0  0  0  0  0
   -3.1248   -2.1581   -1.7349 H   0  0  0  1  0  0  0  0  0  0  0  0
   -3.5699   -6.5518   -2.4275 H   0  0  0  1  0  0  0  0  0  0  0  0
   -4.8134   -6.0135   -1.3245 H   0  0  0  1  0  0  0  0  0  0  0  0
   -4.3464   -7.6972   -1.3609 H   0  0  0  1  0  0  0  0  0  0  0  0
    3.1086   -2.2399    0.1550 H   0  0  0  1  0  0  0  0  0  0  0  0
    4.3245    0.4285   -0.0198 H   0  0  0  1  0  0  0  0  0  0  0  0
    4.9929   -1.9297   -1.2784 H   0  0  0  1  0  0  0  0  0  0  0  0
    6.1017   -0.6011   -1.0356 H   0  0  0  1  0  0  0  0  0  0  0  0
    5.8119   -3.1096    0.6132 H   0  0  0  1  0  0  0  0  0  0  0  0
    7.2762   -2.3722    0.0079 H   0  0  0  1  0  0  0  0  0  0  0  0
    6.5902   -1.8698    2.5571 H   0  0  0  1  0  0  0  0  0  0  0  0
    4.3298   -1.2918    2.3545 H   0  0  0  1  0  0  0  0  0  0  0  0
    5.0143    0.3076    2.1883 H   0  0  0  1  0  0  0  0  0  0  0  0
    7.3842    0.3833    2.3091 H   0  0  0  1  0  0  0  0  0  0  0  0
    7.2510    0.2886    0.7172 H   0  0  0  1  0  0  0  0  0  0  0  0
  1  2  4  0  0  0  0
  1  6  4  0  0  0  0
  1 18  1  0  0  0  0
  2  3  4  0  0  0  0
  3  4  4  0  0  0  0
  3 25  1  0  0  0  0
  4  5  4  0  0  0  0
  4  7  4  0  0  0  0
  5  6  4  0  0  0  0
  5  9  4  0  0  0  0
  7  8  4  0  0  0  0
  7 26  1  0  0  0  0
  8  9  4  0  0  0  0
  9 10  1  0  0  0  0
 10 11  4  0  0  0  0
 10 15  4  0  0  0  0
 11 12  4  0  0  0  0
 11 27  1  0  0  0  0
 12 13  4  0  0  0  0
 12 28  1  0  0  0  0
 13 14  4  0  0  0  0
 13 16  1  0  0  0  0
 14 15  4  0  0  0  0
 14 29  1  0  0  0  0
 15 30  1  0  0  0  0
 16 17  1  0  0  0  0
 17 31  1  0  0  0  0
 17 32  1  0  0  0  0
 17 33  1  0  0  0  0
 18 19  1  0  0  0  0
 18 34  1  0  0  0  0
 19 20  1  0  0  0  0
 19 23  1  0  0  0  0
 19 35  1  0  0  0  0
 20 21  1  0  0  0  0
 20 36  1  0  0  0  0
 20 37  1  0  0  0  0
 21 22  1  0  0  0  0
 21 38  1  0  0  0  0
 21 39  1  0  0  0  0
 22 23  1  0  0  0  0
 22 24  1  0  0  0  0
 22 40  1  0  0  0  0
 23 41  1  0  0  0  0
 23 42  1  0  0  0  0
 24 43  1  0  0  0  0
 24 44  1  0  0  0  0
M  END
> <ConfClashScore>
0 

> <ConfOneFourInteractionScore>
-0.984337 

> <ConfScore>
-0.115079 

> <ConfScorePBest>
0.00507266 

> <ConfTolerance>
0.275444 

$$$$
c22.sdf
 OpenBabel04162418103D

 44 47  0  0  0  0  0  0  0  0999 V2000
    1.9452   -0.6103    0.1255 C   0  0  0  1  0  0  0  0  0  0  0  0
    2.0363    0.7233    0.1481 N   0  0  0  1  0  0  0  0  0  0  0  0
    0.8946    1.4376    0.0881 C   0  0  0  1  0  0  0  0  0  0  0  0
   -0.3453    0.7386    0.0096 C   0  0  0  1  0  0  0  0  0  0  0  0
   -0.2528   -0.6478    0.0020 C   0  0  0  1  0  0  0  0  0  0  0  0
    0.8779   -1.3913    0.0538 N   0  0  0  1  0  0  0  0  0  0  0  0
   -1.7303    0.9921   -0.0538 C   0  0  0  1  0  0  0  0  0  0  0  0
   -2.4281   -0.1191   -0.1029 N   0  0  0  1  0  0  0  0  0  0  0  0
   -1.5125   -1.1341   -0.0681 N   0  0  0  1  0  0  0  0  0  0  0  0
   -1.8419   -2.5192   -0.1013 C   0  0  0  1  0  0  0  0  0  0  0  0
   -3.0773   -2.9466    0.3474 C   0  0  0  1  0  0  0  0  0  0  0  0
   -3.3998   -4.2942    0.3101 C   0  0  0  1  0  0  0  0  0  0  0  0
   -2.4842   -5.2110   -0.1708 C   0  0  0  1  0  0  0  0  0  0  0  0
   -1.2452   -4.7822   -0.6209 C   0  0  0  1  0  0  0  0  0  0  0  0
   -0.9234   -3.4385   -0.5837 C   0  0  0  1  0  0  0  0  0  0  0  0
   -2.9085   -6.4970   -0.1538 O   0  0  0  1  0  0  0  0  0  0  0  0
   -2.0037   -7.4916   -0.6494 C   0  0  0  1  0  0  0  0  0  0  0  0
    3.1213   -1.2605    0.1848 N   0  0  0  1  0  0  0  0  0  0  0  0
    4.4597   -0.7119    0.3647 C   0  0  0  1  0  0  0  0  0  0  0  0
    5.2182   -0.7004   -0.9653 C   0  0  0  1  0  0  0  0  0  0  0  0
    6.6744   -0.6962   -0.4823 C   0  0  0  1  0  0  0  0  0  0  0  0
    6.6963   -1.6722    0.6875 C   0  0  0  1  0  0  0  0  0  0  0  0
    5.2898   -1.6109    1.2946 C   0  0  0  1  0  0  0  0  0  0  0  0
    7.7104   -1.2613    1.6864 N   0  0  0  1  0  0  0  0  0  0  0  0
    0.9179    2.4772    0.0988 H   0  0  0  1  0  0  0  0  0  0  0  0
   -2.1489    1.9441   -0.0608 H   0  0  0  1  0  0  0  0  0  0  0  0
   -3.7648   -2.2573    0.7130 H   0  0  0  1  0  0  0  0  0  0  0  0
   -4.3310   -4.6154    0.6439 H   0  0  0  1  0  0  0  0  0  0  0  0
   -0.5576   -5.4716   -0.9865 H   0  0  0  1  0  0  0  0  0  0  0  0
    0.0077   -3.1173   -0.9175 H   0  0  0  1  0  0  0  0  0  0  0  0
   -2.4453   -8.4604   -0.5440 H   0  0  0  1  0  0  0  0  0  0  0  0
   -1.0913   -7.4531   -0.0916 H   0  0  0  1  0  0  0  0  0  0  0  0
   -1.7987   -7.3038   -1.6827 H   0  0  0  1  0  0  0  0  0  0  0  0
    3.0715   -2.2351    0.0949 H   0  0  0  1  0  0  0  0  0  0  0  0
    4.3892    0.2779    0.7648 H   0  0  0  1  0  0  0  0  0  0  0  0
    5.0012   -1.5718   -1.5470 H   0  0  0  1  0  0  0  0  0  0  0  0
    4.9928    0.1758   -1.5367 H   0  0  0  1  0  0  0  0  0  0  0  0
    7.3308   -1.0253   -1.2605 H   0  0  0  1  0  0  0  0  0  0  0  0
    6.9628    0.2831   -0.1620 H   0  0  0  1  0  0  0  0  0  0  0  0
    6.9132   -2.6624    0.3448 H   0  0  0  1  0  0  0  0  0  0  0  0
    5.3286   -1.1914    2.2782 H   0  0  0  1  0  0  0  0  0  0  0  0
    4.8630   -2.5910    1.3409 H   0  0  0  1  0  0  0  0  0  0  0  0
    8.5934   -1.2301    1.2623 H   0  0  0  1  0  0  0  0  0  0  0  0
    7.7245   -1.9082    2.4224 H   0  0  0  1  0  0  0  0  0  0  0  0
  1  2  4  0  0  0  0
  1  6  4  0  0  0  0
  1 18  1  0  0  0  0
  2  3  4  0  0  0  0
  3  4  4  0  0  0  0
  3 25  1  0  0  0  0
  4  5  4  0  0  0  0
  4  7  4  0  0  0  0
  5  6  4  0  0  0  0
  5  9  4  0  0  0  0
  7  8  4  0  0  0  0
  7 26  1  0  0  0  0
  8  9  4  0  0  0  0
  9 10  1  0  0  0  0
 10 11  4  0  0  0  0
 10 15  4  0  0  0  0
 11 12  4  0  0  0  0
 11 27  1  0  0  0  0
 12 13  4  0  0  0  0
 12 28  1  0  0  0  0
 13 14  4  0  0  0  0
 13 16  1  0  0  0  0
 14 15  4  0  0  0  0
 14 29  1  0  0  0  0
 15 30  1  0  0  0  0
 16 17  1  0  0  0  0
 17 31  1  0  0  0  0
 17 32  1  0  0  0  0
 17 33  1  0  0  0  0
 18 19  1  0  0  0  0
 18 34  1  0  0  0  0
 19 20  1  0  0  0  0
 19 23  1  0  0  0  0
 19 35  1  0  0  0  0
 20 21  1  0  0  0  0
 20 36  1  0  0  0  0
 20 37  1  0  0  0  0
 21 22  1  0  0  0  0
 21 38  1  0  0  0  0
 21 39  1  0  0  0  0
 22 23  1  0  0  0  0
 22 24  1  0  0  0  0
 22 40  1  0  0  0  0
 23 41  1  0  0  0  0
 23 42  1  0  0  0  0
 24 43  1  0  0  0  0
 24 44  1  0  0  0  0
M  END
> <ConfClashScore>
0 

> <ConfOneFourInteractionScore>
-0.984337 

> <ConfScore>
-0.112904 

> <ConfScorePBest>
0.00505933 

> <ConfTolerance>
0.254051 

$$$$
c22.sdf
 OpenBabel04162418103D

 44 47  0  0  0  0  0  0  0  0999 V2000
    1.9452   -0.6103    0.1256 C   0  0  0  1  0  0  0  0  0  0  0  0
    2.0363    0.7233    0.1482 N   0  0  0  1  0  0  0  0  0  0  0  0
    0.8946    1.4376    0.0881 C   0  0  0  1  0  0  0  0  0  0  0  0
   -0.3452    0.7386    0.0096 C   0  0  0  1  0  0  0  0  0  0  0  0
   -0.2528   -0.6478    0.0020 C   0  0  0  1  0  0  0  0  0  0  0  0
    0.8779   -1.3913    0.0540 N   0  0  0  1  0  0  0  0  0  0  0  0
   -1.7304    0.9921   -0.0538 C   0  0  0  1  0  0  0  0  0  0  0  0
   -2.4281   -0.1191   -0.1028 N   0  0  0  1  0  0  0  0  0  0  0  0
   -1.5125   -1.1342   -0.0681 N   0  0  0  1  0  0  0  0  0  0  0  0
   -1.8386   -2.5051   -0.1010 C   0  0  0  1  0  0  0  0  0  0  0  0
   -3.1184   -2.8682    0.2737 C   0  0  0  1  0  0  0  0  0  0  0  0
   -3.4937   -4.2025    0.2547 C   0  0  0  1  0  0  0  0  0  0  0  0
   -2.5865   -5.1702   -0.1339 C   0  0  0  1  0  0  0  0  0  0  0  0
   -1.3030   -4.8059   -0.5096 C   0  0  0  1  0  0  0  0  0  0  0  0
   -0.9286   -3.4755   -0.4907 C   0  0  0  1  0  0  0  0  0  0  0  0
   -2.8347   -6.4932   -0.1870 O   0  0  0  1  0  0  0  0  0  0  0  0
   -4.1918   -6.8751    0.1371 C   0  0  0  1  0  0  0  0  0  0  0  0
    3.1213   -1.2605    0.1850 N   0  0  0  1  0  0  0  0  0  0  0  0
    3.2522   -2.7190    0.1281 C   0  0  0  1  0  0  0  0  0  0  0  0
    3.4197   -3.2880    1.5385 C   0  0  0  1  0  0  0  0  0  0  0  0
    4.8430   -3.8245    1.6085 C   0  0  0  1  0  0  0  0  0  0  0  0
    5.6114   -3.1600    0.4744 C   0  0  0  1  0  0  0  0  0  0  0  0
    4.5345   -3.1130   -0.6732 C   0  0  0  1  0  0  0  0  0  0  0  0
    6.8081   -3.9841    0.0681 N   0  0  0  1  0  0  0  0  0  0  0  0
    0.9179    2.4772    0.0988 H   0  0  0  1  0  0  0  0  0  0  0  0
   -2.1490    1.9441   -0.0609 H   0  0  0  1  0  0  0  0  0  0  0  0
   -3.7998   -2.1405    0.5699 H   0  0  0  1  0  0  0  0  0  0  0  0
   -4.4579   -4.4754    0.5327 H   0  0  0  1  0  0  0  0  0  0  0  0
   -0.6216   -5.5336   -0.8058 H   0  0  0  1  0  0  0  0  0  0  0  0
    0.0357   -3.2026   -0.7688 H   0  0  0  1  0  0  0  0  0  0  0  0
   -4.2389   -7.9335    0.2869 H   0  0  0  1  0  0  0  0  0  0  0  0
   -4.8412   -6.5998   -0.6675 H   0  0  0  1  0  0  0  0  0  0  0  0
   -4.4990   -6.3745    1.0314 H   0  0  0  1  0  0  0  0  0  0  0  0
    3.9391   -0.7273    0.2714 H   0  0  0  1  0  0  0  0  0  0  0  0
    2.3843   -3.1377   -0.3371 H   0  0  0  1  0  0  0  0  0  0  0  0
    2.7165   -4.0768    1.7070 H   0  0  0  1  0  0  0  0  0  0  0  0
    3.2760   -2.5194    2.2689 H   0  0  0  1  0  0  0  0  0  0  0  0
    5.2857   -3.5759    2.5504 H   0  0  0  1  0  0  0  0  0  0  0  0
    4.8439   -4.8872    1.4827 H   0  0  0  1  0  0  0  0  0  0  0  0
    5.9312   -2.1760    0.7469 H   0  0  0  1  0  0  0  0  0  0  0  0
    4.4237   -4.0665   -1.1459 H   0  0  0  1  0  0  0  0  0  0  0  0
    4.7784   -2.3757   -1.4094 H   0  0  0  1  0  0  0  0  0  0  0  0
    6.5383   -4.9195   -0.0440 H   0  0  0  1  0  0  0  0  0  0  0  0
    7.4969   -3.9239    0.7626 H   0  0  0  1  0  0  0  0  0  0  0  0
  1  2  4  0  0  0  0
  1  6  4  0  0  0  0
  1 18  1  0  0  0  0
  2  3  4  0  0  0  0
  3  4  4  0  0  0  0
  3 25  1  0  0  0  0
  4  5  4  0  0  0  0
  4  7  4  0  0  0  0
  5  6  4  0  0  0  0
  5  9  4  0  0  0  0
  7  8  4  0  0  0  0
  7 26  1  0  0  0  0
  8  9  4  0  0  0  0
  9 10  1  0  0  0  0
 10 11  4  0  0  0  0
 10 15  4  0  0  0  0
 11 12  4  0  0  0  0
 11 27  1  0  0  0  0
 12 13  4  0  0  0  0
 12 28  1  0  0  0  0
 13 14  4  0  0  0  0
 13 16  1  0  0  0  0
 14 15  4  0  0  0  0
 14 29  1  0  0  0  0
 15 30  1  0  0  0  0
 16 17  1  0  0  0  0
 17 31  1  0  0  0  0
 17 32  1  0  0  0  0
 17 33  1  0  0  0  0
 18 19  1  0  0  0  0
 18 34  1  0  0  0  0
 19 20  1  0  0  0  0
 19 23  1  0  0  0  0
 19 35  1  0  0  0  0
 20 21  1  0  0  0  0
 20 36  1  0  0  0  0
 20 37  1  0  0  0  0
 21 22  1  0  0  0  0
 21 38  1  0  0  0  0
 21 39  1  0  0  0  0
 22 23  1  0  0  0  0
 22 24  1  0  0  0  0
 22 40  1  0  0  0  0
 23 41  1  0  0  0  0
 23 42  1  0  0  0  0
 24 43  1  0  0  0  0
 24 44  1  0  0  0  0
M  END
> <ConfClashScore>
0 

> <ConfOneFourInteractionScore>
-0.984337 

> <ConfScore>
-0.112554 

> <ConfScorePBest>
0.005046 

> <ConfTolerance>
0.277843 

$$$$
c22.sdf
 OpenBabel04162418103D

 44 47  0  0  0  0  0  0  0  0999 V2000
    1.9452   -0.6102    0.1256 C   0  0  0  1  0  0  0  0  0  0  0  0
    2.0363    0.7233    0.1481 N   0  0  0  1  0  0  0  0  0  0  0  0
    0.8946    1.4376    0.0881 C   0  0  0  1  0  0  0  0  0  0  0  0
   -0.3452    0.7386    0.0096 C   0  0  0  1  0  0  0  0  0  0  0  0
   -0.2528   -0.6477    0.0020 C   0  0  0  1  0  0  0  0  0  0  0  0
    0.8780   -1.3913    0.0539 N   0  0  0  1  0  0  0  0  0  0  0  0
   -1.7303    0.9921   -0.0538 C   0  0  0  1  0  0  0  0  0  0  0  0
   -2.4281   -0.1192   -0.1028 N   0  0  0  1  0  0  0  0  0  0  0  0
   -1.5125   -1.1341   -0.0681 N   0  0  0  1  0  0  0  0  0  0  0  0
   -1.8370   -2.4986   -0.1009 C   0  0  0  1  0  0  0  0  0  0  0  0
   -2.9724   -3.0485    0.4635 C   0  0  0  1  0  0  0  0  0  0  0  0
   -3.2018   -4.4124    0.3698 C   0  0  0  1  0  0  0  0  0  0  0  0
   -2.2925   -5.2231   -0.2830 C   0  0  0  1  0  0  0  0  0  0  0  0
   -1.1537   -4.6714   -0.8489 C   0  0  0  1  0  0  0  0  0  0  0  0
   -0.9249   -3.3114   -0.7557 C   0  0  0  1  0  0  0  0  0  0  0  0
   -2.4982   -6.5613   -0.2569 O   0  0  0  1  0  0  0  0  0  0  0  0
   -3.5439   -7.0479    0.5989 C   0  0  0  1  0  0  0  0  0  0  0  0
    3.1380   -1.2696    0.1856 N   0  0  0  1  0  0  0  0  0  0  0  0
    3.2121   -2.7301    0.1391 C   0  0  0  1  0  0  0  0  0  0  0  0
    3.3119   -3.3025    1.5579 C   0  0  0  1  0  0  0  0  0  0  0  0
    4.6979   -3.9295    1.6441 C   0  0  0  1  0  0  0  0  0  0  0  0
    5.0171   -4.3668    0.2086 C   0  0  0  1  0  0  0  0  0  0  0  0
    4.4874   -3.1754   -0.5940 C   0  0  0  1  0  0  0  0  0  0  0  0
    4.2991   -5.6341   -0.1517 N   0  0  0  1  0  0  0  0  0  0  0  0
    0.9179    2.4773    0.0988 H   0  0  0  1  0  0  0  0  0  0  0  0
   -2.1490    1.9441   -0.0607 H   0  0  0  1  0  0  0  0  0  0  0  0
   -3.6547   -2.4392    0.9582 H   0  0  0  1  0  0  0  0  0  0  0  0
   -4.0583   -4.8256    0.7910 H   0  0  0  1  0  0  0  0  0  0  0  0
   -0.4715   -5.2807   -1.3437 H   0  0  0  1  0  0  0  0  0  0  0  0
   -0.0685   -2.8982   -1.1768 H   0  0  0  1  0  0  0  0  0  0  0  0
   -3.3540   -6.7394    1.6058 H   0  0  0  1  0  0  0  0  0  0  0  0
   -3.5735   -8.1165    0.5532 H   0  0  0  1  0  0  0  0  0  0  0  0
   -4.4831   -6.6504    0.2754 H   0  0  0  1  0  0  0  0  0  0  0  0
    3.9664   -0.7517    0.2622 H   0  0  0  1  0  0  0  0  0  0  0  0
    2.3459   -3.1162   -0.3563 H   0  0  0  1  0  0  0  0  0  0  0  0
    3.2077   -2.5234    2.2839 H   0  0  0  1  0  0  0  0  0  0  0  0
    2.5557   -4.0425    1.7170 H   0  0  0  1  0  0  0  0  0  0  0  0
    4.6900   -4.7730    2.3025 H   0  0  0  1  0  0  0  0  0  0  0  0
    5.4148   -3.2140    1.9889 H   0  0  0  1  0  0  0  0  0  0  0  0
    6.0691   -4.4990    0.0647 H   0  0  0  1  0  0  0  0  0  0  0  0
    5.2071   -2.3836   -0.6091 H   0  0  0  1  0  0  0  0  0  0  0  0
    4.2598   -3.4704   -1.5970 H   0  0  0  1  0  0  0  0  0  0  0  0
    3.3316   -5.4912   -0.0887 H   0  0  0  1  0  0  0  0  0  0  0  0
    4.5646   -6.3468    0.4663 H   0  0  0  1  0  0  0  0  0  0  0  0
  1  2  4  0  0  0  0
  1  6  4  0  0  0  0
  1 18  1  0  0  0  0
  2  3  4  0  0  0  0
  3  4  4  0  0  0  0
  3 25  1  0  0  0  0
  4  5  4  0  0  0  0
  4  7  4  0  0  0  0
  5  6  4  0  0  0  0
  5  9  4  0  0  0  0
  7  8  4  0  0  0  0
  7 26  1  0  0  0  0
  8  9  4  0  0  0  0
  9 10  1  0  0  0  0
 10 11  4  0  0  0  0
 10 15  4  0  0  0  0
 11 12  4  0  0  0  0
 11 27  1  0  0  0  0
 12 13  4  0  0  0  0
 12 28  1  0  0  0  0
 13 14  4  0  0  0  0
 13 16  1  0  0  0  0
 14 15  4  0  0  0  0
 14 29  1  0  0  0  0
 15 30  1  0  0  0  0
 16 17  1  0  0  0  0
 17 31  1  0  0  0  0
 17 32  1  0  0  0  0
 17 33  1  0  0  0  0
 18 19  1  0  0  0  0
 18 34  1  0  0  0  0
 19 20  1  0  0  0  0
 19 23  1  0  0  0  0
 19 35  1  0  0  0  0
 20 21  1  0  0  0  0
 20 36  1  0  0  0  0
 20 37  1  0  0  0  0
 21 22  1  0  0  0  0
 21 38  1  0  0  0  0
 21 39  1  0  0  0  0
 22 23  1  0  0  0  0
 22 24  1  0  0  0  0
 22 40  1  0  0  0  0
 23 41  1  0  0  0  0
 23 42  1  0  0  0  0
 24 43  1  0  0  0  0
 24 44  1  0  0  0  0
M  END
> <ConfClashScore>
0 

> <ConfOneFourInteractionScore>
-0.984337 

> <ConfScore>
-0.112554 

> <ConfScorePBest>
0.00503268 

> <ConfTolerance>
0.253686 

$$$$
c22.sdf
 OpenBabel04162418103D

 44 47  0  0  0  0  0  0  0  0999 V2000
    1.9452   -0.6103    0.1255 C   0  0  0  1  0  0  0  0  0  0  0  0
    2.0362    0.7233    0.1481 N   0  0  0  1  0  0  0  0  0  0  0  0
    0.8945    1.4375    0.0881 C   0  0  0  1  0  0  0  0  0  0  0  0
   -0.3452    0.7386    0.0096 C   0  0  0  1  0  0  0  0  0  0  0  0
   -0.2528   -0.6478    0.0020 C   0  0  0  1  0  0  0  0  0  0  0  0
    0.8779   -1.3913    0.0539 N   0  0  0  1  0  0  0  0  0  0  0  0
   -1.7303    0.9921   -0.0538 C   0  0  0  1  0  0  0  0  0  0  0  0
   -2.4282   -0.1191   -0.1028 N   0  0  0  1  0  0  0  0  0  0  0  0
   -1.5125   -1.1341   -0.0681 N   0  0  0  1  0  0  0  0  0  0  0  0
   -1.8386   -2.5052   -0.1010 C   0  0  0  1  0  0  0  0  0  0  0  0
   -1.4566   -3.3810    0.8976 C   0  0  0  1  0  0  0  0  0  0  0  0
   -1.8089   -4.7193    0.8176 C   0  0  0  1  0  0  0  0  0  0  0  0
   -2.5375   -5.1788   -0.2631 C   0  0  0  1  0  0  0  0  0  0  0  0
   -2.9206   -4.3002   -1.2646 C   0  0  0  1  0  0  0  0  0  0  0  0
   -2.5693   -2.9658   -1.1851 C   0  0  0  1  0  0  0  0  0  0  0  0
   -2.8178   -6.5034   -0.2349 O   0  0  0  1  0  0  0  0  0  0  0  0
   -3.5696   -7.0387   -1.3352 C   0  0  0  1  0  0  0  0  0  0  0  0
    3.1212   -1.2605    0.1849 N   0  0  0  1  0  0  0  0  0  0  0  0
    3.2460   -2.7178    0.2391 C   0  0  0  1  0  0  0  0  0  0  0  0
    4.5080   -3.1451    0.9999 C   0  0  0  1  0  0  0  0  0  0  0  0
    5.6469   -2.9294    0.0112 C   0  0  0  1  0  0  0  0  0  0  0  0
    5.0248   -3.1297   -1.3757 C   0  0  0  1  0  0  0  0  0  0  0  0
    3.5156   -3.3089   -1.1473 C   0  0  0  1  0  0  0  0  0  0  0  0
    5.5834   -4.3157   -2.0133 N   0  0  0  1  0  0  0  0  0  0  0  0
    0.9179    2.4772    0.0988 H   0  0  0  1  0  0  0  0  0  0  0  0
   -2.1490    1.9441   -0.0608 H   0  0  0  1  0  0  0  0  0  0  0  0
   -0.9049   -3.0360    1.7089 H   0  0  0  1  0  0  0  0  0  0  0  0
   -1.5248   -5.3775    1.5710 H   0  0  0  1  0  0  0  0  0  0  0  0
   -3.4723   -4.6451   -2.0760 H   0  0  0  1  0  0  0  0  0  0  0  0
   -2.8533   -2.3074   -1.9384 H   0  0  0  1  0  0  0  0  0  0  0  0
   -2.9886   -6.9711   -2.2313 H   0  0  0  1  0  0  0  0  0  0  0  0
   -4.4743   -6.4800   -1.4541 H   0  0  0  1  0  0  0  0  0  0  0  0
   -3.8059   -8.0639   -1.1402 H   0  0  0  1  0  0  0  0  0  0  0  0
    3.9432   -0.7269    0.1921 H   0  0  0  1  0  0  0  0  0  0  0  0
    2.3641   -3.1358    0.6780 H   0  0  0  1  0  0  0  0  0  0  0  0
    4.6457   -2.5403    1.8718 H   0  0  0  1  0  0  0  0  0  0  0  0
    4.4460   -4.1745    1.2854 H   0  0  0  1  0  0  0  0  0  0  0  0
    6.0415   -1.9392    0.1049 H   0  0  0  1  0  0  0  0  0  0  0  0
    6.4273   -3.6422    0.1779 H   0  0  0  1  0  0  0  0  0  0  0  0
    5.2076   -2.2737   -1.9911 H   0  0  0  1  0  0  0  0  0  0  0  0
    3.2533   -4.3460   -1.1703 H   0  0  0  1  0  0  0  0  0  0  0  0
    2.9583   -2.7829   -1.8940 H   0  0  0  1  0  0  0  0  0  0  0  0
    5.3496   -5.1098   -1.4888 H   0  0  0  1  0  0  0  0  0  0  0  0
    6.5586   -4.2317   -2.0612 H   0  0  0  1  0  0  0  0  0  0  0  0
  1  2  4  0  0  0  0
  1  6  4  0  0  0  0
  1 18  1  0  0  0  0
  2  3  4  0  0  0  0
  3  4  4  0  0  0  0
  3 25  1  0  0  0  0
  4  5  4  0  0  0  0
  4  7  4  0  0  0  0
  5  6  4  0  0  0  0
  5  9  4  0  0  0  0
  7  8  4  0  0  0  0
  7 26  1  0  0  0  0
  8  9  4  0  0  0  0
  9 10  1  0  0  0  0
 10 11  4  0  0  0  0
 10 15  4  0  0  0  0
 11 12  4  0  0  0  0
 11 27  1  0  0  0  0
 12 13  4  0  0  0  0
 12 28  1  0  0  0  0
 13 14  4  0  0  0  0
 13 16  1  0  0  0  0
 14 15  4  0  0  0  0
 14 29  1  0  0  0  0
 15 30  1  0  0  0  0
 16 17  1  0  0  0  0
 17 31  1  0  0  0  0
 17 32  1  0  0  0  0
 17 33  1  0  0  0  0
 18 19  1  0  0  0  0
 18 34  1  0  0  0  0
 19 20  1  0  0  0  0
 19 23  1  0  0  0  0
 19 35  1  0  0  0  0
 20 21  1  0  0  0  0
 20 36  1  0  0  0  0
 20 37  1  0  0  0  0
 21 22  1  0  0  0  0
 21 38  1  0  0  0  0
 21 39  1  0  0  0  0
 22 23  1  0  0  0  0
 22 24  1  0  0  0  0
 22 40  1  0  0  0  0
 23 41  1  0  0  0  0
 23 42  1  0  0  0  0
 24 43  1  0  0  0  0
 24 44  1  0  0  0  0
M  END
> <ConfClashScore>
0 

> <ConfOneFourInteractionScore>
-0.984337 

> <ConfScore>
-0.112076 

> <ConfScorePBest>
0.00501935 

> <ConfTolerance>
0.225319 

$$$$
c22.sdf
 OpenBabel04162418103D

 44 47  0  0  0  0  0  0  0  0999 V2000
    1.9452   -0.6102    0.1256 C   0  0  0  1  0  0  0  0  0  0  0  0
    2.0363    0.7233    0.1481 N   0  0  0  1  0  0  0  0  0  0  0  0
    0.8945    1.4376    0.0881 C   0  0  0  1  0  0  0  0  0  0  0  0
   -0.3453    0.7386    0.0096 C   0  0  0  1  0  0  0  0  0  0  0  0
   -0.2528   -0.6478    0.0020 C   0  0  0  1  0  0  0  0  0  0  0  0
    0.8779   -1.3912    0.0539 N   0  0  0  1  0  0  0  0  0  0  0  0
   -1.7303    0.9921   -0.0538 C   0  0  0  1  0  0  0  0  0  0  0  0
   -2.4282   -0.1191   -0.1028 N   0  0  0  1  0  0  0  0  0  0  0  0
   -1.5125   -1.1341   -0.0681 N   0  0  0  1  0  0  0  0  0  0  0  0
   -1.8421   -2.5202   -0.1014 C   0  0  0  1  0  0  0  0  0  0  0  0
   -2.7748   -2.9882   -1.0077 C   0  0  0  1  0  0  0  0  0  0  0  0
   -3.1592   -4.3197   -0.9813 C   0  0  0  1  0  0  0  0  0  0  0  0
   -2.6140   -5.1781   -0.0454 C   0  0  0  1  0  0  0  0  0  0  0  0
   -1.6786   -4.7087    0.8636 C   0  0  0  1  0  0  0  0  0  0  0  0
   -1.2951   -3.3810    0.8374 C   0  0  0  1  0  0  0  0  0  0  0  0
   -3.0667   -6.4453   -0.1122 O   0  0  0  1  0  0  0  0  0  0  0  0
   -2.5156   -7.3452    0.8772 C   0  0  0  1  0  0  0  0  0  0  0  0
    3.1380   -1.2696    0.1857 N   0  0  0  1  0  0  0  0  0  0  0  0
    3.2149   -2.7342    0.1061 C   0  0  0  1  0  0  0  0  0  0  0  0
    2.8841   -3.3663    1.4876 C   0  0  0  1  0  0  0  0  0  0  0  0
    4.1804   -4.0227    1.9942 C   0  0  0  1  0  0  0  0  0  0  0  0
    5.3227   -3.4066    1.1634 C   0  0  0  1  0  0  0  0  0  0  0  0
    4.6739   -3.1819   -0.2444 C   0  0  0  1  0  0  0  0  0  0  0  0
    6.4872   -4.3485    1.0724 N   0  0  0  1  0  0  0  0  0  0  0  0
    0.9179    2.4773    0.0988 H   0  0  0  1  0  0  0  0  0  0  0  0
   -2.1490    1.9440   -0.0608 H   0  0  0  1  0  0  0  0  0  0  0  0
   -3.1881   -2.3414   -1.7094 H   0  0  0  1  0  0  0  0  0  0  0  0
   -3.8580   -4.6727   -1.6658 H   0  0  0  1  0  0  0  0  0  0  0  0
   -1.2652   -5.3555    1.5653 H   0  0  0  1  0  0  0  0  0  0  0  0
   -0.5963   -3.0279    1.5219 H   0  0  0  1  0  0  0  0  0  0  0  0
   -1.4711   -7.4843    0.6911 H   0  0  0  1  0  0  0  0  0  0  0  0
   -3.0168   -8.2887    0.8191 H   0  0  0  1  0  0  0  0  0  0  0  0
   -2.6513   -6.9281    1.8532 H   0  0  0  1  0  0  0  0  0  0  0  0
    3.9646   -0.7528    0.2846 H   0  0  0  1  0  0  0  0  0  0  0  0
    2.5305   -3.0880   -0.6363 H   0  0  0  1  0  0  0  0  0  0  0  0
    2.5622   -2.6093    2.1720 H   0  0  0  1  0  0  0  0  0  0  0  0
    2.1148   -4.1024    1.3816 H   0  0  0  1  0  0  0  0  0  0  0  0
    4.1429   -5.0818    1.8460 H   0  0  0  1  0  0  0  0  0  0  0  0
    4.3218   -3.8122    3.0336 H   0  0  0  1  0  0  0  0  0  0  0  0
    5.6460   -2.4789    1.5874 H   0  0  0  1  0  0  0  0  0  0  0  0
    4.6715   -4.0869   -0.8152 H   0  0  0  1  0  0  0  0  0  0  0  0
    5.1900   -2.4182   -0.7879 H   0  0  0  1  0  0  0  0  0  0  0  0
    6.1924   -5.1960    0.6782 H   0  0  0  1  0  0  0  0  0  0  0  0
    6.8450   -4.5129    1.9698 H   0  0  0  1  0  0  0  0  0  0  0  0
  1  2  4  0  0  0  0
  1  6  4  0  0  0  0
  1 18  1  0  0  0  0
  2  3  4  0  0  0  0
  3  4  4  0  0  0  0
  3 25  1  0  0  0  0
  4  5  4  0  0  0  0
  4  7  4  0  0  0  0
  5  6  4  0  0  0  0
  5  9  4  0  0  0  0
  7  8  4  0  0  0  0
  7 26  1  0  0  0  0
  8  9  4  0  0  0  0
  9 10  1  0  0  0  0
 10 11  4  0  0  0  0
 10 15  4  0  0  0  0
 11 12  4  0  0  0  0
 11 27  1  0  0  0  0
 12 13  4  0  0  0  0
 12 28  1  0  0  0  0
 13 14  4  0  0  0  0
 13 16  1  0  0  0  0
 14 15  4  0  0  0  0
 14 29  1  0  0  0  0
 15 30  1  0  0  0  0
 16 17  1  0  0  0  0
 17 31  1  0  0  0  0
 17 32  1  0  0  0  0
 17 33  1  0  0  0  0
 18 19  1  0  0  0  0
 18 34  1  0  0  0  0
 19 20  1  0  0  0  0
 19 23  1  0  0  0  0
 19 35  1  0  0  0  0
 20 21  1  0  0  0  0
 20 36  1  0  0  0  0
 20 37  1  0  0  0  0
 21 22  1  0  0  0  0
 21 38  1  0  0  0  0
 21 39  1  0  0  0  0
 22 23  1  0  0  0  0
 22 24  1  0  0  0  0
 22 40  1  0  0  0  0
 23 41  1  0  0  0  0
 23 42  1  0  0  0  0
 24 43  1  0  0  0  0
 24 44  1  0  0  0  0
M  END
> <ConfClashScore>
0 

> <ConfOneFourInteractionScore>
-0.984337 

> <ConfScore>
-0.111618 

> <ConfScorePBest>
0.00500602 

> <ConfTolerance>
0.251875 

$$$$
c22.sdf
 OpenBabel04162418103D

 44 47  0  0  0  0  0  0  0  0999 V2000
    1.9452   -0.6102    0.1255 C   0  0  0  1  0  0  0  0  0  0  0  0
    2.0363    0.7233    0.1481 N   0  0  0  1  0  0  0  0  0  0  0  0
    0.8946    1.4375    0.0881 C   0  0  0  1  0  0  0  0  0  0  0  0
   -0.3453    0.7385    0.0096 C   0  0  0  1  0  0  0  0  0  0  0  0
   -0.2528   -0.6478    0.0020 C   0  0  0  1  0  0  0  0  0  0  0  0
    0.8780   -1.3912    0.0539 N   0  0  0  1  0  0  0  0  0  0  0  0
   -1.7304    0.9921   -0.0538 C   0  0  0  1  0  0  0  0  0  0  0  0
   -2.4282   -0.1192   -0.1028 N   0  0  0  1  0  0  0  0  0  0  0  0
   -1.5125   -1.1341   -0.0681 N   0  0  0  1  0  0  0  0  0  0  0  0
   -1.8396   -2.5099   -0.1010 C   0  0  0  1  0  0  0  0  0  0  0  0
   -3.0523   -2.9440    0.4000 C   0  0  0  1  0  0  0  0  0  0  0  0
   -3.3751   -4.2916    0.3628 C   0  0  0  1  0  0  0  0  0  0  0  0
   -2.4821   -5.2017   -0.1704 C   0  0  0  1  0  0  0  0  0  0  0  0
   -1.2657   -4.7662   -0.6730 C   0  0  0  1  0  0  0  0  0  0  0  0
   -0.9438   -3.4225   -0.6360 C   0  0  0  1  0  0  0  0  0  0  0  0
   -2.9038   -6.4883   -0.1479 O   0  0  0  1  0  0  0  0  0  0  0  0
   -2.0781   -7.4613   -0.8068 C   0  0  0  1  0  0  0  0  0  0  0  0
    3.1214   -1.2604    0.1849 N   0  0  0  1  0  0  0  0  0  0  0  0
    4.4525   -0.6517    0.1788 C   0  0  0  1  0  0  0  0  0  0  0  0
    5.4892   -1.6469   -0.3555 C   0  0  0  1  0  0  0  0  0  0  0  0
    6.3988   -1.9566    0.8270 C   0  0  0  1  0  0  0  0  0  0  0  0
    6.3691   -0.6847    1.6844 C   0  0  0  1  0  0  0  0  0  0  0  0
    4.8871   -0.3072    1.6121 C   0  0  0  1  0  0  0  0  0  0  0  0
    7.2384    0.3906    1.1015 N   0  0  0  1  0  0  0  0  0  0  0  0
    0.9178    2.4773    0.0988 H   0  0  0  1  0  0  0  0  0  0  0  0
   -2.1490    1.9440   -0.0608 H   0  0  0  1  0  0  0  0  0  0  0  0
   -3.7226   -2.2597    0.8050 H   0  0  0  1  0  0  0  0  0  0  0  0
   -4.2893   -4.6177    0.7362 H   0  0  0  1  0  0  0  0  0  0  0  0
   -0.5955   -5.4505   -1.0780 H   0  0  0  1  0  0  0  0  0  0  0  0
   -0.0297   -3.0963   -1.0094 H   0  0  0  1  0  0  0  0  0  0  0  0
   -2.5649   -8.4140   -0.7886 H   0  0  0  1  0  0  0  0  0  0  0  0
   -1.1378   -7.5318   -0.3011 H   0  0  0  1  0  0  0  0  0  0  0  0
   -1.9164   -7.1630   -1.8215 H   0  0  0  1  0  0  0  0  0  0  0  0
    3.0832   -2.2383    0.2374 H   0  0  0  1  0  0  0  0  0  0  0  0
    4.4391    0.2305   -0.4267 H   0  0  0  1  0  0  0  0  0  0  0  0
    6.0503   -1.2099   -1.1549 H   0  0  0  1  0  0  0  0  0  0  0  0
    5.0088   -2.5380   -0.7017 H   0  0  0  1  0  0  0  0  0  0  0  0
    7.3941   -2.1634    0.4932 H   0  0  0  1  0  0  0  0  0  0  0  0
    6.0264   -2.7933    1.3803 H   0  0  0  1  0  0  0  0  0  0  0  0
    6.6735   -0.8838    2.6906 H   0  0  0  1  0  0  0  0  0  0  0  0
    4.7564    0.7376    1.8027 H   0  0  0  1  0  0  0  0  0  0  0  0
    4.3208   -0.8733    2.3219 H   0  0  0  1  0  0  0  0  0  0  0  0
    7.0495    1.2421    1.5484 H   0  0  0  1  0  0  0  0  0  0  0  0
    7.0527    0.4767    0.1430 H   0  0  0  1  0  0  0  0  0  0  0  0
  1  2  4  0  0  0  0
  1  6  4  0  0  0  0
  1 18  1  0  0  0  0
  2  3  4  0  0  0  0
  3  4  4  0  0  0  0
  3 25  1  0  0  0  0
  4  5  4  0  0  0  0
  4  7  4  0  0  0  0
  5  6  4  0  0  0  0
  5  9  4  0  0  0  0
  7  8  4  0  0  0  0
  7 26  1  0  0  0  0
  8  9  4  0  0  0  0
  9 10  1  0  0  0  0
 10 11  4  0  0  0  0
 10 15  4  0  0  0  0
 11 12  4  0  0  0  0
 11 27  1  0  0  0  0
 12 13  4  0  0  0  0
 12 28  1  0  0  0  0
 13 14  4  0  0  0  0
 13 16  1  0  0  0  0
 14 15  4  0  0  0  0
 14 29  1  0  0  0  0
 15 30  1  0  0  0  0
 16 17  1  0  0  0  0
 17 31  1  0  0  0  0
 17 32  1  0  0  0  0
 17 33  1  0  0  0  0
 18 19  1  0  0  0  0
 18 34  1  0  0  0  0
 19 20  1  0  0  0  0
 19 23  1  0  0  0  0
 19 35  1  0  0  0  0
 20 21  1  0  0  0  0
 20 36  1  0  0  0  0
 20 37  1  0  0  0  0
 21 22  1  0  0  0  0
 21 38  1  0  0  0  0
 21 39  1  0  0  0  0
 22 23  1  0  0  0  0
 22 24  1  0  0  0  0
 22 40  1  0  0  0  0
 23 41  1  0  0  0  0
 23 42  1  0  0  0  0
 24 43  1  0  0  0  0
 24 44  1  0  0  0  0
M  END
> <ConfClashScore>
0 

> <ConfOneFourInteractionScore>
-0.984337 

> <ConfScore>
-0.110422 

> <ConfScorePBest>
0.00499269 

> <ConfTolerance>
0.244502 

$$$$
c22.sdf
 OpenBabel04162418103D

 44 47  0  0  0  0  0  0  0  0999 V2000
    1.9452   -0.6102    0.1257 C   0  0  0  1  0  0  0  0  0  0  0  0
    2.0363    0.7233    0.1482 N   0  0  0  1  0  0  0  0  0  0  0  0
    0.8946    1.4376    0.0881 C   0  0  0  1  0  0  0  0  0  0  0  0
   -0.3452    0.7386    0.0096 C   0  0  0  1  0  0  0  0  0  0  0  0
   -0.2529   -0.6477    0.0020 C   0  0  0  1  0  0  0  0  0  0  0  0
    0.8779   -1.3913    0.0540 N   0  0  0  1  0  0  0  0  0  0  0  0
   -1.7304    0.9921   -0.0538 C   0  0  0  1  0  0  0  0  0  0  0  0
   -2.4281   -0.1191   -0.1028 N   0  0  0  1  0  0  0  0  0  0  0  0
   -1.5126   -1.1342   -0.0681 N   0  0  0  1  0  0  0  0  0  0  0  0
   -1.8397   -2.5098   -0.1010 C   0  0  0  1  0  0  0  0  0  0  0  0
   -0.9723   -3.4125   -0.6868 C   0  0  0  1  0  0  0  0  0  0  0  0
   -1.2904   -4.7613   -0.7143 C   0  0  0  1  0  0  0  0  0  0  0  0
   -2.4774   -5.2031   -0.1609 C   0  0  0  1  0  0  0  0  0  0  0  0
   -3.3473   -4.2976    0.4265 C   0  0  0  1  0  0  0  0  0  0  0  0
   -3.0302   -2.9526    0.4540 C   0  0  0  1  0  0  0  0  0  0  0  0
   -2.8965   -6.4904   -0.1328 O   0  0  0  1  0  0  0  0  0  0  0  0
   -1.9802   -7.4893   -0.6074 C   0  0  0  1  0  0  0  0  0  0  0  0
    3.1380   -1.2696    0.1859 N   0  0  0  1  0  0  0  0  0  0  0  0
    3.2061   -2.7323    0.3005 C   0  0  0  1  0  0  0  0  0  0  0  0
    4.4144   -3.1661    1.1190 C   0  0  0  1  0  0  0  0  0  0  0  0
    4.7335   -4.5933    0.6952 C   0  0  0  1  0  0  0  0  0  0  0  0
    4.0470   -4.7953   -0.6572 C   0  0  0  1  0  0  0  0  0  0  0  0
    3.4934   -3.4013   -1.0955 C   0  0  0  1  0  0  0  0  0  0  0  0
    2.9352   -5.7670   -0.5249 N   0  0  0  1  0  0  0  0  0  0  0  0
    0.9179    2.4772    0.0988 H   0  0  0  1  0  0  0  0  0  0  0  0
   -2.1489    1.9441   -0.0609 H   0  0  0  1  0  0  0  0  0  0  0  0
   -0.0809   -3.0797   -1.1068 H   0  0  0  1  0  0  0  0  0  0  0  0
   -0.6359   -5.4412   -1.1514 H   0  0  0  1  0  0  0  0  0  0  0  0
   -4.2387   -4.6304    0.8465 H   0  0  0  1  0  0  0  0  0  0  0  0
   -3.6847   -2.2728    0.8912 H   0  0  0  1  0  0  0  0  0  0  0  0
   -2.3249   -8.4587   -0.3135 H   0  0  0  1  0  0  0  0  0  0  0  0
   -1.0119   -7.3129   -0.1876 H   0  0  0  1  0  0  0  0  0  0  0  0
   -1.9210   -7.4405   -1.6747 H   0  0  0  1  0  0  0  0  0  0  0  0
    3.9707   -0.7541    0.1519 H   0  0  0  1  0  0  0  0  0  0  0  0
    2.2963   -3.0999    0.7270 H   0  0  0  1  0  0  0  0  0  0  0  0
    4.1843   -3.1335    2.1634 H   0  0  0  1  0  0  0  0  0  0  0  0
    5.2473   -2.5256    0.9166 H   0  0  0  1  0  0  0  0  0  0  0  0
    5.7911   -4.7247    0.5984 H   0  0  0  1  0  0  0  0  0  0  0  0
    4.3515   -5.2885    1.4134 H   0  0  0  1  0  0  0  0  0  0  0  0
    4.7516   -5.1548   -1.3778 H   0  0  0  1  0  0  0  0  0  0  0  0
    2.5990   -3.4994   -1.6745 H   0  0  0  1  0  0  0  0  0  0  0  0
    4.2207   -2.8486   -1.6527 H   0  0  0  1  0  0  0  0  0  0  0  0
    2.5990   -6.0026   -1.4147 H   0  0  0  1  0  0  0  0  0  0  0  0
    2.2124   -5.3662    0.0017 H   0  0  0  1  0  0  0  0  0  0  0  0
  1  2  4  0  0  0  0
  1  6  4  0  0  0  0
  1 18  1  0  0  0  0
  2  3  4  0  0  0  0
  3  4  4  0  0  0  0
  3 25  1  0  0  0  0
  4  5  4  0  0  0  0
  4  7  4  0  0  0  0
  5  6  4  0  0  0  0
  5  9  4  0  0  0  0
  7  8  4  0  0  0  0
  7 26  1  0  0  0  0
  8  9  4  0  0  0  0
  9 10  1  0  0  0  0
 10 11  4  0  0  0  0
 10 15  4  0  0  0  0
 11 12  4  0  0  0  0
 11 27  1  0  0  0  0
 12 13  4  0  0  0  0
 12 28  1  0  0  0  0
 13 14  4  0  0  0  0
 13 16  1  0  0  0  0
 14 15  4  0  0  0  0
 14 29  1  0  0  0  0
 15 30  1  0  0  0  0
 16 17  1  0  0  0  0
 17 31  1  0  0  0  0
 17 32  1  0  0  0  0
 17 33  1  0  0  0  0
 18 19  1  0  0  0  0
 18 34  1  0  0  0  0
 19 20  1  0  0  0  0
 19 23  1  0  0  0  0
 19 35  1  0  0  0  0
 20 21  1  0  0  0  0
 20 36  1  0  0  0  0
 20 37  1  0  0  0  0
 21 22  1  0  0  0  0
 21 38  1  0  0  0  0
 21 39  1  0  0  0  0
 22 23  1  0  0  0  0
 22 24  1  0  0  0  0
 22 40  1  0  0  0  0
 23 41  1  0  0  0  0
 23 42  1  0  0  0  0
 24 43  1  0  0  0  0
 24 44  1  0  0  0  0
M  END
> <ConfClashScore>
0 

> <ConfOneFourInteractionScore>
-0.984337 

> <ConfScore>
-0.110422 

> <ConfScorePBest>
0.00497936 

> <ConfTolerance>
0.281738 

$$$$
c22.sdf
 OpenBabel04162418103D

 44 47  0  0  0  0  0  0  0  0999 V2000
    1.9453   -0.6102    0.1256 C   0  0  0  1  0  0  0  0  0  0  0  0
    2.0362    0.7233    0.1482 N   0  0  0  1  0  0  0  0  0  0  0  0
    0.8946    1.4376    0.0881 C   0  0  0  1  0  0  0  0  0  0  0  0
   -0.3452    0.7386    0.0096 C   0  0  0  1  0  0  0  0  0  0  0  0
   -0.2529   -0.6477    0.0020 C   0  0  0  1  0  0  0  0  0  0  0  0
    0.8780   -1.3913    0.0539 N   0  0  0  1  0  0  0  0  0  0  0  0
   -1.7303    0.9921   -0.0538 C   0  0  0  1  0  0  0  0  0  0  0  0
   -2.4281   -0.1192   -0.1028 N   0  0  0  1  0  0  0  0  0  0  0  0
   -1.5125   -1.1341   -0.0681 N   0  0  0  1  0  0  0  0  0  0  0  0
   -1.8419   -2.5193   -0.1013 C   0  0  0  1  0  0  0  0  0  0  0  0
   -1.0052   -3.4132   -0.7424 C   0  0  0  1  0  0  0  0  0  0  0  0
   -1.3231   -4.7621   -0.7701 C   0  0  0  1  0  0  0  0  0  0  0  0
   -2.4794   -5.2125   -0.1613 C   0  0  0  1  0  0  0  0  0  0  0  0
   -3.3184   -4.3157    0.4817 C   0  0  0  1  0  0  0  0  0  0  0  0
   -3.0015   -2.9707    0.5094 C   0  0  0  1  0  0  0  0  0  0  0  0
   -2.8931   -6.4941   -0.1277 O   0  0  0  1  0  0  0  0  0  0  0  0
   -2.0689   -7.4230   -0.8696 C   0  0  0  1  0  0  0  0  0  0  0  0
    3.1213   -1.2604    0.1849 N   0  0  0  1  0  0  0  0  0  0  0  0
    4.4216   -0.5906    0.2613 C   0  0  0  1  0  0  0  0  0  0  0  0
    5.5551   -1.5659   -0.1647 C   0  0  0  1  0  0  0  0  0  0  0  0
    6.4021   -1.8334    1.0919 C   0  0  0  1  0  0  0  0  0  0  0  0
    5.5351   -1.4010    2.2901 C   0  0  0  1  0  0  0  0  0  0  0  0
    4.7311   -0.1749    1.7389 C   0  0  0  1  0  0  0  0  0  0  0  0
    6.3893   -1.0012    3.4503 N   0  0  0  1  0  0  0  0  0  0  0  0
    0.9178    2.4772    0.0988 H   0  0  0  1  0  0  0  0  0  0  0  0
   -2.1490    1.9441   -0.0607 H   0  0  0  1  0  0  0  0  0  0  0  0
   -0.1372   -3.0738   -1.2039 H   0  0  0  1  0  0  0  0  0  0  0  0
   -0.6915   -5.4354   -1.2490 H   0  0  0  1  0  0  0  0  0  0  0  0
   -4.1864   -4.6550    0.9432 H   0  0  0  1  0  0  0  0  0  0  0  0
   -3.6331   -2.2974    0.9883 H   0  0  0  1  0  0  0  0  0  0  0  0
   -1.0825   -7.4352   -0.4552 H   0  0  0  1  0  0  0  0  0  0  0  0
   -2.0214   -7.1177   -1.8939 H   0  0  0  1  0  0  0  0  0  0  0  0
   -2.4934   -8.4034   -0.8085 H   0  0  0  1  0  0  0  0  0  0  0  0
    3.1073   -2.2403    0.1766 H   0  0  0  1  0  0  0  0  0  0  0  0
    4.4172    0.2713   -0.3727 H   0  0  0  1  0  0  0  0  0  0  0  0
    6.1580   -1.1198   -0.9278 H   0  0  0  1  0  0  0  0  0  0  0  0
    5.1367   -2.4808   -0.5291 H   0  0  0  1  0  0  0  0  0  0  0  0
    7.3049   -1.2599    1.0604 H   0  0  0  1  0  0  0  0  0  0  0  0
    6.6423   -2.8737    1.1635 H   0  0  0  1  0  0  0  0  0  0  0  0
    4.8746   -2.1884    2.5875 H   0  0  0  1  0  0  0  0  0  0  0  0
    3.8282   -0.0268    2.2935 H   0  0  0  1  0  0  0  0  0  0  0  0
    5.3208    0.7173    1.7715 H   0  0  0  1  0  0  0  0  0  0  0  0
    5.8452   -0.5160    4.1052 H   0  0  0  1  0  0  0  0  0  0  0  0
    7.1158   -0.4228    3.1369 H   0  0  0  1  0  0  0  0  0  0  0  0
  1  2  4  0  0  0  0
  1  6  4  0  0  0  0
  1 18  1  0  0  0  0
  2  3  4  0  0  0  0
  3  4  4  0  0  0  0
  3 25  1  0  0  0  0
  4  5  4  0  0  0  0
  4  7  4  0  0  0  0
  5  6  4  0  0  0  0
  5  9  4  0  0  0  0
  7  8  4  0  0  0  0
  7 26  1  0  0  0  0
  8  9  4  0  0  0  0
  9 10  1  0  0  0  0
 10 11  4  0  0  0  0
 10 15  4  0  0  0  0
 11 12  4  0  0  0  0
 11 27  1  0  0  0  0
 12 13  4  0  0  0  0
 12 28  1  0  0  0  0
 13 14  4  0  0  0  0
 13 16  1  0  0  0  0
 14 15  4  0  0  0  0
 14 29  1  0  0  0  0
 15 30  1  0  0  0  0
 16 17  1  0  0  0  0
 17 31  1  0  0  0  0
 17 32  1  0  0  0  0
 17 33  1  0  0  0  0
 18 19  1  0  0  0  0
 18 34  1  0  0  0  0
 19 20  1  0  0  0  0
 19 23  1  0  0  0  0
 19 35  1  0  0  0  0
 20 21  1  0  0  0  0
 20 36  1  0  0  0  0
 20 37  1  0  0  0  0
 21 22  1  0  0  0  0
 21 38  1  0  0  0  0
 21 39  1  0  0  0  0
 22 23  1  0  0  0  0
 22 24  1  0  0  0  0
 22 40  1  0  0  0  0
 23 41  1  0  0  0  0
 23 42  1  0  0  0  0
 24 43  1  0  0  0  0
 24 44  1  0  0  0  0
M  END
> <ConfClashScore>
0 

> <ConfOneFourInteractionScore>
-0.984337 

> <ConfScore>
-0.110422 

> <ConfScorePBest>
0.00496604 

> <ConfTolerance>
0.199168 

$$$$
c22.sdf
 OpenBabel04162418103D

 44 47  0  0  0  0  0  0  0  0999 V2000
    1.9452   -0.6102    0.1256 C   0  0  0  1  0  0  0  0  0  0  0  0
    2.0363    0.7233    0.1482 N   0  0  0  1  0  0  0  0  0  0  0  0
    0.8946    1.4376    0.0881 C   0  0  0  1  0  0  0  0  0  0  0  0
   -0.3452    0.7386    0.0097 C   0  0  0  1  0  0  0  0  0  0  0  0
   -0.2528   -0.6478    0.0020 C   0  0  0  1  0  0  0  0  0  0  0  0
    0.8779   -1.3913    0.0540 N   0  0  0  1  0  0  0  0  0  0  0  0
   -1.7304    0.9921   -0.0538 C   0  0  0  1  0  0  0  0  0  0  0  0
   -2.4281   -0.1191   -0.1029 N   0  0  0  1  0  0  0  0  0  0  0  0
   -1.5125   -1.1342   -0.0681 N   0  0  0  1  0  0  0  0  0  0  0  0
   -1.8419   -2.5192   -0.1014 C   0  0  0  1  0  0  0  0  0  0  0  0
   -2.5664   -3.0822    0.9323 C   0  0  0  1  0  0  0  0  0  0  0  0
   -2.8915   -4.4293    0.8972 C   0  0  0  1  0  0  0  0  0  0  0  0
   -2.4867   -5.2106   -0.1685 C   0  0  0  1  0  0  0  0  0  0  0  0
   -1.7600   -4.6458   -1.2052 C   0  0  0  1  0  0  0  0  0  0  0  0
   -1.4358   -3.3027   -1.1705 C   0  0  0  1  0  0  0  0  0  0  0  0
   -2.8576   -6.5106   -0.0904 O   0  0  0  1  0  0  0  0  0  0  0  0
   -2.4973   -7.3630   -1.1887 C   0  0  0  1  0  0  0  0  0  0  0  0
    3.1148   -1.2568    0.1847 N   0  0  0  1  0  0  0  0  0  0  0  0
    3.3088   -2.7102    0.1584 C   0  0  0  1  0  0  0  0  0  0  0  0
    3.2375   -3.3005    1.5800 C   0  0  0  1  0  0  0  0  0  0  0  0
    4.0808   -4.5872    1.5491 C   0  0  0  1  0  0  0  0  0  0  0  0
    4.9790   -4.5012    0.2829 C   0  0  0  1  0  0  0  0  0  0  0  0
    4.7563   -3.0725   -0.3181 C   0  0  0  1  0  0  0  0  0  0  0  0
    4.5795   -5.5456   -0.7057 N   0  0  0  1  0  0  0  0  0  0  0  0
    0.9179    2.4772    0.0988 H   0  0  0  1  0  0  0  0  0  0  0  0
   -2.1490    1.9441   -0.0608 H   0  0  0  1  0  0  0  0  0  0  0  0
   -2.8676   -2.4952    1.7362 H   0  0  0  1  0  0  0  0  0  0  0  0
   -3.4401   -4.8520    1.6731 H   0  0  0  1  0  0  0  0  0  0  0  0
   -1.4589   -5.2328   -2.0091 H   0  0  0  1  0  0  0  0  0  0  0  0
   -0.8872   -2.8798   -1.9462 H   0  0  0  1  0  0  0  0  0  0  0  0
   -2.8437   -6.9313   -2.1044 H   0  0  0  1  0  0  0  0  0  0  0  0
   -2.9466   -8.3249   -1.0556 H   0  0  0  1  0  0  0  0  0  0  0  0
   -1.4330   -7.4677   -1.2243 H   0  0  0  1  0  0  0  0  0  0  0  0
    3.9217   -0.7048    0.2521 H   0  0  0  1  0  0  0  0  0  0  0  0
    2.5740   -3.1572   -0.4781 H   0  0  0  1  0  0  0  0  0  0  0  0
    2.2239   -3.5266    1.8379 H   0  0  0  1  0  0  0  0  0  0  0  0
    3.6408   -2.6090    2.2900 H   0  0  0  1  0  0  0  0  0  0  0  0
    3.4433   -5.4447    1.4916 H   0  0  0  1  0  0  0  0  0  0  0  0
    4.6876   -4.6517    2.4281 H   0  0  0  1  0  0  0  0  0  0  0  0
    6.0069   -4.6351    0.5483 H   0  0  0  1  0  0  0  0  0  0  0  0
    4.8156   -3.0915   -1.3863 H   0  0  0  1  0  0  0  0  0  0  0  0
    5.4729   -2.3775    0.0671 H   0  0  0  1  0  0  0  0  0  0  0  0
    5.0678   -5.4064   -1.5439 H   0  0  0  1  0  0  0  0  0  0  0  0
    3.6162   -5.4836   -0.8748 H   0  0  0  1  0  0  0  0  0  0  0  0
  1  2  4  0  0  0  0
  1  6  4  0  0  0  0
  1 18  1  0  0  0  0
  2  3  4  0  0  0  0
  3  4  4  0  0  0  0
  3 25  1  0  0  0  0
  4  5  4  0  0  0  0
  4  7  4  0  0  0  0
  5  6  4  0  0  0  0
  5  9  4  0  0  0  0
  7  8  4  0  0  0  0
  7 26  1  0  0  0  0
  8  9  4  0  0  0  0
  9 10  1  0  0  0  0
 10 11  4  0  0  0  0
 10 15  4  0  0  0  0
 11 12  4  0  0  0  0
 11 27  1  0  0  0  0
 12 13  4  0  0  0  0
 12 28  1  0  0  0  0
 13 14  4  0  0  0  0
 13 16  1  0  0  0  0
 14 15  4  0  0  0  0
 14 29  1  0  0  0  0
 15 30  1  0  0  0  0
 16 17  1  0  0  0  0
 17 31  1  0  0  0  0
 17 32  1  0  0  0  0
 17 33  1  0  0  0  0
 18 19  1  0  0  0  0
 18 34  1  0  0  0  0
 19 20  1  0  0  0  0
 19 23  1  0  0  0  0
 19 35  1  0  0  0  0
 20 21  1  0  0  0  0
 20 36  1  0  0  0  0
 20 37  1  0  0  0  0
 21 22  1  0  0  0  0
 21 38  1  0  0  0  0
 21 39  1  0  0  0  0
 22 23  1  0  0  0  0
 22 24  1  0  0  0  0
 22 40  1  0  0  0  0
 23 41  1  0  0  0  0
 23 42  1  0  0  0  0
 24 43  1  0  0  0  0
 24 44  1  0  0  0  0
M  END
> <ConfClashScore>
0 

> <ConfOneFourInteractionScore>
-0.984337 

> <ConfScore>
-0.104873 

> <ConfScorePBest>
0.00495271 

> <ConfTolerance>
0.236363 

$$$$
c22.sdf
 OpenBabel04162418103D

 44 47  0  0  0  0  0  0  0  0999 V2000
    1.9452   -0.6103    0.1255 C   0  0  0  1  0  0  0  0  0  0  0  0
    2.0363    0.7233    0.1482 N   0  0  0  1  0  0  0  0  0  0  0  0
    0.8946    1.4376    0.0881 C   0  0  0  1  0  0  0  0  0  0  0  0
   -0.3452    0.7386    0.0095 C   0  0  0  1  0  0  0  0  0  0  0  0
   -0.2529   -0.6477    0.0020 C   0  0  0  1  0  0  0  0  0  0  0  0
    0.8779   -1.3913    0.0539 N   0  0  0  1  0  0  0  0  0  0  0  0
   -1.7304    0.9921   -0.0538 C   0  0  0  1  0  0  0  0  0  0  0  0
   -2.4281   -0.1191   -0.1028 N   0  0  0  1  0  0  0  0  0  0  0  0
   -1.5125   -1.1341   -0.0681 N   0  0  0  1  0  0  0  0  0  0  0  0
   -1.8386   -2.5051   -0.1011 C   0  0  0  1  0  0  0  0  0  0  0  0
   -2.5068   -3.0307    0.9885 C   0  0  0  1  0  0  0  0  0  0  0  0
   -2.8564   -4.3720    1.0060 C   0  0  0  1  0  0  0  0  0  0  0  0
   -2.5320   -5.1848   -0.0638 C   0  0  0  1  0  0  0  0  0  0  0  0
   -1.8618   -4.6575   -1.1565 C   0  0  0  1  0  0  0  0  0  0  0  0
   -1.5131   -3.3201   -1.1741 C   0  0  0  1  0  0  0  0  0  0  0  0
   -2.9184   -6.4726    0.0680 O   0  0  0  1  0  0  0  0  0  0  0  0
   -2.8297   -7.3565   -1.0604 C   0  0  0  1  0  0  0  0  0  0  0  0
    3.1257   -1.2629    0.1851 N   0  0  0  1  0  0  0  0  0  0  0  0
    3.2522   -2.7238    0.2018 C   0  0  0  1  0  0  0  0  0  0  0  0
    3.3234   -3.2364    1.6349 C   0  0  0  1  0  0  0  0  0  0  0  0
    4.2050   -4.4895    1.5566 C   0  0  0  1  0  0  0  0  0  0  0  0
    5.2953   -4.0305    0.5848 C   0  0  0  1  0  0  0  0  0  0  0  0
    4.5708   -3.1556   -0.4504 C   0  0  0  1  0  0  0  0  0  0  0  0
    5.9304   -5.1998   -0.0753 N   0  0  0  1  0  0  0  0  0  0  0  0
    0.9179    2.4772    0.0987 H   0  0  0  1  0  0  0  0  0  0  0  0
   -2.1489    1.9442   -0.0608 H   0  0  0  1  0  0  0  0  0  0  0  0
   -2.7474   -2.4201    1.7953 H   0  0  0  1  0  0  0  0  0  0  0  0
   -3.3628   -4.7667    1.8241 H   0  0  0  1  0  0  0  0  0  0  0  0
   -1.6212   -5.2681   -1.9633 H   0  0  0  1  0  0  0  0  0  0  0  0
   -1.0067   -2.9253   -1.9922 H   0  0  0  1  0  0  0  0  0  0  0  0
   -3.2011   -8.3222   -0.7878 H   0  0  0  1  0  0  0  0  0  0  0  0
   -1.8082   -7.4411   -1.3675 H   0  0  0  1  0  0  0  0  0  0  0  0
   -3.4137   -6.9647   -1.8669 H   0  0  0  1  0  0  0  0  0  0  0  0
    3.9466   -0.7287    0.2193 H   0  0  0  1  0  0  0  0  0  0  0  0
    2.4205   -3.1602   -0.3109 H   0  0  0  1  0  0  0  0  0  0  0  0
    2.3470   -3.4840    1.9959 H   0  0  0  1  0  0  0  0  0  0  0  0
    3.7660   -2.5032    2.2762 H   0  0  0  1  0  0  0  0  0  0  0  0
    3.6623   -5.3262    1.1690 H   0  0  0  1  0  0  0  0  0  0  0  0
    4.6137   -4.7409    2.5129 H   0  0  0  1  0  0  0  0  0  0  0  0
    6.0416   -3.4620    1.0996 H   0  0  0  1  0  0  0  0  0  0  0  0
    5.1637   -2.2978   -0.6909 H   0  0  0  1  0  0  0  0  0  0  0  0
    4.3777   -3.7172   -1.3404 H   0  0  0  1  0  0  0  0  0  0  0  0
    6.4974   -4.8912   -0.8126 H   0  0  0  1  0  0  0  0  0  0  0  0
    5.2347   -5.7947   -0.4253 H   0  0  0  1  0  0  0  0  0  0  0  0
  1  2  4  0  0  0  0
  1  6  4  0  0  0  0
  1 18  1  0  0  0  0
  2  3  4  0  0  0  0
  3  4  4  0  0  0  0
  3 25  1  0  0  0  0
  4  5  4  0  0  0  0
  4  7  4  0  0  0  0
  5  6  4  0  0  0  0
  5  9  4  0  0  0  0
  7  8  4  0  0  0  0
  7 26  1  0  0  0  0
  8  9  4  0  0  0  0
  9 10  1  0  0  0  0
 10 11  4  0  0  0  0
 10 15  4  0  0  0  0
 11 12  4  0  0  0  0
 11 27  1  0  0  0  0
 12 13  4  0  0  0  0
 12 28  1  0  0  0  0
 13 14  4  0  0  0  0
 13 16  1  0  0  0  0
 14 15  4  0  0  0  0
 14 29  1  0  0  0  0
 15 30  1  0  0  0  0
 16 17  1  0  0  0  0
 17 31  1  0  0  0  0
 17 32  1  0  0  0  0
 17 33  1  0  0  0  0
 18 19  1  0  0  0  0
 18 34  1  0  0  0  0
 19 20  1  0  0  0  0
 19 23  1  0  0  0  0
 19 35  1  0  0  0  0
 20 21  1  0  0  0  0
 20 36  1  0  0  0  0
 20 37  1  0  0  0  0
 21 22  1  0  0  0  0
 21 38  1  0  0  0  0
 21 39  1  0  0  0  0
 22 23  1  0  0  0  0
 22 24  1  0  0  0  0
 22 40  1  0  0  0  0
 23 41  1  0  0  0  0
 23 42  1  0  0  0  0
 24 43  1  0  0  0  0
 24 44  1  0  0  0  0
M  END
> <ConfClashScore>
0 

> <ConfOneFourInteractionScore>
-0.984337 

> <ConfScore>
-0.104873 

> <ConfScorePBest>
0.00493938 

> <ConfTolerance>
0.330865 

$$$$
c22.sdf
 OpenBabel04162418103D

 44 47  0  0  0  0  0  0  0  0999 V2000
    1.9453   -0.6102    0.1255 C   0  0  0  1  0  0  0  0  0  0  0  0
    2.0363    0.7234    0.1481 N   0  0  0  1  0  0  0  0  0  0  0  0
    0.8946    1.4376    0.0881 C   0  0  0  1  0  0  0  0  0  0  0  0
   -0.3453    0.7386    0.0096 C   0  0  0  1  0  0  0  0  0  0  0  0
   -0.2528   -0.6478    0.0020 C   0  0  0  1  0  0  0  0  0  0  0  0
    0.8780   -1.3913    0.0539 N   0  0  0  1  0  0  0  0  0  0  0  0
   -1.7304    0.9921   -0.0538 C   0  0  0  1  0  0  0  0  0  0  0  0
   -2.4281   -0.1191   -0.1028 N   0  0  0  1  0  0  0  0  0  0  0  0
   -1.5125   -1.1342   -0.0681 N   0  0  0  1  0  0  0  0  0  0  0  0
   -1.8420   -2.5200   -0.1013 C   0  0  0  1  0  0  0  0  0  0  0  0
   -2.5802   -3.0753    0.9268 C   0  0  0  1  0  0  0  0  0  0  0  0
   -2.9867   -4.3984    0.8518 C   0  0  0  1  0  0  0  0  0  0  0  0
   -2.6494   -5.1639   -0.2484 C   0  0  0  1  0  0  0  0  0  0  0  0
   -1.9091   -4.6068   -1.2794 C   0  0  0  1  0  0  0  0  0  0  0  0
   -1.5036   -3.2875   -1.2049 C   0  0  0  1  0  0  0  0  0  0  0  0
   -3.0943   -6.4349   -0.2079 O   0  0  0  1  0  0  0  0  0  0  0  0
   -2.6667   -7.2686   -1.3100 C   0  0  0  1  0  0  0  0  0  0  0  0
    3.1214   -1.2604    0.1848 N   0  0  0  1  0  0  0  0  0  0  0  0
    4.4411   -0.6533    0.3053 C   0  0  0  1  0  0  0  0  0  0  0  0
    5.0374   -0.3394   -1.0801 C   0  0  0  1  0  0  0  0  0  0  0  0
    6.5383   -0.5416   -0.9437 C   0  0  0  1  0  0  0  0  0  0  0  0
    6.8136   -1.1320    0.4490 C   0  0  0  1  0  0  0  0  0  0  0  0
    5.4506   -1.6401    0.8855 C   0  0  0  1  0  0  0  0  0  0  0  0
    7.3190   -0.0835    1.3848 N   0  0  0  1  0  0  0  0  0  0  0  0
    0.9178    2.4773    0.0987 H   0  0  0  1  0  0  0  0  0  0  0  0
   -2.1490    1.9441   -0.0608 H   0  0  0  1  0  0  0  0  0  0  0  0
   -2.8306   -2.5005    1.7566 H   0  0  0  1  0  0  0  0  0  0  0  0
   -3.5456   -4.8151    1.6236 H   0  0  0  1  0  0  0  0  0  0  0  0
   -1.6586   -5.1816   -2.1092 H   0  0  0  1  0  0  0  0  0  0  0  0
   -0.9447   -2.8708   -1.9766 H   0  0  0  1  0  0  0  0  0  0  0  0
   -1.6027   -7.2122   -1.4086 H   0  0  0  1  0  0  0  0  0  0  0  0
   -3.1270   -6.9280   -2.2140 H   0  0  0  1  0  0  0  0  0  0  0  0
   -2.9542   -8.2821   -1.1227 H   0  0  0  1  0  0  0  0  0  0  0  0
    3.0876   -2.2389    0.1429 H   0  0  0  1  0  0  0  0  0  0  0  0
    4.3746    0.2295    0.9063 H   0  0  0  1  0  0  0  0  0  0  0  0
    4.6378   -1.0049   -1.8166 H   0  0  0  1  0  0  0  0  0  0  0  0
    4.8219    0.6713   -1.3575 H   0  0  0  1  0  0  0  0  0  0  0  0
    7.0418    0.3970   -1.0460 H   0  0  0  1  0  0  0  0  0  0  0  0
    6.8839   -1.2164   -1.6987 H   0  0  0  1  0  0  0  0  0  0  0  0
    7.5215   -1.9324    0.3933 H   0  0  0  1  0  0  0  0  0  0  0  0
    5.2769   -2.6227    0.4993 H   0  0  0  1  0  0  0  0  0  0  0  0
    5.3834   -1.6590    1.9533 H   0  0  0  1  0  0  0  0  0  0  0  0
    7.4733   -0.4799    2.2677 H   0  0  0  1  0  0  0  0  0  0  0  0
    6.6555    0.6338    1.4605 H   0  0  0  1  0  0  0  0  0  0  0  0
  1  2  4  0  0  0  0
  1  6  4  0  0  0  0
  1 18  1  0  0  0  0
  2  3  4  0  0  0  0
  3  4  4  0  0  0  0
  3 25  1  0  0  0  0
  4  5  4  0  0  0  0
  4  7  4  0  0  0  0
  5  6  4  0  0  0  0
  5  9  4  0  0  0  0
  7  8  4  0  0  0  0
  7 26  1  0  0  0  0
  8  9  4  0  0  0  0
  9 10  1  0  0  0  0
 10 11  4  0  0  0  0
 10 15  4  0  0  0  0
 11 12  4  0  0  0  0
 11 27  1  0  0  0  0
 12 13  4  0  0  0  0
 12 28  1  0  0  0  0
 13 14  4  0  0  0  0
 13 16  1  0  0  0  0
 14 15  4  0  0  0  0
 14 29  1  0  0  0  0
 15 30  1  0  0  0  0
 16 17  1  0  0  0  0
 17 31  1  0  0  0  0
 17 32  1  0  0  0  0
 17 33  1  0  0  0  0
 18 19  1  0  0  0  0
 18 34  1  0  0  0  0
 19 20  1  0  0  0  0
 19 23  1  0  0  0  0
 19 35  1  0  0  0  0
 20 21  1  0  0  0  0
 20 36  1  0  0  0  0
 20 37  1  0  0  0  0
 21 22  1  0  0  0  0
 21 38  1  0  0  0  0
 21 39  1  0  0  0  0
 22 23  1  0  0  0  0
 22 24  1  0  0  0  0
 22 40  1  0  0  0  0
 23 41  1  0  0  0  0
 23 42  1  0  0  0  0
 24 43  1  0  0  0  0
 24 44  1  0  0  0  0
M  END
> <ConfClashScore>
0 

> <ConfOneFourInteractionScore>
-0.984337 

> <ConfScore>
-0.104873 

> <ConfScorePBest>
0.00492605 

> <ConfTolerance>
0.268605 

$$$$
c22.sdf
 OpenBabel04162418103D

 44 47  0  0  0  0  0  0  0  0999 V2000
    1.9453   -0.6102    0.1255 C   0  0  0  1  0  0  0  0  0  0  0  0
    2.0363    0.7234    0.1481 N   0  0  0  1  0  0  0  0  0  0  0  0
    0.8946    1.4376    0.0881 C   0  0  0  1  0  0  0  0  0  0  0  0
   -0.3453    0.7387    0.0096 C   0  0  0  1  0  0  0  0  0  0  0  0
   -0.2528   -0.6477    0.0020 C   0  0  0  1  0  0  0  0  0  0  0  0
    0.8779   -1.3912    0.0538 N   0  0  0  1  0  0  0  0  0  0  0  0
   -1.7303    0.9920   -0.0538 C   0  0  0  1  0  0  0  0  0  0  0  0
   -2.4281   -0.1192   -0.1028 N   0  0  0  1  0  0  0  0  0  0  0  0
   -1.5126   -1.1341   -0.0681 N   0  0  0  1  0  0  0  0  0  0  0  0
   -1.8396   -2.5099   -0.1011 C   0  0  0  1  0  0  0  0  0  0  0  0
   -2.3561   -3.1211   -1.2279 C   0  0  0  1  0  0  0  0  0  0  0  0
   -2.6543   -4.4747   -1.2069 C   0  0  0  1  0  0  0  0  0  0  0  0
   -2.4401   -5.2119   -0.0577 C   0  0  0  1  0  0  0  0  0  0  0  0
   -1.9220   -4.5987    1.0725 C   0  0  0  1  0  0  0  0  0  0  0  0
   -1.6248   -3.2491    1.0517 C   0  0  0  1  0  0  0  0  0  0  0  0
   -2.7732   -6.5210   -0.1544 O   0  0  0  1  0  0  0  0  0  0  0  0
   -2.6520   -7.3185    1.0336 C   0  0  0  1  0  0  0  0  0  0  0  0
    3.1323   -1.2664    0.1855 N   0  0  0  1  0  0  0  0  0  0  0  0
    4.4086   -0.5497    0.1772 C   0  0  0  1  0  0  0  0  0  0  0  0
    4.7522   -0.0841   -1.2506 C   0  0  0  1  0  0  0  0  0  0  0  0
    6.2759   -0.1714   -1.2706 C   0  0  0  1  0  0  0  0  0  0  0  0
    6.6218   -1.4292   -0.4931 C   0  0  0  1  0  0  0  0  0  0  0  0
    5.5383   -1.4771    0.5967 C   0  0  0  1  0  0  0  0  0  0  0  0
    7.9652   -1.3294    0.1020 N   0  0  0  1  0  0  0  0  0  0  0  0
    0.9178    2.4773    0.0987 H   0  0  0  1  0  0  0  0  0  0  0  0
   -2.1491    1.9440   -0.0608 H   0  0  0  1  0  0  0  0  0  0  0  0
   -2.5210   -2.5656   -2.0915 H   0  0  0  1  0  0  0  0  0  0  0  0
   -3.0391   -4.9356   -2.0561 H   0  0  0  1  0  0  0  0  0  0  0  0
   -1.7571   -5.1542    1.9362 H   0  0  0  1  0  0  0  0  0  0  0  0
   -1.2399   -2.7882    1.9009 H   0  0  0  1  0  0  0  0  0  0  0  0
   -2.9774   -8.3170    0.8283 H   0  0  0  1  0  0  0  0  0  0  0  0
   -3.2586   -6.8983    1.8085 H   0  0  0  1  0  0  0  0  0  0  0  0
   -1.6298   -7.3347    1.3493 H   0  0  0  1  0  0  0  0  0  0  0  0
    3.1348   -2.2452    0.2354 H   0  0  0  1  0  0  0  0  0  0  0  0
    4.3512    0.2895    0.8385 H   0  0  0  1  0  0  0  0  0  0  0  0
    4.4205    0.9190   -1.4201 H   0  0  0  1  0  0  0  0  0  0  0  0
    4.3185   -0.7322   -1.9831 H   0  0  0  1  0  0  0  0  0  0  0  0
    6.7056    0.6884   -0.8006 H   0  0  0  1  0  0  0  0  0  0  0  0
    6.6327   -0.2441   -2.2767 H   0  0  0  1  0  0  0  0  0  0  0  0
    6.5726   -2.2941   -1.1211 H   0  0  0  1  0  0  0  0  0  0  0  0
    5.1691   -2.4763    0.6980 H   0  0  0  1  0  0  0  0  0  0  0  0
    5.9477   -1.1514    1.5302 H   0  0  0  1  0  0  0  0  0  0  0  0
    8.2158   -2.1933    0.4910 H   0  0  0  1  0  0  0  0  0  0  0  0
    7.9617   -0.6445    0.8030 H   0  0  0  1  0  0  0  0  0  0  0  0
  1  2  4  0  0  0  0
  1  6  4  0  0  0  0
  1 18  1  0  0  0  0
  2  3  4  0  0  0  0
  3  4  4  0  0  0  0
  3 25  1  0  0  0  0
  4  5  4  0  0  0  0
  4  7  4  0  0  0  0
  5  6  4  0  0  0  0
  5  9  4  0  0  0  0
  7  8  4  0  0  0  0
  7 26  1  0  0  0  0
  8  9  4  0  0  0  0
  9 10  1  0  0  0  0
 10 11  4  0  0  0  0
 10 15  4  0  0  0  0
 11 12  4  0  0  0  0
 11 27  1  0  0  0  0
 12 13  4  0  0  0  0
 12 28  1  0  0  0  0
 13 14  4  0  0  0  0
 13 16  1  0  0  0  0
 14 15  4  0  0  0  0
 14 29  1  0  0  0  0
 15 30  1  0  0  0  0
 16 17  1  0  0  0  0
 17 31  1  0  0  0  0
 17 32  1  0  0  0  0
 17 33  1  0  0  0  0
 18 19  1  0  0  0  0
 18 34  1  0  0  0  0
 19 20  1  0  0  0  0
 19 23  1  0  0  0  0
 19 35  1  0  0  0  0
 20 21  1  0  0  0  0
 20 36  1  0  0  0  0
 20 37  1  0  0  0  0
 21 22  1  0  0  0  0
 21 38  1  0  0  0  0
 21 39  1  0  0  0  0
 22 23  1  0  0  0  0
 22 24  1  0  0  0  0
 22 40  1  0  0  0  0
 23 41  1  0  0  0  0
 23 42  1  0  0  0  0
 24 43  1  0  0  0  0
 24 44  1  0  0  0  0
M  END
> <ConfClashScore>
0 

> <ConfOneFourInteractionScore>
-0.984337 

> <ConfScore>
-0.102479 

> <ConfScorePBest>
0.00491272 

> <ConfTolerance>
0.298651 

$$$$
c22.sdf
 OpenBabel04162418103D

 44 47  0  0  0  0  0  0  0  0999 V2000
    1.9453   -0.6103    0.1256 C   0  0  0  1  0  0  0  0  0  0  0  0
    2.0363    0.7232    0.1481 N   0  0  0  1  0  0  0  0  0  0  0  0
    0.8946    1.4376    0.0881 C   0  0  0  1  0  0  0  0  0  0  0  0
   -0.3452    0.7386    0.0096 C   0  0  0  1  0  0  0  0  0  0  0  0
   -0.2528   -0.6478    0.0021 C   0  0  0  1  0  0  0  0  0  0  0  0
    0.8780   -1.3913    0.0540 N   0  0  0  1  0  0  0  0  0  0  0  0
   -1.7303    0.9921   -0.0538 C   0  0  0  1  0  0  0  0  0  0  0  0
   -2.4281   -0.1192   -0.1028 N   0  0  0  1  0  0  0  0  0  0  0  0
   -1.5125   -1.1342   -0.0681 N   0  0  0  1  0  0  0  0  0  0  0  0
   -1.8419   -2.5193   -0.1012 C   0  0  0  1  0  0  0  0  0  0  0  0
   -0.9389   -3.4333   -0.6108 C   0  0  0  1  0  0  0  0  0  0  0  0
   -1.2935   -4.7685   -0.7236 C   0  0  0  1  0  0  0  0  0  0  0  0
   -2.5518   -5.1851   -0.3316 C   0  0  0  1  0  0  0  0  0  0  0  0
   -3.4573   -4.2683    0.1794 C   0  0  0  1  0  0  0  0  0  0  0  0
   -3.1038   -2.9368    0.2920 C   0  0  0  1  0  0  0  0  0  0  0  0
   -2.7856   -6.5091   -0.4933 O   0  0  0  1  0  0  0  0  0  0  0  0
   -4.0359   -7.0191   -0.0043 C   0  0  0  1  0  0  0  0  0  0  0  0
    3.1257   -1.2629    0.1852 N   0  0  0  1  0  0  0  0  0  0  0  0
    3.2540   -2.7237    0.1683 C   0  0  0  1  0  0  0  0  0  0  0  0
    3.3977   -3.2624    1.5863 C   0  0  0  1  0  0  0  0  0  0  0  0
    4.2753   -4.5124    1.4405 C   0  0  0  1  0  0  0  0  0  0  0  0
    5.3149   -4.0335    0.4237 C   0  0  0  1  0  0  0  0  0  0  0  0
    4.5384   -3.1410   -0.5573 C   0  0  0  1  0  0  0  0  0  0  0  0
    5.9151   -5.1862   -0.2871 N   0  0  0  1  0  0  0  0  0  0  0  0
    0.9179    2.4772    0.0987 H   0  0  0  1  0  0  0  0  0  0  0  0
   -2.1489    1.9441   -0.0609 H   0  0  0  1  0  0  0  0  0  0  0  0
    0.0064   -3.1191   -0.9095 H   0  0  0  1  0  0  0  0  0  0  0  0
   -0.6127   -5.4569   -1.1033 H   0  0  0  1  0  0  0  0  0  0  0  0
   -4.4027   -4.5823    0.4782 H   0  0  0  1  0  0  0  0  0  0  0  0
   -3.7845   -2.2483    0.6717 H   0  0  0  1  0  0  0  0  0  0  0  0
   -4.0131   -7.0557    1.0648 H   0  0  0  1  0  0  0  0  0  0  0  0
   -4.1950   -8.0039   -0.3914 H   0  0  0  1  0  0  0  0  0  0  0  0
   -4.8312   -6.3777   -0.3220 H   0  0  0  1  0  0  0  0  0  0  0  0
    3.9453   -0.7288    0.2431 H   0  0  0  1  0  0  0  0  0  0  0  0
    2.3979   -3.1519   -0.3098 H   0  0  0  1  0  0  0  0  0  0  0  0
    3.8716   -2.5405    2.2180 H   0  0  0  1  0  0  0  0  0  0  0  0
    2.4410   -3.5183    1.9915 H   0  0  0  1  0  0  0  0  0  0  0  0
    4.7319   -4.7806    2.3703 H   0  0  0  1  0  0  0  0  0  0  0  0
    3.7144   -5.3428    1.0654 H   0  0  0  1  0  0  0  0  0  0  0  0
    6.0857   -3.4736    0.9107 H   0  0  0  1  0  0  0  0  0  0  0  0
    5.1178   -2.2780   -0.8114 H   0  0  0  1  0  0  0  0  0  0  0  0
    4.3012   -3.6864   -1.4467 H   0  0  0  1  0  0  0  0  0  0  0  0
    6.3877   -5.7563    0.3549 H   0  0  0  1  0  0  0  0  0  0  0  0
    6.5471   -4.8606   -0.9616 H   0  0  0  1  0  0  0  0  0  0  0  0
  1  2  4  0  0  0  0
  1  6  4  0  0  0  0
  1 18  1  0  0  0  0
  2  3  4  0  0  0  0
  3  4  4  0  0  0  0
  3 25  1  0  0  0  0
  4  5  4  0  0  0  0
  4  7  4  0  0  0  0
  5  6  4  0  0  0  0
  5  9  4  0  0  0  0
  7  8  4  0  0  0  0
  7 26  1  0  0  0  0
  8  9  4  0  0  0  0
  9 10  1  0  0  0  0
 10 11  4  0  0  0  0
 10 15  4  0  0  0  0
 11 12  4  0  0  0  0
 11 27  1  0  0  0  0
 12 13  4  0  0  0  0
 12 28  1  0  0  0  0
 13 14  4  0  0  0  0
 13 16  1  0  0  0  0
 14 15  4  0  0  0  0
 14 29  1  0  0  0  0
 15 30  1  0  0  0  0
 16 17  1  0  0  0  0
 17 31  1  0  0  0  0
 17 32  1  0  0  0  0
 17 33  1  0  0  0  0
 18 19  1  0  0  0  0
 18 34  1  0  0  0  0
 19 20  1  0  0  0  0
 19 23  1  0  0  0  0
 19 35  1  0  0  0  0
 20 21  1  0  0  0  0
 20 36  1  0  0  0  0
 20 37  1  0  0  0  0
 21 22  1  0  0  0  0
 21 38  1  0  0  0  0
 21 39  1  0  0  0  0
 22 23  1  0  0  0  0
 22 24  1  0  0  0  0
 22 40  1  0  0  0  0
 23 41  1  0  0  0  0
 23 42  1  0  0  0  0
 24 43  1  0  0  0  0
 24 44  1  0  0  0  0
M  END
> <ConfClashScore>
0 

> <ConfOneFourInteractionScore>
-0.984337 

> <ConfScore>
-0.0981937 

> <ConfScorePBest>
0.00489939 

> <ConfTolerance>
0.330692 

$$$$
c22.sdf
 OpenBabel04162418103D

 44 47  0  0  0  0  0  0  0  0999 V2000
    1.9453   -0.6102    0.1256 C   0  0  0  1  0  0  0  0  0  0  0  0
    2.0363    0.7234    0.1482 N   0  0  0  1  0  0  0  0  0  0  0  0
    0.8946    1.4376    0.0881 C   0  0  0  1  0  0  0  0  0  0  0  0
   -0.3452    0.7386    0.0096 C   0  0  0  1  0  0  0  0  0  0  0  0
   -0.2528   -0.6477    0.0021 C   0  0  0  1  0  0  0  0  0  0  0  0
    0.8780   -1.3913    0.0539 N   0  0  0  1  0  0  0  0  0  0  0  0
   -1.7303    0.9921   -0.0538 C   0  0  0  1  0  0  0  0  0  0  0  0
   -2.4281   -0.1192   -0.1028 N   0  0  0  1  0  0  0  0  0  0  0  0
   -1.5125   -1.1342   -0.0681 N   0  0  0  1  0  0  0  0  0  0  0  0
   -1.8418   -2.5192   -0.1013 C   0  0  0  1  0  0  0  0  0  0  0  0
   -2.5534   -3.0349   -1.1681 C   0  0  0  1  0  0  0  0  0  0  0  0
   -2.8694   -4.3841   -1.2030 C   0  0  0  1  0  0  0  0  0  0  0  0
   -2.4774   -5.2128   -0.1685 C   0  0  0  1  0  0  0  0  0  0  0  0
   -1.7638   -4.6955    0.9014 C   0  0  0  1  0  0  0  0  0  0  0  0
   -1.4487   -3.3502    0.9363 C   0  0  0  1  0  0  0  0  0  0  0  0
   -2.7317   -6.5406   -0.0903 O   0  0  0  1  0  0  0  0  0  0  0  0
   -3.6182   -7.0979   -1.0732 C   0  0  0  1  0  0  0  0  0  0  0  0
    3.1213   -1.2605    0.1850 N   0  0  0  1  0  0  0  0  0  0  0  0
    3.2470   -2.7211    0.2213 C   0  0  0  1  0  0  0  0  0  0  0  0
    4.5354   -3.1255    0.9473 C   0  0  0  1  0  0  0  0  0  0  0  0
    5.4128   -3.7727   -0.1170 C   0  0  0  1  0  0  0  0  0  0  0  0
    4.4237   -4.3830   -1.1184 C   0  0  0  1  0  0  0  0  0  0  0  0
    3.3643   -3.2810   -1.2051 C   0  0  0  1  0  0  0  0  0  0  0  0
    3.8432   -5.6595   -0.6041 N   0  0  0  1  0  0  0  0  0  0  0  0
    0.9179    2.4772    0.0988 H   0  0  0  1  0  0  0  0  0  0  0  0
   -2.1489    1.9441   -0.0607 H   0  0  0  1  0  0  0  0  0  0  0  0
   -2.8518   -2.4106   -1.9445 H   0  0  0  1  0  0  0  0  0  0  0  0
   -3.4013   -4.7729   -2.0076 H   0  0  0  1  0  0  0  0  0  0  0  0
   -1.4653   -5.3196    1.6778 H   0  0  0  1  0  0  0  0  0  0  0  0
   -0.9167   -2.9613    1.7409 H   0  0  0  1  0  0  0  0  0  0  0  0
   -3.6905   -8.1559   -0.9299 H   0  0  0  1  0  0  0  0  0  0  0  0
   -3.2370   -6.8960   -2.0523 H   0  0  0  1  0  0  0  0  0  0  0  0
   -4.5876   -6.6572   -0.9694 H   0  0  0  1  0  0  0  0  0  0  0  0
    3.9429   -0.7265    0.2051 H   0  0  0  1  0  0  0  0  0  0  0  0
    2.3957   -3.1406    0.7154 H   0  0  0  1  0  0  0  0  0  0  0  0
    4.3208   -3.8225    1.7302 H   0  0  0  1  0  0  0  0  0  0  0  0
    5.0193   -2.2644    1.3585 H   0  0  0  1  0  0  0  0  0  0  0  0
    6.0291   -3.0399   -0.5945 H   0  0  0  1  0  0  0  0  0  0  0  0
    6.0303   -4.5327    0.3142 H   0  0  0  1  0  0  0  0  0  0  0  0
    4.8854   -4.5575   -2.0678 H   0  0  0  1  0  0  0  0  0  0  0  0
    3.6749   -2.5149   -1.8845 H   0  0  0  1  0  0  0  0  0  0  0  0
    2.4277   -3.6857   -1.5274 H   0  0  0  1  0  0  0  0  0  0  0  0
    4.5510   -6.3329   -0.5270 H   0  0  0  1  0  0  0  0  0  0  0  0
    3.1552   -5.9786   -1.2247 H   0  0  0  1  0  0  0  0  0  0  0  0
  1  2  4  0  0  0  0
  1  6  4  0  0  0  0
  1 18  1  0  0  0  0
  2  3  4  0  0  0  0
  3  4  4  0  0  0  0
  3 25  1  0  0  0  0
  4  5  4  0  0  0  0
  4  7  4  0  0  0  0
  5  6  4  0  0  0  0
  5  9  4  0  0  0  0
  7  8  4  0  0  0  0
  7 26  1  0  0  0  0
  8  9  4  0  0  0  0
  9 10  1  0  0  0  0
 10 11  4  0  0  0  0
 10 15  4  0  0  0  0
 11 12  4  0  0  0  0
 11 27  1  0  0  0  0
 12 13  4  0  0  0  0
 12 28  1  0  0  0  0
 13 14  4  0  0  0  0
 13 16  1  0  0  0  0
 14 15  4  0  0  0  0
 14 29  1  0  0  0  0
 15 30  1  0  0  0  0
 16 17  1  0  0  0  0
 17 31  1  0  0  0  0
 17 32  1  0  0  0  0
 17 33  1  0  0  0  0
 18 19  1  0  0  0  0
 18 34  1  0  0  0  0
 19 20  1  0  0  0  0
 19 23  1  0  0  0  0
 19 35  1  0  0  0  0
 20 21  1  0  0  0  0
 20 36  1  0  0  0  0
 20 37  1  0  0  0  0
 21 22  1  0  0  0  0
 21 38  1  0  0  0  0
 21 39  1  0  0  0  0
 22 23  1  0  0  0  0
 22 24  1  0  0  0  0
 22 40  1  0  0  0  0
 23 41  1  0  0  0  0
 23 42  1  0  0  0  0
 24 43  1  0  0  0  0
 24 44  1  0  0  0  0
M  END
> <ConfClashScore>
0 

> <ConfOneFourInteractionScore>
-0.984337 

> <ConfScore>
-0.0977162 

> <ConfScorePBest>
0.00488607 

> <ConfTolerance>
0.202887 

$$$$
c22.sdf
 OpenBabel04162418103D

 44 47  0  0  0  0  0  0  0  0999 V2000
    1.9452   -0.6102    0.1256 C   0  0  0  1  0  0  0  0  0  0  0  0
    2.0362    0.7233    0.1482 N   0  0  0  1  0  0  0  0  0  0  0  0
    0.8946    1.4376    0.0881 C   0  0  0  1  0  0  0  0  0  0  0  0
   -0.3453    0.7386    0.0096 C   0  0  0  1  0  0  0  0  0  0  0  0
   -0.2528   -0.6478    0.0021 C   0  0  0  1  0  0  0  0  0  0  0  0
    0.8779   -1.3913    0.0540 N   0  0  0  1  0  0  0  0  0  0  0  0
   -1.7303    0.9921   -0.0538 C   0  0  0  1  0  0  0  0  0  0  0  0
   -2.4282   -0.1192   -0.1028 N   0  0  0  1  0  0  0  0  0  0  0  0
   -1.5125   -1.1342   -0.0681 N   0  0  0  1  0  0  0  0  0  0  0  0
   -1.8419   -2.5192   -0.1013 C   0  0  0  1  0  0  0  0  0  0  0  0
   -3.0997   -2.9357    0.2921 C   0  0  0  1  0  0  0  0  0  0  0  0
   -3.4580   -4.2691    0.1692 C   0  0  0  1  0  0  0  0  0  0  0  0
   -2.5558   -5.1831   -0.3416 C   0  0  0  1  0  0  0  0  0  0  0  0
   -1.2943   -4.7652   -0.7360 C   0  0  0  1  0  0  0  0  0  0  0  0
   -0.9369   -3.4358   -0.6136 C   0  0  0  1  0  0  0  0  0  0  0  0
   -2.7871   -6.4912   -0.5015 O   0  0  0  1  0  0  0  0  0  0  0  0
   -1.7175   -7.4230   -0.8767 C   0  0  0  1  0  0  0  0  0  0  0  0
    3.1213   -1.2605    0.1850 N   0  0  0  1  0  0  0  0  0  0  0  0
    4.4411   -0.6534    0.2943 C   0  0  0  1  0  0  0  0  0  0  0  0
    5.1736   -0.7291   -1.0504 C   0  0  0  1  0  0  0  0  0  0  0  0
    6.3512   -1.6672   -0.8167 C   0  0  0  1  0  0  0  0  0  0  0  0
    6.6985   -1.4935    0.6675 C   0  0  0  1  0  0  0  0  0  0  0  0
    5.3046   -1.4335    1.2980 C   0  0  0  1  0  0  0  0  0  0  0  0
    7.4607   -0.2315    0.9062 N   0  0  0  1  0  0  0  0  0  0  0  0
    0.9179    2.4772    0.0988 H   0  0  0  1  0  0  0  0  0  0  0  0
   -2.1490    1.9441   -0.0608 H   0  0  0  1  0  0  0  0  0  0  0  0
   -3.7772   -2.2487    0.6801 H   0  0  0  1  0  0  0  0  0  0  0  0
   -4.4059   -4.5818    0.4614 H   0  0  0  1  0  0  0  0  0  0  0  0
   -0.6167   -5.4522   -1.1241 H   0  0  0  1  0  0  0  0  0  0  0  0
    0.0110   -3.1230   -0.9058 H   0  0  0  1  0  0  0  0  0  0  0  0
   -1.2612   -7.0950   -1.7873 H   0  0  0  1  0  0  0  0  0  0  0  0
   -2.1294   -8.4006   -1.0164 H   0  0  0  1  0  0  0  0  0  0  0  0
   -0.9820   -7.4528   -0.1001 H   0  0  0  1  0  0  0  0  0  0  0  0
    3.0869   -2.2393    0.1514 H   0  0  0  1  0  0  0  0  0  0  0  0
    4.3408    0.3656    0.6050 H   0  0  0  1  0  0  0  0  0  0  0  0
    4.5270   -1.1214   -1.8073 H   0  0  0  1  0  0  0  0  0  0  0  0
    5.5195    0.2402   -1.3434 H   0  0  0  1  0  0  0  0  0  0  0  0
    7.1813   -1.3915   -1.4332 H   0  0  0  1  0  0  0  0  0  0  0  0
    6.0737   -2.6797   -1.0232 H   0  0  0  1  0  0  0  0  0  0  0  0
    7.2602   -2.3254    1.0380 H   0  0  0  1  0  0  0  0  0  0  0  0
    4.9149   -2.4198    1.4409 H   0  0  0  1  0  0  0  0  0  0  0  0
    5.3399   -0.9238    2.2382 H   0  0  0  1  0  0  0  0  0  0  0  0
    8.3835   -0.3430    0.5958 H   0  0  0  1  0  0  0  0  0  0  0  0
    7.4611   -0.0266    1.8645 H   0  0  0  1  0  0  0  0  0  0  0  0
  1  2  4  0  0  0  0
  1  6  4  0  0  0  0
  1 18  1  0  0  0  0
  2  3  4  0  0  0  0
  3  4  4  0  0  0  0
  3 25  1  0  0  0  0
  4  5  4  0  0  0  0
  4  7  4  0  0  0  0
  5  6  4  0  0  0  0
  5  9  4  0  0  0  0
  7  8  4  0  0  0  0
  7 26  1  0  0  0  0
  8  9  4  0  0  0  0
  9 10  1  0  0  0  0
 10 11  4  0  0  0  0
 10 15  4  0  0  0  0
 11 12  4  0  0  0  0
 11 27  1  0  0  0  0
 12 13  4  0  0  0  0
 12 28  1  0  0  0  0
 13 14  4  0  0  0  0
 13 16  1  0  0  0  0
 14 15  4  0  0  0  0
 14 29  1  0  0  0  0
 15 30  1  0  0  0  0
 16 17  1  0  0  0  0
 17 31  1  0  0  0  0
 17 32  1  0  0  0  0
 17 33  1  0  0  0  0
 18 19  1  0  0  0  0
 18 34  1  0  0  0  0
 19 20  1  0  0  0  0
 19 23  1  0  0  0  0
 19 35  1  0  0  0  0
 20 21  1  0  0  0  0
 20 36  1  0  0  0  0
 20 37  1  0  0  0  0
 21 22  1  0  0  0  0
 21 38  1  0  0  0  0
 21 39  1  0  0  0  0
 22 23  1  0  0  0  0
 22 24  1  0  0  0  0
 22 40  1  0  0  0  0
 23 41  1  0  0  0  0
 23 42  1  0  0  0  0
 24 43  1  0  0  0  0
 24 44  1  0  0  0  0
M  END
> <ConfClashScore>
0 

> <ConfOneFourInteractionScore>
-0.984337 

> <ConfScore>
-0.0973993 

> <ConfScorePBest>
0.00487274 

> <ConfTolerance>
0.33565 

$$$$
c22.sdf
 OpenBabel04162418103D

 44 47  0  0  0  0  0  0  0  0999 V2000
    1.9452   -0.6102    0.1255 C   0  0  0  1  0  0  0  0  0  0  0  0
    2.0363    0.7233    0.1481 N   0  0  0  1  0  0  0  0  0  0  0  0
    0.8945    1.4376    0.0881 C   0  0  0  1  0  0  0  0  0  0  0  0
   -0.3452    0.7386    0.0095 C   0  0  0  1  0  0  0  0  0  0  0  0
   -0.2529   -0.6477    0.0020 C   0  0  0  1  0  0  0  0  0  0  0  0
    0.8779   -1.3912    0.0538 N   0  0  0  1  0  0  0  0  0  0  0  0
   -1.7303    0.9921   -0.0538 C   0  0  0  1  0  0  0  0  0  0  0  0
   -2.4282   -0.1191   -0.1029 N   0  0  0  1  0  0  0  0  0  0  0  0
   -1.5125   -1.1342   -0.0681 N   0  0  0  1  0  0  0  0  0  0  0  0
   -1.8419   -2.5192   -0.1013 C   0  0  0  1  0  0  0  0  0  0  0  0
   -1.3586   -3.3680    0.8765 C   0  0  0  1  0  0  0  0  0  0  0  0
   -1.6835   -4.7152    0.8471 C   0  0  0  1  0  0  0  0  0  0  0  0
   -2.4865   -5.2107   -0.1629 C   0  0  0  1  0  0  0  0  0  0  0  0
   -2.9712   -4.3593   -1.1436 C   0  0  0  1  0  0  0  0  0  0  0  0
   -2.6473   -3.0159   -1.1144 C   0  0  0  1  0  0  0  0  0  0  0  0
   -2.8635   -6.4971   -0.2974 O   0  0  0  1  0  0  0  0  0  0  0  0
   -2.2731   -7.4109    0.6559 C   0  0  0  1  0  0  0  0  0  0  0  0
    3.1148   -1.2568    0.1846 N   0  0  0  1  0  0  0  0  0  0  0  0
    3.3132   -2.7075    0.1014 C   0  0  0  1  0  0  0  0  0  0  0  0
    3.5680   -3.3276    1.5163 C   0  0  0  1  0  0  0  0  0  0  0  0
    5.0535   -3.0076    1.7656 C   0  0  0  1  0  0  0  0  0  0  0  0
    5.7543   -2.9357    0.3643 C   0  0  0  1  0  0  0  0  0  0  0  0
    4.6115   -3.0496   -0.6396 C   0  0  0  1  0  0  0  0  0  0  0  0
    6.7019   -4.0457    0.2003 N   0  0  0  1  0  0  0  0  0  0  0  0
    0.9179    2.4772    0.0988 H   0  0  0  1  0  0  0  0  0  0  0  0
   -2.1489    1.9441   -0.0608 H   0  0  0  1  0  0  0  0  0  0  0  0
   -0.7511   -2.9960    1.6342 H   0  0  0  1  0  0  0  0  0  0  0  0
   -1.3232   -5.3532    1.5851 H   0  0  0  1  0  0  0  0  0  0  0  0
   -3.5787   -4.7313   -1.9013 H   0  0  0  1  0  0  0  0  0  0  0  0
   -3.0076   -2.3779   -1.8523 H   0  0  0  1  0  0  0  0  0  0  0  0
   -2.3314   -6.9896    1.6378 H   0  0  0  1  0  0  0  0  0  0  0  0
   -1.2478   -7.5791    0.4005 H   0  0  0  1  0  0  0  0  0  0  0  0
   -2.8035   -8.3399    0.6347 H   0  0  0  1  0  0  0  0  0  0  0  0
    3.9184   -0.7068    0.2941 H   0  0  0  1  0  0  0  0  0  0  0  0
    2.4658   -3.1573   -0.3724 H   0  0  0  1  0  0  0  0  0  0  0  0
    2.9455   -2.8689    2.2559 H   0  0  0  1  0  0  0  0  0  0  0  0
    3.3969   -4.3838    1.5107 H   0  0  0  1  0  0  0  0  0  0  0  0
    5.4996   -3.7779    2.3593 H   0  0  0  1  0  0  0  0  0  0  0  0
    5.1464   -2.0687    2.2704 H   0  0  0  1  0  0  0  0  0  0  0  0
    6.2699   -2.0056    0.2466 H   0  0  0  1  0  0  0  0  0  0  0  0
    4.7638   -2.3631   -1.4460 H   0  0  0  1  0  0  0  0  0  0  0  0
    4.5609   -4.0469   -1.0240 H   0  0  0  1  0  0  0  0  0  0  0  0
    7.4423   -3.9401    0.8335 H   0  0  0  1  0  0  0  0  0  0  0  0
    7.0523   -4.0433   -0.7149 H   0  0  0  1  0  0  0  0  0  0  0  0
  1  2  4  0  0  0  0
  1  6  4  0  0  0  0
  1 18  1  0  0  0  0
  2  3  4  0  0  0  0
  3  4  4  0  0  0  0
  3 25  1  0  0  0  0
  4  5  4  0  0  0  0
  4  7  4  0  0  0  0
  5  6  4  0  0  0  0
  5  9  4  0  0  0  0
  7  8  4  0  0  0  0
  7 26  1  0  0  0  0
  8  9  4  0  0  0  0
  9 10  1  0  0  0  0
 10 11  4  0  0  0  0
 10 15  4  0  0  0  0
 11 12  4  0  0  0  0
 11 27  1  0  0  0  0
 12 13  4  0  0  0  0
 12 28  1  0  0  0  0
 13 14  4  0  0  0  0
 13 16  1  0  0  0  0
 14 15  4  0  0  0  0
 14 29  1  0  0  0  0
 15 30  1  0  0  0  0
 16 17  1  0  0  0  0
 17 31  1  0  0  0  0
 17 32  1  0  0  0  0
 17 33  1  0  0  0  0
 18 19  1  0  0  0  0
 18 34  1  0  0  0  0
 19 20  1  0  0  0  0
 19 23  1  0  0  0  0
 19 35  1  0  0  0  0
 20 21  1  0  0  0  0
 20 36  1  0  0  0  0
 20 37  1  0  0  0  0
 21 22  1  0  0  0  0
 21 38  1  0  0  0  0
 21 39  1  0  0  0  0
 22 23  1  0  0  0  0
 22 24  1  0  0  0  0
 22 40  1  0  0  0  0
 23 41  1  0  0  0  0
 23 42  1  0  0  0  0
 24 43  1  0  0  0  0
 24 44  1  0  0  0  0
M  END
> <ConfClashScore>
0 

> <ConfOneFourInteractionScore>
-0.984337 

> <ConfScore>
-0.097258 

> <ConfScorePBest>
0.00485941 

> <ConfTolerance>
0.277884 

$$$$
c22.sdf
 OpenBabel04162418103D

 44 47  0  0  0  0  0  0  0  0999 V2000
    1.9452   -0.6102    0.1255 C   0  0  0  1  0  0  0  0  0  0  0  0
    2.0363    0.7234    0.1481 N   0  0  0  1  0  0  0  0  0  0  0  0
    0.8946    1.4376    0.0881 C   0  0  0  1  0  0  0  0  0  0  0  0
   -0.3453    0.7386    0.0096 C   0  0  0  1  0  0  0  0  0  0  0  0
   -0.2528   -0.6478    0.0020 C   0  0  0  1  0  0  0  0  0  0  0  0
    0.8779   -1.3913    0.0539 N   0  0  0  1  0  0  0  0  0  0  0  0
   -1.7303    0.9921   -0.0538 C   0  0  0  1  0  0  0  0  0  0  0  0
   -2.4282   -0.1191   -0.1028 N   0  0  0  1  0  0  0  0  0  0  0  0
   -1.5125   -1.1342   -0.0681 N   0  0  0  1  0  0  0  0  0  0  0  0
   -1.8385   -2.5052   -0.1010 C   0  0  0  1  0  0  0  0  0  0  0  0
   -1.4163   -3.2893    0.9558 C   0  0  0  1  0  0  0  0  0  0  0  0
   -1.7144   -4.6429    0.9766 C   0  0  0  1  0  0  0  0  0  0  0  0
   -2.4291   -5.2094   -0.0620 C   0  0  0  1  0  0  0  0  0  0  0  0
   -2.8523   -4.4227   -1.1219 C   0  0  0  1  0  0  0  0  0  0  0  0
   -2.5553   -3.0731   -1.1428 C   0  0  0  1  0  0  0  0  0  0  0  0
   -2.6332   -6.5407   -0.0933 O   0  0  0  1  0  0  0  0  0  0  0  0
   -2.0752   -7.2720    1.0231 C   0  0  0  1  0  0  0  0  0  0  0  0
    3.1379   -1.2696    0.1857 N   0  0  0  1  0  0  0  0  0  0  0  0
    3.2061   -2.7315    0.3175 C   0  0  0  1  0  0  0  0  0  0  0  0
    3.0204   -3.1509    1.7722 C   0  0  0  1  0  0  0  0  0  0  0  0
    4.4115   -3.4460    2.3464 C   0  0  0  1  0  0  0  0  0  0  0  0
    5.1413   -4.0972    1.1239 C   0  0  0  1  0  0  0  0  0  0  0  0
    4.6344   -3.2563   -0.0624 C   0  0  0  1  0  0  0  0  0  0  0  0
    4.7561   -5.5337    0.9694 N   0  0  0  1  0  0  0  0  0  0  0  0
    0.9179    2.4773    0.0988 H   0  0  0  1  0  0  0  0  0  0  0  0
   -2.1490    1.9440   -0.0608 H   0  0  0  1  0  0  0  0  0  0  0  0
   -0.8751   -2.8639    1.7354 H   0  0  0  1  0  0  0  0  0  0  0  0
   -1.4002   -5.2323    1.7738 H   0  0  0  1  0  0  0  0  0  0  0  0
   -3.3936   -4.8481   -1.9015 H   0  0  0  1  0  0  0  0  0  0  0  0
   -2.8694   -2.4837   -1.9400 H   0  0  0  1  0  0  0  0  0  0  0  0
   -2.4526   -6.8680    1.9392 H   0  0  0  1  0  0  0  0  0  0  0  0
   -1.0088   -7.1861    1.0082 H   0  0  0  1  0  0  0  0  0  0  0  0
   -2.3516   -8.3029    0.9477 H   0  0  0  1  0  0  0  0  0  0  0  0
    3.9707   -0.7551    0.1398 H   0  0  0  1  0  0  0  0  0  0  0  0
    2.4602   -3.1813   -0.3039 H   0  0  0  1  0  0  0  0  0  0  0  0
    2.4098   -4.0279    1.8246 H   0  0  0  1  0  0  0  0  0  0  0  0
    2.5576   -2.3599    2.3244 H   0  0  0  1  0  0  0  0  0  0  0  0
    4.3548   -4.1254    3.1712 H   0  0  0  1  0  0  0  0  0  0  0  0
    4.9017   -2.5472    2.6571 H   0  0  0  1  0  0  0  0  0  0  0  0
    6.2039   -4.0210    1.2241 H   0  0  0  1  0  0  0  0  0  0  0  0
    4.5803   -3.8610   -0.9436 H   0  0  0  1  0  0  0  0  0  0  0  0
    5.2939   -2.4316   -0.2353 H   0  0  0  1  0  0  0  0  0  0  0  0
    5.1514   -6.0584    1.6966 H   0  0  0  1  0  0  0  0  0  0  0  0
    5.0845   -5.8690    0.1091 H   0  0  0  1  0  0  0  0  0  0  0  0
  1  2  4  0  0  0  0
  1  6  4  0  0  0  0
  1 18  1  0  0  0  0
  2  3  4  0  0  0  0
  3  4  4  0  0  0  0
  3 25  1  0  0  0  0
  4  5  4  0  0  0  0
  4  7  4  0  0  0  0
  5  6  4  0  0  0  0
  5  9  4  0  0  0  0
  7  8  4  0  0  0  0
  7 26  1  0  0  0  0
  8  9  4  0  0  0  0
  9 10  1  0  0  0  0
 10 11  4  0  0  0  0
 10 15  4  0  0  0  0
 11 12  4  0  0  0  0
 11 27  1  0  0  0  0
 12 13  4  0  0  0  0
 12 28  1  0  0  0  0
 13 14  4  0  0  0  0
 13 16  1  0  0  0  0
 14 15  4  0  0  0  0
 14 29  1  0  0  0  0
 15 30  1  0  0  0  0
 16 17  1  0  0  0  0
 17 31  1  0  0  0  0
 17 32  1  0  0  0  0
 17 33  1  0  0  0  0
 18 19  1  0  0  0  0
 18 34  1  0  0  0  0
 19 20  1  0  0  0  0
 19 23  1  0  0  0  0
 19 35  1  0  0  0  0
 20 21  1  0  0  0  0
 20 36  1  0  0  0  0
 20 37  1  0  0  0  0
 21 22  1  0  0  0  0
 21 38  1  0  0  0  0
 21 39  1  0  0  0  0
 22 23  1  0  0  0  0
 22 24  1  0  0  0  0
 22 40  1  0  0  0  0
 23 41  1  0  0  0  0
 23 42  1  0  0  0  0
 24 43  1  0  0  0  0
 24 44  1  0  0  0  0
M  END
> <ConfClashScore>
0 

> <ConfOneFourInteractionScore>
-0.984337 

> <ConfScore>
-0.097258 

> <ConfScorePBest>
0.00484608 

> <ConfTolerance>
0.290677 

$$$$
c22.sdf
 OpenBabel04162418103D

 44 47  0  0  0  0  0  0  0  0999 V2000
    1.9452   -0.6103    0.1256 C   0  0  0  1  0  0  0  0  0  0  0  0
    2.0363    0.7233    0.1482 N   0  0  0  1  0  0  0  0  0  0  0  0
    0.8946    1.4375    0.0881 C   0  0  0  1  0  0  0  0  0  0  0  0
   -0.3453    0.7386    0.0096 C   0  0  0  1  0  0  0  0  0  0  0  0
   -0.2528   -0.6477    0.0021 C   0  0  0  1  0  0  0  0  0  0  0  0
    0.8779   -1.3913    0.0539 N   0  0  0  1  0  0  0  0  0  0  0  0
   -1.7304    0.9921   -0.0538 C   0  0  0  1  0  0  0  0  0  0  0  0
   -2.4281   -0.1191   -0.1029 N   0  0  0  1  0  0  0  0  0  0  0  0
   -1.5125   -1.1341   -0.0681 N   0  0  0  1  0  0  0  0  0  0  0  0
   -1.8396   -2.5099   -0.1010 C   0  0  0  1  0  0  0  0  0  0  0  0
   -2.6813   -3.0431    0.8568 C   0  0  0  1  0  0  0  0  0  0  0  0
   -3.0061   -4.3902    0.8214 C   0  0  0  1  0  0  0  0  0  0  0  0
   -2.4842   -5.2013   -0.1686 C   0  0  0  1  0  0  0  0  0  0  0  0
   -1.6400   -4.6663   -1.1293 C   0  0  0  1  0  0  0  0  0  0  0  0
   -1.3161   -3.3231   -1.0940 C   0  0  0  1  0  0  0  0  0  0  0  0
   -2.7249   -6.5273   -0.3018 O   0  0  0  1  0  0  0  0  0  0  0  0
   -3.6768   -7.1150    0.5987 C   0  0  0  1  0  0  0  0  0  0  0  0
    3.1257   -1.2628    0.1853 N   0  0  0  1  0  0  0  0  0  0  0  0
    3.2505   -2.7204    0.2368 C   0  0  0  1  0  0  0  0  0  0  0  0
    3.3257   -3.1913    1.6906 C   0  0  0  1  0  0  0  0  0  0  0  0
    4.7383   -3.7245    1.8866 C   0  0  0  1  0  0  0  0  0  0  0  0
    5.5805   -3.1411    0.7603 C   0  0  0  1  0  0  0  0  0  0  0  0
    4.5780   -3.1709   -0.4534 C   0  0  0  1  0  0  0  0  0  0  0  0
    6.7886   -3.9888    0.4890 N   0  0  0  1  0  0  0  0  0  0  0  0
    0.9179    2.4773    0.0987 H   0  0  0  1  0  0  0  0  0  0  0  0
   -2.1490    1.9441   -0.0609 H   0  0  0  1  0  0  0  0  0  0  0  0
   -3.0709   -2.4337    1.6042 H   0  0  0  1  0  0  0  0  0  0  0  0
   -3.6426   -4.7907    1.5397 H   0  0  0  1  0  0  0  0  0  0  0  0
   -1.2505   -5.2756   -1.8766 H   0  0  0  1  0  0  0  0  0  0  0  0
   -0.6796   -2.9226   -1.8124 H   0  0  0  1  0  0  0  0  0  0  0  0
   -3.8030   -8.1502    0.3593 H   0  0  0  1  0  0  0  0  0  0  0  0
   -4.6155   -6.6103    0.5042 H   0  0  0  1  0  0  0  0  0  0  0  0
   -3.3211   -7.0224    1.6036 H   0  0  0  1  0  0  0  0  0  0  0  0
    3.9476   -0.7292    0.1946 H   0  0  0  1  0  0  0  0  0  0  0  0
    2.4109   -3.1682   -0.2525 H   0  0  0  1  0  0  0  0  0  0  0  0
    2.6084   -3.9651    1.8681 H   0  0  0  1  0  0  0  0  0  0  0  0
    3.1413   -2.3739    2.3561 H   0  0  0  1  0  0  0  0  0  0  0  0
    5.1228   -3.4125    2.8352 H   0  0  0  1  0  0  0  0  0  0  0  0
    4.7406   -4.7932    1.8343 H   0  0  0  1  0  0  0  0  0  0  0  0
    5.8888   -2.1413    0.9843 H   0  0  0  1  0  0  0  0  0  0  0  0
    4.4911   -4.1545   -0.8656 H   0  0  0  1  0  0  0  0  0  0  0  0
    4.8722   -2.4865   -1.2214 H   0  0  0  1  0  0  0  0  0  0  0  0
    7.2710   -3.6324   -0.2860 H   0  0  0  1  0  0  0  0  0  0  0  0
    6.5067   -4.9088    0.3033 H   0  0  0  1  0  0  0  0  0  0  0  0
  1  2  4  0  0  0  0
  1  6  4  0  0  0  0
  1 18  1  0  0  0  0
  2  3  4  0  0  0  0
  3  4  4  0  0  0  0
  3 25  1  0  0  0  0
  4  5  4  0  0  0  0
  4  7  4  0  0  0  0
  5  6  4  0  0  0  0
  5  9  4  0  0  0  0
  7  8  4  0  0  0  0
  7 26  1  0  0  0  0
  8  9  4  0  0  0  0
  9 10  1  0  0  0  0
 10 11  4  0  0  0  0
 10 15  4  0  0  0  0
 11 12  4  0  0  0  0
 11 27  1  0  0  0  0
 12 13  4  0  0  0  0
 12 28  1  0  0  0  0
 13 14  4  0  0  0  0
 13 16  1  0  0  0  0
 14 15  4  0  0  0  0
 14 29  1  0  0  0  0
 15 30  1  0  0  0  0
 16 17  1  0  0  0  0
 17 31  1  0  0  0  0
 17 32  1  0  0  0  0
 17 33  1  0  0  0  0
 18 19  1  0  0  0  0
 18 34  1  0  0  0  0
 19 20  1  0  0  0  0
 19 23  1  0  0  0  0
 19 35  1  0  0  0  0
 20 21  1  0  0  0  0
 20 36  1  0  0  0  0
 20 37  1  0  0  0  0
 21 22  1  0  0  0  0
 21 38  1  0  0  0  0
 21 39  1  0  0  0  0
 22 23  1  0  0  0  0
 22 24  1  0  0  0  0
 22 40  1  0  0  0  0
 23 41  1  0  0  0  0
 23 42  1  0  0  0  0
 24 43  1  0  0  0  0
 24 44  1  0  0  0  0
M  END
> <ConfClashScore>
0 

> <ConfOneFourInteractionScore>
-0.984337 

> <ConfScore>
-0.0967773 

> <ConfScorePBest>
0.00483275 

> <ConfTolerance>
0.343683 

$$$$
c22.sdf
 OpenBabel04162418103D

 44 47  0  0  0  0  0  0  0  0999 V2000
    1.9452   -0.6103    0.1255 C   0  0  0  1  0  0  0  0  0  0  0  0
    2.0363    0.7233    0.1482 N   0  0  0  1  0  0  0  0  0  0  0  0
    0.8946    1.4376    0.0881 C   0  0  0  1  0  0  0  0  0  0  0  0
   -0.3452    0.7386    0.0096 C   0  0  0  1  0  0  0  0  0  0  0  0
   -0.2528   -0.6478    0.0020 C   0  0  0  1  0  0  0  0  0  0  0  0
    0.8779   -1.3913    0.0539 N   0  0  0  1  0  0  0  0  0  0  0  0
   -1.7304    0.9921   -0.0538 C   0  0  0  1  0  0  0  0  0  0  0  0
   -2.4281   -0.1191   -0.1028 N   0  0  0  1  0  0  0  0  0  0  0  0
   -1.5125   -1.1342   -0.0681 N   0  0  0  1  0  0  0  0  0  0  0  0
   -1.8422   -2.5202   -0.1014 C   0  0  0  1  0  0  0  0  0  0  0  0
   -2.4506   -3.1131    0.9888 C   0  0  0  1  0  0  0  0  0  0  0  0
   -2.6913   -4.4783    0.9905 C   0  0  0  1  0  0  0  0  0  0  0  0
   -2.3183   -5.2473   -0.0957 C   0  0  0  1  0  0  0  0  0  0  0  0
   -1.7080   -4.6524   -1.1891 C   0  0  0  1  0  0  0  0  0  0  0  0
   -1.4679   -3.2912   -1.1908 C   0  0  0  1  0  0  0  0  0  0  0  0
   -2.5769   -6.5748   -0.0288 O   0  0  0  1  0  0  0  0  0  0  0  0
   -3.4859   -7.0156    0.9919 C   0  0  0  1  0  0  0  0  0  0  0  0
    3.1213   -1.2605    0.1849 N   0  0  0  1  0  0  0  0  0  0  0  0
    4.4213   -0.5918    0.2282 C   0  0  0  1  0  0  0  0  0  0  0  0
    5.1258   -0.6670   -1.1195 C   0  0  0  1  0  0  0  0  0  0  0  0
    6.6140   -0.5094   -0.8384 C   0  0  0  1  0  0  0  0  0  0  0  0
    6.7982   -0.8246    0.6476 C   0  0  0  1  0  0  0  0  0  0  0  0
    5.4250   -1.3558    1.1705 C   0  0  0  1  0  0  0  0  0  0  0  0
    7.1876    0.4104    1.3900 N   0  0  0  1  0  0  0  0  0  0  0  0
    0.9179    2.4772    0.0988 H   0  0  0  1  0  0  0  0  0  0  0  0
   -2.1490    1.9442   -0.0607 H   0  0  0  1  0  0  0  0  0  0  0  0
   -2.7277   -2.5352    1.8078 H   0  0  0  1  0  0  0  0  0  0  0  0
   -3.1527   -4.9238    1.8090 H   0  0  0  1  0  0  0  0  0  0  0  0
   -1.4309   -5.2303   -2.0080 H   0  0  0  1  0  0  0  0  0  0  0  0
   -1.0064   -2.8456   -2.0094 H   0  0  0  1  0  0  0  0  0  0  0  0
   -2.9999   -6.9758    1.9444 H   0  0  0  1  0  0  0  0  0  0  0  0
   -3.7897   -8.0212    0.7885 H   0  0  0  1  0  0  0  0  0  0  0  0
   -4.3453   -6.3783    1.0034 H   0  0  0  1  0  0  0  0  0  0  0  0
    3.1062   -2.2402    0.1999 H   0  0  0  1  0  0  0  0  0  0  0  0
    4.2907    0.4228    0.5417 H   0  0  0  1  0  0  0  0  0  0  0  0
    4.9354   -1.6119   -1.5839 H   0  0  0  1  0  0  0  0  0  0  0  0
    4.7851    0.1205   -1.7589 H   0  0  0  1  0  0  0  0  0  0  0  0
    6.9277    0.4919   -1.0476 H   0  0  0  1  0  0  0  0  0  0  0  0
    7.1795   -1.1932   -1.4361 H   0  0  0  1  0  0  0  0  0  0  0  0
    7.5542   -1.5710    0.7746 H   0  0  0  1  0  0  0  0  0  0  0  0
    5.2708   -1.0987    2.1977 H   0  0  0  1  0  0  0  0  0  0  0  0
    5.3441   -2.4161    1.0517 H   0  0  0  1  0  0  0  0  0  0  0  0
    7.2167    0.2190    2.3508 H   0  0  0  1  0  0  0  0  0  0  0  0
    6.5297    1.1160    1.2176 H   0  0  0  1  0  0  0  0  0  0  0  0
  1  2  4  0  0  0  0
  1  6  4  0  0  0  0
  1 18  1  0  0  0  0
  2  3  4  0  0  0  0
  3  4  4  0  0  0  0
  3 25  1  0  0  0  0
  4  5  4  0  0  0  0
  4  7  4  0  0  0  0
  5  6  4  0  0  0  0
  5  9  4  0  0  0  0
  7  8  4  0  0  0  0
  7 26  1  0  0  0  0
  8  9  4  0  0  0  0
  9 10  1  0  0  0  0
 10 11  4  0  0  0  0
 10 15  4  0  0  0  0
 11 12  4  0  0  0  0
 11 27  1  0  0  0  0
 12 13  4  0  0  0  0
 12 28  1  0  0  0  0
 13 14  4  0  0  0  0
 13 16  1  0  0  0  0
 14 15  4  0  0  0  0
 14 29  1  0  0  0  0
 15 30  1  0  0  0  0
 16 17  1  0  0  0  0
 17 31  1  0  0  0  0
 17 32  1  0  0  0  0
 17 33  1  0  0  0  0
 18 19  1  0  0  0  0
 18 34  1  0  0  0  0
 19 20  1  0  0  0  0
 19 23  1  0  0  0  0
 19 35  1  0  0  0  0
 20 21  1  0  0  0  0
 20 36  1  0  0  0  0
 20 37  1  0  0  0  0
 21 22  1  0  0  0  0
 21 38  1  0  0  0  0
 21 39  1  0  0  0  0
 22 23  1  0  0  0  0
 22 24  1  0  0  0  0
 22 40  1  0  0  0  0
 23 41  1  0  0  0  0
 23 42  1  0  0  0  0
 24 43  1  0  0  0  0
 24 44  1  0  0  0  0
M  END
> <ConfClashScore>
0 

> <ConfOneFourInteractionScore>
-0.984337 

> <ConfScore>
-0.0967773 

> <ConfScorePBest>
0.00481943 

> <ConfTolerance>
0.302615 

$$$$
c22.sdf
 OpenBabel04162418103D

 44 47  0  0  0  0  0  0  0  0999 V2000
    1.9452   -0.6102    0.1255 C   0  0  0  1  0  0  0  0  0  0  0  0
    2.0363    0.7233    0.1481 N   0  0  0  1  0  0  0  0  0  0  0  0
    0.8946    1.4376    0.0881 C   0  0  0  1  0  0  0  0  0  0  0  0
   -0.3453    0.7387    0.0096 C   0  0  0  1  0  0  0  0  0  0  0  0
   -0.2529   -0.6477    0.0020 C   0  0  0  1  0  0  0  0  0  0  0  0
    0.8780   -1.3912    0.0538 N   0  0  0  1  0  0  0  0  0  0  0  0
   -1.7303    0.9921   -0.0538 C   0  0  0  1  0  0  0  0  0  0  0  0
   -2.4282   -0.1191   -0.1028 N   0  0  0  1  0  0  0  0  0  0  0  0
   -1.5125   -1.1341   -0.0681 N   0  0  0  1  0  0  0  0  0  0  0  0
   -1.8386   -2.5051   -0.1011 C   0  0  0  1  0  0  0  0  0  0  0  0
   -0.9243   -3.3672   -0.6766 C   0  0  0  1  0  0  0  0  0  0  0  0
   -1.1921   -4.7261   -0.7305 C   0  0  0  1  0  0  0  0  0  0  0  0
   -2.3757   -5.2185   -0.2137 C   0  0  0  1  0  0  0  0  0  0  0  0
   -3.2926   -4.3537    0.3635 C   0  0  0  1  0  0  0  0  0  0  0  0
   -3.0256   -2.9986    0.4173 C   0  0  0  1  0  0  0  0  0  0  0  0
   -2.4880   -6.5612   -0.3485 O   0  0  0  1  0  0  0  0  0  0  0  0
   -3.5556   -7.2052    0.3641 C   0  0  0  1  0  0  0  0  0  0  0  0
    3.1213   -1.2605    0.1848 N   0  0  0  1  0  0  0  0  0  0  0  0
    3.3119   -2.7054    0.2000 C   0  0  0  1  0  0  0  0  0  0  0  0
    4.4708   -3.1039    1.1219 C   0  0  0  1  0  0  0  0  0  0  0  0
    5.0006   -4.4488    0.6348 C   0  0  0  1  0  0  0  0  0  0  0  0
    4.4687   -4.5702   -0.8357 C   0  0  0  1  0  0  0  0  0  0  0  0
    3.8031   -3.2280   -1.1917 C   0  0  0  1  0  0  0  0  0  0  0  0
    3.4655   -5.6820   -0.9291 N   0  0  0  1  0  0  0  0  0  0  0  0
    0.9179    2.4773    0.0988 H   0  0  0  1  0  0  0  0  0  0  0  0
   -2.1490    1.9440   -0.0608 H   0  0  0  1  0  0  0  0  0  0  0  0
   -0.0355   -2.9962   -1.0691 H   0  0  0  1  0  0  0  0  0  0  0  0
   -0.5024   -5.3752   -1.1599 H   0  0  0  1  0  0  0  0  0  0  0  0
   -4.1813   -4.7246    0.7560 H   0  0  0  1  0  0  0  0  0  0  0  0
   -3.7154   -2.3494    0.8468 H   0  0  0  1  0  0  0  0  0  0  0  0
   -3.3662   -7.1519    1.4159 H   0  0  0  1  0  0  0  0  0  0  0  0
   -3.6165   -8.2307    0.0645 H   0  0  0  1  0  0  0  0  0  0  0  0
   -4.4796   -6.7130    0.1429 H   0  0  0  1  0  0  0  0  0  0  0  0
    3.9300   -0.7080    0.2215 H   0  0  0  1  0  0  0  0  0  0  0  0
    2.4005   -3.1828    0.4939 H   0  0  0  1  0  0  0  0  0  0  0  0
    4.1225   -3.1917    2.1298 H   0  0  0  1  0  0  0  0  0  0  0  0
    5.2453   -2.3672    1.0745 H   0  0  0  1  0  0  0  0  0  0  0  0
    6.0704   -4.4627    0.6524 H   0  0  0  1  0  0  0  0  0  0  0  0
    4.6230   -5.2459    1.2405 H   0  0  0  1  0  0  0  0  0  0  0  0
    5.2812   -4.7649   -1.5043 H   0  0  0  1  0  0  0  0  0  0  0  0
    2.9812   -3.3711   -1.8616 H   0  0  0  1  0  0  0  0  0  0  0  0
    4.5079   -2.5525   -1.6301 H   0  0  0  1  0  0  0  0  0  0  0  0
    3.2208   -5.8238   -1.8675 H   0  0  0  1  0  0  0  0  0  0  0  0
    2.6655   -5.4439   -0.4156 H   0  0  0  1  0  0  0  0  0  0  0  0
  1  2  4  0  0  0  0
  1  6  4  0  0  0  0
  1 18  1  0  0  0  0
  2  3  4  0  0  0  0
  3  4  4  0  0  0  0
  3 25  1  0  0  0  0
  4  5  4  0  0  0  0
  4  7  4  0  0  0  0
  5  6  4  0  0  0  0
  5  9  4  0  0  0  0
  7  8  4  0  0  0  0
  7 26  1  0  0  0  0
  8  9  4  0  0  0  0
  9 10  1  0  0  0  0
 10 11  4  0  0  0  0
 10 15  4  0  0  0  0
 11 12  4  0  0  0  0
 11 27  1  0  0  0  0
 12 13  4  0  0  0  0
 12 28  1  0  0  0  0
 13 14  4  0  0  0  0
 13 16  1  0  0  0  0
 14 15  4  0  0  0  0
 14 29  1  0  0  0  0
 15 30  1  0  0  0  0
 16 17  1  0  0  0  0
 17 31  1  0  0  0  0
 17 32  1  0  0  0  0
 17 33  1  0  0  0  0
 18 19  1  0  0  0  0
 18 34  1  0  0  0  0
 19 20  1  0  0  0  0
 19 23  1  0  0  0  0
 19 35  1  0  0  0  0
 20 21  1  0  0  0  0
 20 36  1  0  0  0  0
 20 37  1  0  0  0  0
 21 22  1  0  0  0  0
 21 38  1  0  0  0  0
 21 39  1  0  0  0  0
 22 23  1  0  0  0  0
 22 24  1  0  0  0  0
 22 40  1  0  0  0  0
 23 41  1  0  0  0  0
 23 42  1  0  0  0  0
 24 43  1  0  0  0  0
 24 44  1  0  0  0  0
M  END
> <ConfClashScore>
0 

> <ConfOneFourInteractionScore>
-0.984337 

> <ConfScore>
-0.095711 

> <ConfScorePBest>
0.0048061 

> <ConfTolerance>
0.247392 

$$$$
c22.sdf
 OpenBabel04162418103D

 44 47  0  0  0  0  0  0  0  0999 V2000
    1.9452   -0.6102    0.1257 C   0  0  0  1  0  0  0  0  0  0  0  0
    2.0363    0.7232    0.1482 N   0  0  0  1  0  0  0  0  0  0  0  0
    0.8946    1.4376    0.0881 C   0  0  0  1  0  0  0  0  0  0  0  0
   -0.3452    0.7386    0.0096 C   0  0  0  1  0  0  0  0  0  0  0  0
   -0.2528   -0.6477    0.0020 C   0  0  0  1  0  0  0  0  0  0  0  0
    0.8780   -1.3913    0.0540 N   0  0  0  1  0  0  0  0  0  0  0  0
   -1.7304    0.9921   -0.0538 C   0  0  0  1  0  0  0  0  0  0  0  0
   -2.4281   -0.1191   -0.1028 N   0  0  0  1  0  0  0  0  0  0  0  0
   -1.5125   -1.1342   -0.0681 N   0  0  0  1  0  0  0  0  0  0  0  0
   -1.8422   -2.5207   -0.1013 C   0  0  0  1  0  0  0  0  0  0  0  0
   -2.4018   -3.0664   -1.2411 C   0  0  0  1  0  0  0  0  0  0  0  0
   -2.6334   -4.4310   -1.3142 C   0  0  0  1  0  0  0  0  0  0  0  0
   -2.3099   -5.2454   -0.2453 C   0  0  0  1  0  0  0  0  0  0  0  0
   -1.7486   -4.6978    0.8979 C   0  0  0  1  0  0  0  0  0  0  0  0
   -1.5176   -3.3371    0.9708 C   0  0  0  1  0  0  0  0  0  0  0  0
   -2.5152   -6.5838   -0.2508 O   0  0  0  1  0  0  0  0  0  0  0  0
   -2.4286   -7.2661    1.0100 C   0  0  0  1  0  0  0  0  0  0  0  0
    3.1258   -1.2629    0.1852 N   0  0  0  1  0  0  0  0  0  0  0  0
    4.4297   -0.5935    0.1971 C   0  0  0  1  0  0  0  0  0  0  0  0
    5.5749   -1.5918   -0.0171 C   0  0  0  1  0  0  0  0  0  0  0  0
    5.7432   -2.2817    1.3310 C   0  0  0  1  0  0  0  0  0  0  0  0
    5.3089   -1.2462    2.3747 C   0  0  0  1  0  0  0  0  0  0  0  0
    4.7647   -0.0444    1.5865 C   0  0  0  1  0  0  0  0  0  0  0  0
    6.4762   -0.8318    3.2094 N   0  0  0  1  0  0  0  0  0  0  0  0
    0.9179    2.4773    0.0988 H   0  0  0  1  0  0  0  0  0  0  0  0
   -2.1490    1.9441   -0.0608 H   0  0  0  1  0  0  0  0  0  0  0  0
   -2.6490   -2.4532   -2.0440 H   0  0  0  1  0  0  0  0  0  0  0  0
   -3.0507   -4.8423   -2.1735 H   0  0  0  1  0  0  0  0  0  0  0  0
   -1.5014   -5.3110    1.7006 H   0  0  0  1  0  0  0  0  0  0  0  0
   -1.1003   -2.9258    1.8301 H   0  0  0  1  0  0  0  0  0  0  0  0
   -1.4472   -7.1406    1.4175 H   0  0  0  1  0  0  0  0  0  0  0  0
   -2.6239   -8.3082    0.8655 H   0  0  0  1  0  0  0  0  0  0  0  0
   -3.1503   -6.8580    1.6865 H   0  0  0  1  0  0  0  0  0  0  0  0
    3.1097   -2.2420    0.2228 H   0  0  0  1  0  0  0  0  0  0  0  0
    4.4411    0.1797   -0.5425 H   0  0  0  1  0  0  0  0  0  0  0  0
    5.3192   -2.3023   -0.7752 H   0  0  0  1  0  0  0  0  0  0  0  0
    6.4735   -1.0814   -0.2944 H   0  0  0  1  0  0  0  0  0  0  0  0
    6.7648   -2.5612    1.4834 H   0  0  0  1  0  0  0  0  0  0  0  0
    5.1229   -3.1517    1.3862 H   0  0  0  1  0  0  0  0  0  0  0  0
    4.5457   -1.6525    3.0049 H   0  0  0  1  0  0  0  0  0  0  0  0
    3.8867    0.3463    2.0570 H   0  0  0  1  0  0  0  0  0  0  0  0
    5.5051    0.7250    1.5171 H   0  0  0  1  0  0  0  0  0  0  0  0
    6.2102   -0.0988    3.8029 H   0  0  0  1  0  0  0  0  0  0  0  0
    7.2044   -0.5318    2.6261 H   0  0  0  1  0  0  0  0  0  0  0  0
  1  2  4  0  0  0  0
  1  6  4  0  0  0  0
  1 18  1  0  0  0  0
  2  3  4  0  0  0  0
  3  4  4  0  0  0  0
  3 25  1  0  0  0  0
  4  5  4  0  0  0  0
  4  7  4  0  0  0  0
  5  6  4  0  0  0  0
  5  9  4  0  0  0  0
  7  8  4  0  0  0  0
  7 26  1  0  0  0  0
  8  9  4  0  0  0  0
  9 10  1  0  0  0  0
 10 11  4  0  0  0  0
 10 15  4  0  0  0  0
 11 12  4  0  0  0  0
 11 27  1  0  0  0  0
 12 13  4  0  0  0  0
 12 28  1  0  0  0  0
 13 14  4  0  0  0  0
 13 16  1  0  0  0  0
 14 15  4  0  0  0  0
 14 29  1  0  0  0  0
 15 30  1  0  0  0  0
 16 17  1  0  0  0  0
 17 31  1  0  0  0  0
 17 32  1  0  0  0  0
 17 33  1  0  0  0  0
 18 19  1  0  0  0  0
 18 34  1  0  0  0  0
 19 20  1  0  0  0  0
 19 23  1  0  0  0  0
 19 35  1  0  0  0  0
 20 21  1  0  0  0  0
 20 36  1  0  0  0  0
 20 37  1  0  0  0  0
 21 22  1  0  0  0  0
 21 38  1  0  0  0  0
 21 39  1  0  0  0  0
 22 23  1  0  0  0  0
 22 24  1  0  0  0  0
 22 40  1  0  0  0  0
 23 41  1  0  0  0  0
 23 42  1  0  0  0  0
 24 43  1  0  0  0  0
 24 44  1  0  0  0  0
M  END
> <ConfClashScore>
0 

> <ConfOneFourInteractionScore>
-0.984337 

> <ConfScore>
-0.095355 

> <ConfScorePBest>
0.00479277 

> <ConfTolerance>
0.2586 

$$$$
c22.sdf
 OpenBabel04162418103D

 44 47  0  0  0  0  0  0  0  0999 V2000
    1.9452   -0.6102    0.1256 C   0  0  0  1  0  0  0  0  0  0  0  0
    2.0363    0.7233    0.1481 N   0  0  0  1  0  0  0  0  0  0  0  0
    0.8946    1.4375    0.0881 C   0  0  0  1  0  0  0  0  0  0  0  0
   -0.3453    0.7386    0.0096 C   0  0  0  1  0  0  0  0  0  0  0  0
   -0.2528   -0.6478    0.0019 C   0  0  0  1  0  0  0  0  0  0  0  0
    0.8779   -1.3912    0.0538 N   0  0  0  1  0  0  0  0  0  0  0  0
   -1.7304    0.9921   -0.0538 C   0  0  0  1  0  0  0  0  0  0  0  0
   -2.4281   -0.1192   -0.1029 N   0  0  0  1  0  0  0  0  0  0  0  0
   -1.5125   -1.1341   -0.0681 N   0  0  0  1  0  0  0  0  0  0  0  0
   -1.8419   -2.5192   -0.1014 C   0  0  0  1  0  0  0  0  0  0  0  0
   -2.7108   -3.0000   -1.0627 C   0  0  0  1  0  0  0  0  0  0  0  0
   -3.0271   -4.3491   -1.0983 C   0  0  0  1  0  0  0  0  0  0  0  0
   -2.4779   -5.2126   -0.1693 C   0  0  0  1  0  0  0  0  0  0  0  0
   -1.6064   -4.7303    0.7948 C   0  0  0  1  0  0  0  0  0  0  0  0
   -1.2909   -3.3851    0.8305 C   0  0  0  1  0  0  0  0  0  0  0  0
   -2.8618   -6.4975   -0.2988 O   0  0  0  1  0  0  0  0  0  0  0  0
   -2.0765   -7.4500    0.4553 C   0  0  0  1  0  0  0  0  0  0  0  0
    3.1257   -1.2628    0.1850 N   0  0  0  1  0  0  0  0  0  0  0  0
    3.2505   -2.7098    0.2114 C   0  0  0  1  0  0  0  0  0  0  0  0
    4.5935   -3.1219    0.8777 C   0  0  0  1  0  0  0  0  0  0  0  0
    5.4534   -3.7655   -0.2243 C   0  0  0  1  0  0  0  0  0  0  0  0
    4.8246   -3.3326   -1.5628 C   0  0  0  1  0  0  0  0  0  0  0  0
    3.2912   -3.2767   -1.2478 C   0  0  0  1  0  0  0  0  0  0  0  0
    5.1116   -4.3288   -2.6319 N   0  0  0  1  0  0  0  0  0  0  0  0
    0.9179    2.4773    0.0987 H   0  0  0  1  0  0  0  0  0  0  0  0
   -2.1490    1.9441   -0.0608 H   0  0  0  1  0  0  0  0  0  0  0  0
   -3.1272   -2.3496   -1.7592 H   0  0  0  1  0  0  0  0  0  0  0  0
   -3.6778   -4.7116   -1.8241 H   0  0  0  1  0  0  0  0  0  0  0  0
   -1.1900   -5.3806    1.4914 H   0  0  0  1  0  0  0  0  0  0  0  0
   -0.6402   -3.0226    1.5562 H   0  0  0  1  0  0  0  0  0  0  0  0
   -2.3322   -8.4436    0.1517 H   0  0  0  1  0  0  0  0  0  0  0  0
   -2.2803   -7.3328    1.4992 H   0  0  0  1  0  0  0  0  0  0  0  0
   -1.0364   -7.2781    0.2729 H   0  0  0  1  0  0  0  0  0  0  0  0
    3.9469   -0.7286    0.2123 H   0  0  0  1  0  0  0  0  0  0  0  0
    2.4263   -3.1297    0.7490 H   0  0  0  1  0  0  0  0  0  0  0  0
    5.0877   -2.2602    1.2750 H   0  0  0  1  0  0  0  0  0  0  0  0
    4.4145   -3.8253    1.6638 H   0  0  0  1  0  0  0  0  0  0  0  0
    5.4366   -4.8316   -0.1336 H   0  0  0  1  0  0  0  0  0  0  0  0
    6.4630   -3.4174   -0.1585 H   0  0  0  1  0  0  0  0  0  0  0  0
    5.1881   -2.3720   -1.8627 H   0  0  0  1  0  0  0  0  0  0  0  0
    2.7828   -2.6252   -1.9275 H   0  0  0  1  0  0  0  0  0  0  0  0
    2.8538   -4.2522   -1.2933 H   0  0  0  1  0  0  0  0  0  0  0  0
    4.6768   -4.0496   -3.4646 H   0  0  0  1  0  0  0  0  0  0  0  0
    4.7673   -5.2058   -2.3621 H   0  0  0  1  0  0  0  0  0  0  0  0
  1  2  4  0  0  0  0
  1  6  4  0  0  0  0
  1 18  1  0  0  0  0
  2  3  4  0  0  0  0
  3  4  4  0  0  0  0
  3 25  1  0  0  0  0
  4  5  4  0  0  0  0
  4  7  4  0  0  0  0
  5  6  4  0  0  0  0
  5  9  4  0  0  0  0
  7  8  4  0  0  0  0
  7 26  1  0  0  0  0
  8  9  4  0  0  0  0
  9 10  1  0  0  0  0
 10 11  4  0  0  0  0
 10 15  4  0  0  0  0
 11 12  4  0  0  0  0
 11 27  1  0  0  0  0
 12 13  4  0  0  0  0
 12 28  1  0  0  0  0
 13 14  4  0  0  0  0
 13 16  1  0  0  0  0
 14 15  4  0  0  0  0
 14 29  1  0  0  0  0
 15 30  1  0  0  0  0
 16 17  1  0  0  0  0
 17 31  1  0  0  0  0
 17 32  1  0  0  0  0
 17 33  1  0  0  0  0
 18 19  1  0  0  0  0
 18 34  1  0  0  0  0
 19 20  1  0  0  0  0
 19 23  1  0  0  0  0
 19 35  1  0  0  0  0
 20 21  1  0  0  0  0
 20 36  1  0  0  0  0
 20 37  1  0  0  0  0
 21 22  1  0  0  0  0
 21 38  1  0  0  0  0
 21 39  1  0  0  0  0
 22 23  1  0  0  0  0
 22 24  1  0  0  0  0
 22 40  1  0  0  0  0
 23 41  1  0  0  0  0
 23 42  1  0  0  0  0
 24 43  1  0  0  0  0
 24 44  1  0  0  0  0
M  END
> <ConfClashScore>
0 

> <ConfOneFourInteractionScore>
-0.984337 

> <ConfScore>
-0.0947753 

> <ConfScorePBest>
0.00477944 

> <ConfTolerance>
0.246641 

$$$$
c22.sdf
 OpenBabel04162418103D

 44 47  0  0  0  0  0  0  0  0999 V2000
    1.9453   -0.6103    0.1255 C   0  0  0  1  0  0  0  0  0  0  0  0
    2.0363    0.7233    0.1481 N   0  0  0  1  0  0  0  0  0  0  0  0
    0.8946    1.4376    0.0881 C   0  0  0  1  0  0  0  0  0  0  0  0
   -0.3452    0.7385    0.0096 C   0  0  0  1  0  0  0  0  0  0  0  0
   -0.2528   -0.6478    0.0019 C   0  0  0  1  0  0  0  0  0  0  0  0
    0.8780   -1.3913    0.0538 N   0  0  0  1  0  0  0  0  0  0  0  0
   -1.7304    0.9921   -0.0538 C   0  0  0  1  0  0  0  0  0  0  0  0
   -2.4281   -0.1191   -0.1028 N   0  0  0  1  0  0  0  0  0  0  0  0
   -1.5125   -1.1342   -0.0681 N   0  0  0  1  0  0  0  0  0  0  0  0
   -1.8385   -2.5051   -0.1010 C   0  0  0  1  0  0  0  0  0  0  0  0
   -1.4742   -3.3277   -1.1502 C   0  0  0  1  0  0  0  0  0  0  0  0
   -1.8163   -4.6708   -1.1289 C   0  0  0  1  0  0  0  0  0  0  0  0
   -2.5265   -5.1863   -0.0611 C   0  0  0  1  0  0  0  0  0  0  0  0
   -2.8920   -4.3611    0.9911 C   0  0  0  1  0  0  0  0  0  0  0  0
   -2.5509   -3.0219    0.9700 C   0  0  0  1  0  0  0  0  0  0  0  0
   -2.8078   -6.5077   -0.1535 O   0  0  0  1  0  0  0  0  0  0  0  0
   -3.7560   -7.0437    0.7825 C   0  0  0  1  0  0  0  0  0  0  0  0
    3.1213   -1.2605    0.1847 N   0  0  0  1  0  0  0  0  0  0  0  0
    3.3683   -2.6909    0.2394 C   0  0  0  1  0  0  0  0  0  0  0  0
    3.5173   -3.1787    1.6831 C   0  0  0  1  0  0  0  0  0  0  0  0
    4.3484   -4.4681    1.5894 C   0  0  0  1  0  0  0  0  0  0  0  0
    5.0639   -4.4188    0.2345 C   0  0  0  1  0  0  0  0  0  0  0  0
    4.7428   -3.0457   -0.3425 C   0  0  0  1  0  0  0  0  0  0  0  0
    4.5619   -5.4784   -0.6508 N   0  0  0  1  0  0  0  0  0  0  0  0
    0.9179    2.4772    0.0987 H   0  0  0  1  0  0  0  0  0  0  0  0
   -2.1490    1.9441   -0.0608 H   0  0  0  1  0  0  0  0  0  0  0  0
   -0.9432   -2.9389   -1.9555 H   0  0  0  1  0  0  0  0  0  0  0  0
   -1.5387   -5.2906   -1.9165 H   0  0  0  1  0  0  0  0  0  0  0  0
   -3.4229   -4.7498    1.7964 H   0  0  0  1  0  0  0  0  0  0  0  0
   -2.8285   -2.4020    1.7575 H   0  0  0  1  0  0  0  0  0  0  0  0
   -3.9956   -8.0507    0.5112 H   0  0  0  1  0  0  0  0  0  0  0  0
   -4.6458   -6.4496    0.7684 H   0  0  0  1  0  0  0  0  0  0  0  0
   -3.3332   -7.0304    1.7653 H   0  0  0  1  0  0  0  0  0  0  0  0
    3.9197   -0.6922    0.1921 H   0  0  0  1  0  0  0  0  0  0  0  0
    2.5823   -3.2087   -0.2695 H   0  0  0  1  0  0  0  0  0  0  0  0
    4.0258   -2.4470    2.2755 H   0  0  0  1  0  0  0  0  0  0  0  0
    2.5579   -3.3811    2.1114 H   0  0  0  1  0  0  0  0  0  0  0  0
    3.7098   -5.3252    1.6405 H   0  0  0  1  0  0  0  0  0  0  0  0
    5.0630   -4.5071    2.3849 H   0  0  0  1  0  0  0  0  0  0  0  0
    6.1199   -4.5326    0.3644 H   0  0  0  1  0  0  0  0  0  0  0  0
    4.7012   -3.0857   -1.4109 H   0  0  0  1  0  0  0  0  0  0  0  0
    5.4770   -2.3284   -0.0401 H   0  0  0  1  0  0  0  0  0  0  0  0
    3.6001   -5.3567   -0.7939 H   0  0  0  1  0  0  0  0  0  0  0  0
    4.7224   -6.3524   -0.2375 H   0  0  0  1  0  0  0  0  0  0  0  0
  1  2  4  0  0  0  0
  1  6  4  0  0  0  0
  1 18  1  0  0  0  0
  2  3  4  0  0  0  0
  3  4  4  0  0  0  0
  3 25  1  0  0  0  0
  4  5  4  0  0  0  0
  4  7  4  0  0  0  0
  5  6  4  0  0  0  0
  5  9  4  0  0  0  0
  7  8  4  0  0  0  0
  7 26  1  0  0  0  0
  8  9  4  0  0  0  0
  9 10  1  0  0  0  0
 10 11  4  0  0  0  0
 10 15  4  0  0  0  0
 11 12  4  0  0  0  0
 11 27  1  0  0  0  0
 12 13  4  0  0  0  0
 12 28  1  0  0  0  0
 13 14  4  0  0  0  0
 13 16  1  0  0  0  0
 14 15  4  0  0  0  0
 14 29  1  0  0  0  0
 15 30  1  0  0  0  0
 16 17  1  0  0  0  0
 17 31  1  0  0  0  0
 17 32  1  0  0  0  0
 17 33  1  0  0  0  0
 18 19  1  0  0  0  0
 18 34  1  0  0  0  0
 19 20  1  0  0  0  0
 19 23  1  0  0  0  0
 19 35  1  0  0  0  0
 20 21  1  0  0  0  0
 20 36  1  0  0  0  0
 20 37  1  0  0  0  0
 21 22  1  0  0  0  0
 21 38  1  0  0  0  0
 21 39  1  0  0  0  0
 22 23  1  0  0  0  0
 22 24  1  0  0  0  0
 22 40  1  0  0  0  0
 23 41  1  0  0  0  0
 23 42  1  0  0  0  0
 24 43  1  0  0  0  0
 24 44  1  0  0  0  0
M  END
> <ConfClashScore>
0 

> <ConfOneFourInteractionScore>
-0.984337 

> <ConfScore>
-0.0937748 

> <ConfScorePBest>
0.00476611 

> <ConfTolerance>
0.309655 

$$$$
c22.sdf
 OpenBabel04162418103D

 44 47  0  0  0  0  0  0  0  0999 V2000
    1.9452   -0.6102    0.1256 C   0  0  0  1  0  0  0  0  0  0  0  0
    2.0363    0.7233    0.1481 N   0  0  0  1  0  0  0  0  0  0  0  0
    0.8946    1.4376    0.0881 C   0  0  0  1  0  0  0  0  0  0  0  0
   -0.3453    0.7386    0.0096 C   0  0  0  1  0  0  0  0  0  0  0  0
   -0.2528   -0.6478    0.0020 C   0  0  0  1  0  0  0  0  0  0  0  0
    0.8779   -1.3913    0.0539 N   0  0  0  1  0  0  0  0  0  0  0  0
   -1.7303    0.9920   -0.0538 C   0  0  0  1  0  0  0  0  0  0  0  0
   -2.4281   -0.1191   -0.1029 N   0  0  0  1  0  0  0  0  0  0  0  0
   -1.5126   -1.1341   -0.0681 N   0  0  0  1  0  0  0  0  0  0  0  0
   -1.8386   -2.5051   -0.1010 C   0  0  0  1  0  0  0  0  0  0  0  0
   -0.9901   -3.3487   -0.7926 C   0  0  0  1  0  0  0  0  0  0  0  0
   -1.2605   -4.7070   -0.8523 C   0  0  0  1  0  0  0  0  0  0  0  0
   -2.3814   -5.2168   -0.2249 C   0  0  0  1  0  0  0  0  0  0  0  0
   -3.2324   -4.3705    0.4688 C   0  0  0  1  0  0  0  0  0  0  0  0
   -2.9629   -3.0162    0.5284 C   0  0  0  1  0  0  0  0  0  0  0  0
   -2.7500   -6.5199   -0.2185 O   0  0  0  1  0  0  0  0  0  0  0  0
   -1.9752   -7.4249   -1.0204 C   0  0  0  1  0  0  0  0  0  0  0  0
    3.1322   -1.2666    0.1855 N   0  0  0  1  0  0  0  0  0  0  0  0
    4.4319   -0.5967    0.2972 C   0  0  0  1  0  0  0  0  0  0  0  0
    5.5264   -1.3663   -0.4537 C   0  0  0  1  0  0  0  0  0  0  0  0
    5.8751   -2.5335    0.4613 C   0  0  0  1  0  0  0  0  0  0  0  0
    5.6011   -2.0312    1.8837 C   0  0  0  1  0  0  0  0  0  0  0  0
    4.9633   -0.6411    1.7324 C   0  0  0  1  0  0  0  0  0  0  0  0
    6.8597   -1.9353    2.6423 N   0  0  0  1  0  0  0  0  0  0  0  0
    0.9179    2.4772    0.0987 H   0  0  0  1  0  0  0  0  0  0  0  0
   -2.1490    1.9441   -0.0608 H   0  0  0  1  0  0  0  0  0  0  0  0
   -0.1487   -2.9645   -1.2682 H   0  0  0  1  0  0  0  0  0  0  0  0
   -0.6198   -5.3424   -1.3694 H   0  0  0  1  0  0  0  0  0  0  0  0
   -4.0738   -4.7546    0.9445 H   0  0  0  1  0  0  0  0  0  0  0  0
   -3.6036   -2.3807    1.0455 H   0  0  0  1  0  0  0  0  0  0  0  0
   -2.3422   -8.4215   -0.8898 H   0  0  0  1  0  0  0  0  0  0  0  0
   -0.9498   -7.3803   -0.7183 H   0  0  0  1  0  0  0  0  0  0  0  0
   -2.0566   -7.1473   -2.0505 H   0  0  0  1  0  0  0  0  0  0  0  0
    3.1197   -2.2459    0.1521 H   0  0  0  1  0  0  0  0  0  0  0  0
    4.3471    0.4092   -0.0577 H   0  0  0  1  0  0  0  0  0  0  0  0
    5.1603   -1.7207   -1.3945 H   0  0  0  1  0  0  0  0  0  0  0  0
    6.3820   -0.7444   -0.6147 H   0  0  0  1  0  0  0  0  0  0  0  0
    5.2603   -3.3804    0.2386 H   0  0  0  1  0  0  0  0  0  0  0  0
    6.9053   -2.8010    0.3508 H   0  0  0  1  0  0  0  0  0  0  0  0
    4.9296   -2.6941    2.3881 H   0  0  0  1  0  0  0  0  0  0  0  0
    5.6940    0.1255    1.8857 H   0  0  0  1  0  0  0  0  0  0  0  0
    4.1635   -0.5172    2.4324 H   0  0  0  1  0  0  0  0  0  0  0  0
    7.3299   -2.7944    2.6058 H   0  0  0  1  0  0  0  0  0  0  0  0
    6.6621   -1.7107    3.5756 H   0  0  0  1  0  0  0  0  0  0  0  0
  1  2  4  0  0  0  0
  1  6  4  0  0  0  0
  1 18  1  0  0  0  0
  2  3  4  0  0  0  0
  3  4  4  0  0  0  0
  3 25  1  0  0  0  0
  4  5  4  0  0  0  0
  4  7  4  0  0  0  0
  5  6  4  0  0  0  0
  5  9  4  0  0  0  0
  7  8  4  0  0  0  0
  7 26  1  0  0  0  0
  8  9  4  0  0  0  0
  9 10  1  0  0  0  0
 10 11  4  0  0  0  0
 10 15  4  0  0  0  0
 11 12  4  0  0  0  0
 11 27  1  0  0  0  0
 12 13  4  0  0  0  0
 12 28  1  0  0  0  0
 13 14  4  0  0  0  0
 13 16  1  0  0  0  0
 14 15  4  0  0  0  0
 14 29  1  0  0  0  0
 15 30  1  0  0  0  0
 16 17  1  0  0  0  0
 17 31  1  0  0  0  0
 17 32  1  0  0  0  0
 17 33  1  0  0  0  0
 18 19  1  0  0  0  0
 18 34  1  0  0  0  0
 19 20  1  0  0  0  0
 19 23  1  0  0  0  0
 19 35  1  0  0  0  0
 20 21  1  0  0  0  0
 20 36  1  0  0  0  0
 20 37  1  0  0  0  0
 21 22  1  0  0  0  0
 21 38  1  0  0  0  0
 21 39  1  0  0  0  0
 22 23  1  0  0  0  0
 22 24  1  0  0  0  0
 22 40  1  0  0  0  0
 23 41  1  0  0  0  0
 23 42  1  0  0  0  0
 24 43  1  0  0  0  0
 24 44  1  0  0  0  0
M  END
> <ConfClashScore>
0 

> <ConfOneFourInteractionScore>
-0.984337 

> <ConfScore>
-0.0930591 

> <ConfScorePBest>
0.00475278 

> <ConfTolerance>
0.211888 

$$$$
c22.sdf
 OpenBabel04162418103D

 44 47  0  0  0  0  0  0  0  0999 V2000
    1.9452   -0.6102    0.1255 C   0  0  0  1  0  0  0  0  0  0  0  0
    2.0363    0.7233    0.1481 N   0  0  0  1  0  0  0  0  0  0  0  0
    0.8946    1.4376    0.0881 C   0  0  0  1  0  0  0  0  0  0  0  0
   -0.3452    0.7387    0.0096 C   0  0  0  1  0  0  0  0  0  0  0  0
   -0.2528   -0.6477    0.0021 C   0  0  0  1  0  0  0  0  0  0  0  0
    0.8780   -1.3912    0.0539 N   0  0  0  1  0  0  0  0  0  0  0  0
   -1.7303    0.9921   -0.0538 C   0  0  0  1  0  0  0  0  0  0  0  0
   -2.4281   -0.1191   -0.1028 N   0  0  0  1  0  0  0  0  0  0  0  0
   -1.5126   -1.1342   -0.0681 N   0  0  0  1  0  0  0  0  0  0  0  0
   -1.8385   -2.5051   -0.1010 C   0  0  0  1  0  0  0  0  0  0  0  0
   -0.9849   -3.3501   -0.7847 C   0  0  0  1  0  0  0  0  0  0  0  0
   -1.2551   -4.7084   -0.8439 C   0  0  0  1  0  0  0  0  0  0  0  0
   -2.3809   -5.2170   -0.2240 C   0  0  0  1  0  0  0  0  0  0  0  0
   -3.2369   -4.3692    0.4616 C   0  0  0  1  0  0  0  0  0  0  0  0
   -2.9676   -3.0149    0.5209 C   0  0  0  1  0  0  0  0  0  0  0  0
   -2.7498   -6.5199   -0.2181 O   0  0  0  1  0  0  0  0  0  0  0  0
   -1.9419   -7.4341   -0.9757 C   0  0  0  1  0  0  0  0  0  0  0  0
    3.1545   -1.2787    0.1866 N   0  0  0  1  0  0  0  0  0  0  0  0
    3.1415   -2.7345    0.0181 C   0  0  0  1  0  0  0  0  0  0  0  0
    4.3608   -3.3592    0.6848 C   0  0  0  1  0  0  0  0  0  0  0  0
    4.6785   -4.5959   -0.1656 C   0  0  0  1  0  0  0  0  0  0  0  0
    4.4584   -4.0534   -1.5803 C   0  0  0  1  0  0  0  0  0  0  0  0
    3.2554   -3.1038   -1.4655 C   0  0  0  1  0  0  0  0  0  0  0  0
    4.1618   -5.1497   -2.5116 N   0  0  0  1  0  0  0  0  0  0  0  0
    0.9179    2.4773    0.0987 H   0  0  0  1  0  0  0  0  0  0  0  0
   -2.1490    1.9441   -0.0608 H   0  0  0  1  0  0  0  0  0  0  0  0
   -0.1400   -2.9669   -1.2546 H   0  0  0  1  0  0  0  0  0  0  0  0
   -0.6107   -5.3448   -1.3551 H   0  0  0  1  0  0  0  0  0  0  0  0
   -4.0820   -4.7524    0.9316 H   0  0  0  1  0  0  0  0  0  0  0  0
   -3.6121   -2.3783    1.0319 H   0  0  0  1  0  0  0  0  0  0  0  0
   -1.9585   -7.1541   -2.0083 H   0  0  0  1  0  0  0  0  0  0  0  0
   -2.3299   -8.4255   -0.8689 H   0  0  0  1  0  0  0  0  0  0  0  0
   -0.9352   -7.4037   -0.6143 H   0  0  0  1  0  0  0  0  0  0  0  0
    3.9930   -0.7945    0.3376 H   0  0  0  1  0  0  0  0  0  0  0  0
    2.2409   -3.1343    0.4353 H   0  0  0  1  0  0  0  0  0  0  0  0
    5.1847   -2.6763    0.6800 H   0  0  0  1  0  0  0  0  0  0  0  0
    4.1368   -3.6414    1.6923 H   0  0  0  1  0  0  0  0  0  0  0  0
    4.0105   -5.4029    0.0524 H   0  0  0  1  0  0  0  0  0  0  0  0
    5.6883   -4.9199   -0.0233 H   0  0  0  1  0  0  0  0  0  0  0  0
    5.3243   -3.5228   -1.9174 H   0  0  0  1  0  0  0  0  0  0  0  0
    3.4189   -2.2257   -2.0545 H   0  0  0  1  0  0  0  0  0  0  0  0
    2.3633   -3.5941   -1.7950 H   0  0  0  1  0  0  0  0  0  0  0  0
    4.8825   -5.8128   -2.4765 H   0  0  0  1  0  0  0  0  0  0  0  0
    4.0895   -4.7941   -3.4219 H   0  0  0  1  0  0  0  0  0  0  0  0
  1  2  4  0  0  0  0
  1  6  4  0  0  0  0
  1 18  1  0  0  0  0
  2  3  4  0  0  0  0
  3  4  4  0  0  0  0
  3 25  1  0  0  0  0
  4  5  4  0  0  0  0
  4  7  4  0  0  0  0
  5  6  4  0  0  0  0
  5  9  4  0  0  0  0
  7  8  4  0  0  0  0
  7 26  1  0  0  0  0
  8  9  4  0  0  0  0
  9 10  1  0  0  0  0
 10 11  4  0  0  0  0
 10 15  4  0  0  0  0
 11 12  4  0  0  0  0
 11 27  1  0  0  0  0
 12 13  4  0  0  0  0
 12 28  1  0  0  0  0
 13 14  4  0  0  0  0
 13 16  1  0  0  0  0
 14 15  4  0  0  0  0
 14 29  1  0  0  0  0
 15 30  1  0  0  0  0
 16 17  1  0  0  0  0
 17 31  1  0  0  0  0
 17 32  1  0  0  0  0
 17 33  1  0  0  0  0
 18 19  1  0  0  0  0
 18 34  1  0  0  0  0
 19 20  1  0  0  0  0
 19 23  1  0  0  0  0
 19 35  1  0  0  0  0
 20 21  1  0  0  0  0
 20 36  1  0  0  0  0
 20 37  1  0  0  0  0
 21 22  1  0  0  0  0
 21 38  1  0  0  0  0
 21 39  1  0  0  0  0
 22 23  1  0  0  0  0
 22 24  1  0  0  0  0
 22 40  1  0  0  0  0
 23 41  1  0  0  0  0
 23 42  1  0  0  0  0
 24 43  1  0  0  0  0
 24 44  1  0  0  0  0
M  END
> <ConfClashScore>
0 

> <ConfOneFourInteractionScore>
-0.984337 

> <ConfScore>
-0.0930591 

> <ConfScorePBest>
0.00473946 

> <ConfTolerance>
0.285548 

$$$$
c22.sdf
 OpenBabel04162418103D

 44 47  0  0  0  0  0  0  0  0999 V2000
    1.9452   -0.6102    0.1254 C   0  0  0  1  0  0  0  0  0  0  0  0
    2.0363    0.7233    0.1481 N   0  0  0  1  0  0  0  0  0  0  0  0
    0.8946    1.4376    0.0881 C   0  0  0  1  0  0  0  0  0  0  0  0
   -0.3453    0.7386    0.0096 C   0  0  0  1  0  0  0  0  0  0  0  0
   -0.2528   -0.6478    0.0020 C   0  0  0  1  0  0  0  0  0  0  0  0
    0.8779   -1.3913    0.0538 N   0  0  0  1  0  0  0  0  0  0  0  0
   -1.7303    0.9921   -0.0538 C   0  0  0  1  0  0  0  0  0  0  0  0
   -2.4282   -0.1192   -0.1028 N   0  0  0  1  0  0  0  0  0  0  0  0
   -1.5125   -1.1342   -0.0681 N   0  0  0  1  0  0  0  0  0  0  0  0
   -1.8386   -2.5051   -0.1009 C   0  0  0  1  0  0  0  0  0  0  0  0
   -0.9314   -3.4725   -0.4899 C   0  0  0  1  0  0  0  0  0  0  0  0
   -1.3035   -4.8078   -0.4987 C   0  0  0  1  0  0  0  0  0  0  0  0
   -2.5832   -5.1713   -0.1236 C   0  0  0  1  0  0  0  0  0  0  0  0
   -3.4929   -4.2009    0.2665 C   0  0  0  1  0  0  0  0  0  0  0  0
   -3.1219   -2.8694    0.2753 C   0  0  0  1  0  0  0  0  0  0  0  0
   -2.9386   -6.4684   -0.2508 O   0  0  0  1  0  0  0  0  0  0  0  0
   -2.0185   -7.4024   -0.8618 C   0  0  0  1  0  0  0  0  0  0  0  0
    3.1147   -1.2568    0.1845 N   0  0  0  1  0  0  0  0  0  0  0  0
    3.3047   -2.7023    0.2165 C   0  0  0  1  0  0  0  0  0  0  0  0
    2.9557   -3.2837    1.5927 C   0  0  0  1  0  0  0  0  0  0  0  0
    4.1571   -2.9508    2.4688 C   0  0  0  1  0  0  0  0  0  0  0  0
    5.3568   -2.9102    1.5152 C   0  0  0  1  0  0  0  0  0  0  0  0
    4.7848   -3.0755    0.0983 C   0  0  0  1  0  0  0  0  0  0  0  0
    6.2941   -4.0152    1.8224 N   0  0  0  1  0  0  0  0  0  0  0  0
    0.9179    2.4772    0.0988 H   0  0  0  1  0  0  0  0  0  0  0  0
   -2.1490    1.9441   -0.0607 H   0  0  0  1  0  0  0  0  0  0  0  0
    0.0303   -3.1988   -0.7761 H   0  0  0  1  0  0  0  0  0  0  0  0
   -0.6196   -5.5362   -0.7876 H   0  0  0  1  0  0  0  0  0  0  0  0
   -4.4545   -4.4747    0.5526 H   0  0  0  1  0  0  0  0  0  0  0  0
   -3.8058   -2.1410    0.5642 H   0  0  0  1  0  0  0  0  0  0  0  0
   -2.5050   -8.3456   -0.9984 H   0  0  0  1  0  0  0  0  0  0  0  0
   -1.1662   -7.5297   -0.2275 H   0  0  0  1  0  0  0  0  0  0  0  0
   -1.7035   -7.0230   -1.8114 H   0  0  0  1  0  0  0  0  0  0  0  0
    3.9240   -0.7045    0.2085 H   0  0  0  1  0  0  0  0  0  0  0  0
    2.7235   -3.1562   -0.5588 H   0  0  0  1  0  0  0  0  0  0  0  0
    2.0684   -2.8287    1.9805 H   0  0  0  1  0  0  0  0  0  0  0  0
    2.8161   -4.3428    1.5305 H   0  0  0  1  0  0  0  0  0  0  0  0
    4.0231   -2.0008    2.9425 H   0  0  0  1  0  0  0  0  0  0  0  0
    4.2971   -3.7052    3.2146 H   0  0  0  1  0  0  0  0  0  0  0  0
    5.8677   -1.9741    1.6018 H   0  0  0  1  0  0  0  0  0  0  0  0
    4.8912   -4.0872   -0.2333 H   0  0  0  1  0  0  0  0  0  0  0  0
    5.2831   -2.4210   -0.5859 H   0  0  0  1  0  0  0  0  0  0  0  0
    5.8302   -4.8733    1.7280 H   0  0  0  1  0  0  0  0  0  0  0  0
    6.6209   -3.9201    2.7414 H   0  0  0  1  0  0  0  0  0  0  0  0
  1  2  4  0  0  0  0
  1  6  4  0  0  0  0
  1 18  1  0  0  0  0
  2  3  4  0  0  0  0
  3  4  4  0  0  0  0
  3 25  1  0  0  0  0
  4  5  4  0  0  0  0
  4  7  4  0  0  0  0
  5  6  4  0  0  0  0
  5  9  4  0  0  0  0
  7  8  4  0  0  0  0
  7 26  1  0  0  0  0
  8  9  4  0  0  0  0
  9 10  1  0  0  0  0
 10 11  4  0  0  0  0
 10 15  4  0  0  0  0
 11 12  4  0  0  0  0
 11 27  1  0  0  0  0
 12 13  4  0  0  0  0
 12 28  1  0  0  0  0
 13 14  4  0  0  0  0
 13 16  1  0  0  0  0
 14 15  4  0  0  0  0
 14 29  1  0  0  0  0
 15 30  1  0  0  0  0
 16 17  1  0  0  0  0
 17 31  1  0  0  0  0
 17 32  1  0  0  0  0
 17 33  1  0  0  0  0
 18 19  1  0  0  0  0
 18 34  1  0  0  0  0
 19 20  1  0  0  0  0
 19 23  1  0  0  0  0
 19 35  1  0  0  0  0
 20 21  1  0  0  0  0
 20 36  1  0  0  0  0
 20 37  1  0  0  0  0
 21 22  1  0  0  0  0
 21 38  1  0  0  0  0
 21 39  1  0  0  0  0
 22 23  1  0  0  0  0
 22 24  1  0  0  0  0
 22 40  1  0  0  0  0
 23 41  1  0  0  0  0
 23 42  1  0  0  0  0
 24 43  1  0  0  0  0
 24 44  1  0  0  0  0
M  END
> <ConfClashScore>
0 

> <ConfOneFourInteractionScore>
-0.984337 

> <ConfScore>
-0.089401 

> <ConfScorePBest>
0.00472613 

> <ConfTolerance>
0.294225 

$$$$
c22.sdf
 OpenBabel04162418103D

 44 47  0  0  0  0  0  0  0  0999 V2000
    1.9452   -0.6103    0.1255 C   0  0  0  1  0  0  0  0  0  0  0  0
    2.0363    0.7233    0.1481 N   0  0  0  1  0  0  0  0  0  0  0  0
    0.8946    1.4376    0.0881 C   0  0  0  1  0  0  0  0  0  0  0  0
   -0.3452    0.7386    0.0096 C   0  0  0  1  0  0  0  0  0  0  0  0
   -0.2528   -0.6478    0.0020 C   0  0  0  1  0  0  0  0  0  0  0  0
    0.8780   -1.3913    0.0539 N   0  0  0  1  0  0  0  0  0  0  0  0
   -1.7303    0.9921   -0.0538 C   0  0  0  1  0  0  0  0  0  0  0  0
   -2.4281   -0.1192   -0.1028 N   0  0  0  1  0  0  0  0  0  0  0  0
   -1.5125   -1.1342   -0.0681 N   0  0  0  1  0  0  0  0  0  0  0  0
   -1.8415   -2.5177   -0.1012 C   0  0  0  1  0  0  0  0  0  0  0  0
   -2.7795   -2.9326   -1.0276 C   0  0  0  1  0  0  0  0  0  0  0  0
   -3.1997   -4.2534   -1.0444 C   0  0  0  1  0  0  0  0  0  0  0  0
   -2.6847   -5.1542   -0.1314 C   0  0  0  1  0  0  0  0  0  0  0  0
   -1.7440   -4.7380    0.7977 C   0  0  0  1  0  0  0  0  0  0  0  0
   -1.3249   -3.4210    0.8146 C   0  0  0  1  0  0  0  0  0  0  0  0
   -3.0198   -6.4565   -0.0488 O   0  0  0  1  0  0  0  0  0  0  0  0
   -4.0020   -6.8983   -1.0146 C   0  0  0  1  0  0  0  0  0  0  0  0
    3.1213   -1.2604    0.1849 N   0  0  0  1  0  0  0  0  0  0  0  0
    3.2451   -2.7155    0.3204 C   0  0  0  1  0  0  0  0  0  0  0  0
    4.3783   -3.0745    1.2876 C   0  0  0  1  0  0  0  0  0  0  0  0
    4.6879   -4.5089    0.8919 C   0  0  0  1  0  0  0  0  0  0  0  0
    4.5839   -4.5163   -0.6370 C   0  0  0  1  0  0  0  0  0  0  0  0
    3.6603   -3.3490   -1.0104 C   0  0  0  1  0  0  0  0  0  0  0  0
    4.0063   -5.7976   -1.1057 N   0  0  0  1  0  0  0  0  0  0  0  0
    0.9179    2.4772    0.0988 H   0  0  0  1  0  0  0  0  0  0  0  0
   -2.1490    1.9441   -0.0608 H   0  0  0  1  0  0  0  0  0  0  0  0
   -3.1700   -2.2539   -1.7121 H   0  0  0  1  0  0  0  0  0  0  0  0
   -3.9026   -4.5666   -1.7440 H   0  0  0  1  0  0  0  0  0  0  0  0
   -1.3534   -5.4166    1.4822 H   0  0  0  1  0  0  0  0  0  0  0  0
   -0.6221   -3.1078    1.5142 H   0  0  0  1  0  0  0  0  0  0  0  0
   -3.6308   -6.7302   -2.0040 H   0  0  0  1  0  0  0  0  0  0  0  0
   -4.9099   -6.3491   -0.8764 H   0  0  0  1  0  0  0  0  0  0  0  0
   -4.1918   -7.9424   -0.8777 H   0  0  0  1  0  0  0  0  0  0  0  0
    3.9442   -0.7305    0.1347 H   0  0  0  1  0  0  0  0  0  0  0  0
    2.3156   -3.1230    0.6593 H   0  0  0  1  0  0  0  0  0  0  0  0
    4.0546   -3.0134    2.3057 H   0  0  0  1  0  0  0  0  0  0  0  0
    5.2276   -2.4397    1.1443 H   0  0  0  1  0  0  0  0  0  0  0  0
    5.6736   -4.7831    1.2050 H   0  0  0  1  0  0  0  0  0  0  0  0
    3.9762   -5.1819    1.3225 H   0  0  0  1  0  0  0  0  0  0  0  0
    5.5504   -4.3787   -1.0749 H   0  0  0  1  0  0  0  0  0  0  0  0
    4.1822   -2.6382   -1.6163 H   0  0  0  1  0  0  0  0  0  0  0  0
    2.8010   -3.7061   -1.5387 H   0  0  0  1  0  0  0  0  0  0  0  0
    4.5313   -6.5436   -0.7473 H   0  0  0  1  0  0  0  0  0  0  0  0
    4.0259   -5.8256   -2.0851 H   0  0  0  1  0  0  0  0  0  0  0  0
  1  2  4  0  0  0  0
  1  6  4  0  0  0  0
  1 18  1  0  0  0  0
  2  3  4  0  0  0  0
  3  4  4  0  0  0  0
  3 25  1  0  0  0  0
  4  5  4  0  0  0  0
  4  7  4  0  0  0  0
  5  6  4  0  0  0  0
  5  9  4  0  0  0  0
  7  8  4  0  0  0  0
  7 26  1  0  0  0  0
  8  9  4  0  0  0  0
  9 10  1  0  0  0  0
 10 11  4  0  0  0  0
 10 15  4  0  0  0  0
 11 12  4  0  0  0  0
 11 27  1  0  0  0  0
 12 13  4  0  0  0  0
 12 28  1  0  0  0  0
 13 14  4  0  0  0  0
 13 16  1  0  0  0  0
 14 15  4  0  0  0  0
 14 29  1  0  0  0  0
 15 30  1  0  0  0  0
 16 17  1  0  0  0  0
 17 31  1  0  0  0  0
 17 32  1  0  0  0  0
 17 33  1  0  0  0  0
 18 19  1  0  0  0  0
 18 34  1  0  0  0  0
 19 20  1  0  0  0  0
 19 23  1  0  0  0  0
 19 35  1  0  0  0  0
 20 21  1  0  0  0  0
 20 36  1  0  0  0  0
 20 37  1  0  0  0  0
 21 22  1  0  0  0  0
 21 38  1  0  0  0  0
 21 39  1  0  0  0  0
 22 23  1  0  0  0  0
 22 24  1  0  0  0  0
 22 40  1  0  0  0  0
 23 41  1  0  0  0  0
 23 42  1  0  0  0  0
 24 43  1  0  0  0  0
 24 44  1  0  0  0  0
M  END
> <ConfClashScore>
0 

> <ConfOneFourInteractionScore>
-0.984337 

> <ConfScore>
-0.0888154 

> <ConfScorePBest>
0.0047128 

> <ConfTolerance>
0.243643 

$$$$
c22.sdf
 OpenBabel04162418103D

 44 47  0  0  0  0  0  0  0  0999 V2000
    1.9452   -0.6103    0.1255 C   0  0  0  1  0  0  0  0  0  0  0  0
    2.0363    0.7232    0.1482 N   0  0  0  1  0  0  0  0  0  0  0  0
    0.8946    1.4376    0.0881 C   0  0  0  1  0  0  0  0  0  0  0  0
   -0.3452    0.7386    0.0096 C   0  0  0  1  0  0  0  0  0  0  0  0
   -0.2528   -0.6478    0.0020 C   0  0  0  1  0  0  0  0  0  0  0  0
    0.8779   -1.3913    0.0538 N   0  0  0  1  0  0  0  0  0  0  0  0
   -1.7303    0.9921   -0.0538 C   0  0  0  1  0  0  0  0  0  0  0  0
   -2.4281   -0.1191   -0.1029 N   0  0  0  1  0  0  0  0  0  0  0  0
   -1.5125   -1.1342   -0.0681 N   0  0  0  1  0  0  0  0  0  0  0  0
   -1.8419   -2.5193   -0.1015 C   0  0  0  1  0  0  0  0  0  0  0  0
   -2.6516   -3.0606    0.8791 C   0  0  0  1  0  0  0  0  0  0  0  0
   -2.9766   -4.4077    0.8436 C   0  0  0  1  0  0  0  0  0  0  0  0
   -2.4864   -5.2106   -0.1691 C   0  0  0  1  0  0  0  0  0  0  0  0
   -1.6743   -4.6675   -1.1523 C   0  0  0  1  0  0  0  0  0  0  0  0
   -1.3502   -3.3243   -1.1172 C   0  0  0  1  0  0  0  0  0  0  0  0
   -2.8643   -6.5018   -0.0968 O   0  0  0  1  0  0  0  0  0  0  0  0
   -2.5492   -7.2979   -1.2628 C   0  0  0  1  0  0  0  0  0  0  0  0
    3.1214   -1.2605    0.1849 N   0  0  0  1  0  0  0  0  0  0  0  0
    4.4452   -0.6523    0.3464 C   0  0  0  1  0  0  0  0  0  0  0  0
    5.0949   -0.3534   -1.0109 C   0  0  0  1  0  0  0  0  0  0  0  0
    5.6040   -1.7032   -1.5012 C   0  0  0  1  0  0  0  0  0  0  0  0
    5.9218   -2.5031   -0.2325 C   0  0  0  1  0  0  0  0  0  0  0  0
    5.4465   -1.6420    0.9482 C   0  0  0  1  0  0  0  0  0  0  0  0
    7.3705   -2.7493   -0.1340 N   0  0  0  1  0  0  0  0  0  0  0  0
    0.9178    2.4772    0.0988 H   0  0  0  1  0  0  0  0  0  0  0  0
   -2.1489    1.9441   -0.0607 H   0  0  0  1  0  0  0  0  0  0  0  0
   -3.0172   -2.4574    1.6433 H   0  0  0  1  0  0  0  0  0  0  0  0
   -3.5891   -4.8144    1.5792 H   0  0  0  1  0  0  0  0  0  0  0  0
   -1.3088   -5.2707   -1.9166 H   0  0  0  1  0  0  0  0  0  0  0  0
   -0.7376   -2.9177   -1.8526 H   0  0  0  1  0  0  0  0  0  0  0  0
   -2.9420   -8.2853   -1.1378 H   0  0  0  1  0  0  0  0  0  0  0  0
   -1.4872   -7.3494   -1.3828 H   0  0  0  1  0  0  0  0  0  0  0  0
   -2.9853   -6.8479   -2.1301 H   0  0  0  1  0  0  0  0  0  0  0  0
    3.0899   -2.2374    0.1130 H   0  0  0  1  0  0  0  0  0  0  0  0
    4.3617    0.2317    0.9434 H   0  0  0  1  0  0  0  0  0  0  0  0
    5.9048    0.3367   -0.8978 H   0  0  0  1  0  0  0  0  0  0  0  0
    4.3754    0.0489   -1.6931 H   0  0  0  1  0  0  0  0  0  0  0  0
    4.8520   -2.1997   -2.0783 H   0  0  0  1  0  0  0  0  0  0  0  0
    6.4851   -1.5777   -2.0952 H   0  0  0  1  0  0  0  0  0  0  0  0
    5.4007   -3.4376   -0.2433 H   0  0  0  1  0  0  0  0  0  0  0  0
    6.2709   -1.1206    1.3879 H   0  0  0  1  0  0  0  0  0  0  0  0
    4.9726   -2.2507    1.6896 H   0  0  0  1  0  0  0  0  0  0  0  0
    7.6392   -3.3990   -0.8168 H   0  0  0  1  0  0  0  0  0  0  0  0
    7.5817   -3.1037    0.7549 H   0  0  0  1  0  0  0  0  0  0  0  0
  1  2  4  0  0  0  0
  1  6  4  0  0  0  0
  1 18  1  0  0  0  0
  2  3  4  0  0  0  0
  3  4  4  0  0  0  0
  3 25  1  0  0  0  0
  4  5  4  0  0  0  0
  4  7  4  0  0  0  0
  5  6  4  0  0  0  0
  5  9  4  0  0  0  0
  7  8  4  0  0  0  0
  7 26  1  0  0  0  0
  8  9  4  0  0  0  0
  9 10  1  0  0  0  0
 10 11  4  0  0  0  0
 10 15  4  0  0  0  0
 11 12  4  0  0  0  0
 11 27  1  0  0  0  0
 12 13  4  0  0  0  0
 12 28  1  0  0  0  0
 13 14  4  0  0  0  0
 13 16  1  0  0  0  0
 14 15  4  0  0  0  0
 14 29  1  0  0  0  0
 15 30  1  0  0  0  0
 16 17  1  0  0  0  0
 17 31  1  0  0  0  0
 17 32  1  0  0  0  0
 17 33  1  0  0  0  0
 18 19  1  0  0  0  0
 18 34  1  0  0  0  0
 19 20  1  0  0  0  0
 19 23  1  0  0  0  0
 19 35  1  0  0  0  0
 20 21  1  0  0  0  0
 20 36  1  0  0  0  0
 20 37  1  0  0  0  0
 21 22  1  0  0  0  0
 21 38  1  0  0  0  0
 21 39  1  0  0  0  0
 22 23  1  0  0  0  0
 22 24  1  0  0  0  0
 22 40  1  0  0  0  0
 23 41  1  0  0  0  0
 23 42  1  0  0  0  0
 24 43  1  0  0  0  0
 24 44  1  0  0  0  0
M  END
> <ConfClashScore>
0 

> <ConfOneFourInteractionScore>
-0.984337 

> <ConfScore>
-0.0875106 

> <ConfScorePBest>
0.00469947 

> <ConfTolerance>
0.222947 

$$$$
c22.sdf
 OpenBabel04162418103D

 44 47  0  0  0  0  0  0  0  0999 V2000
    1.9452   -0.6102    0.1256 C   0  0  0  1  0  0  0  0  0  0  0  0
    2.0363    0.7233    0.1482 N   0  0  0  1  0  0  0  0  0  0  0  0
    0.8946    1.4376    0.0881 C   0  0  0  1  0  0  0  0  0  0  0  0
   -0.3452    0.7386    0.0096 C   0  0  0  1  0  0  0  0  0  0  0  0
   -0.2528   -0.6478    0.0020 C   0  0  0  1  0  0  0  0  0  0  0  0
    0.8779   -1.3913    0.0540 N   0  0  0  1  0  0  0  0  0  0  0  0
   -1.7303    0.9921   -0.0538 C   0  0  0  1  0  0  0  0  0  0  0  0
   -2.4281   -0.1192   -0.1029 N   0  0  0  1  0  0  0  0  0  0  0  0
   -1.5125   -1.1341   -0.0681 N   0  0  0  1  0  0  0  0  0  0  0  0
   -1.8416   -2.5185   -0.1013 C   0  0  0  1  0  0  0  0  0  0  0  0
   -1.3897   -3.3603    0.8974 C   0  0  0  1  0  0  0  0  0  0  0  0
   -1.7148   -4.7074    0.8679 C   0  0  0  1  0  0  0  0  0  0  0  0
   -2.4862   -5.2099   -0.1630 C   0  0  0  1  0  0  0  0  0  0  0  0
   -2.9393   -4.3655   -1.1646 C   0  0  0  1  0  0  0  0  0  0  0  0
   -2.6153   -3.0222   -1.1353 C   0  0  0  1  0  0  0  0  0  0  0  0
   -2.7342   -6.5391   -0.0885 O   0  0  0  1  0  0  0  0  0  0  0  0
   -3.5919   -7.1040   -1.0923 C   0  0  0  1  0  0  0  0  0  0  0  0
    3.1543   -1.2786    0.1867 N   0  0  0  1  0  0  0  0  0  0  0  0
    4.4076   -0.5194    0.2274 C   0  0  0  1  0  0  0  0  0  0  0  0
    4.8458   -0.0771   -1.2091 C   0  0  0  1  0  0  0  0  0  0  0  0
    5.4830   -1.3582   -1.7610 C   0  0  0  1  0  0  0  0  0  0  0  0
    6.2104   -2.0406   -0.6069 C   0  0  0  1  0  0  0  0  0  0  0  0
    5.5799   -1.4081    0.6824 C   0  0  0  1  0  0  0  0  0  0  0  0
    7.6755   -1.7628   -0.6687 N   0  0  0  1  0  0  0  0  0  0  0  0
    0.9179    2.4772    0.0988 H   0  0  0  1  0  0  0  0  0  0  0  0
   -2.1490    1.9440   -0.0609 H   0  0  0  1  0  0  0  0  0  0  0  0
   -0.8060   -2.9829    1.6710 H   0  0  0  1  0  0  0  0  0  0  0  0
   -1.3782   -5.3401    1.6215 H   0  0  0  1  0  0  0  0  0  0  0  0
   -3.5231   -4.7428   -1.9382 H   0  0  0  1  0  0  0  0  0  0  0  0
   -2.9518   -2.3895   -1.8889 H   0  0  0  1  0  0  0  0  0  0  0  0
   -4.6134   -6.9882   -0.7956 H   0  0  0  1  0  0  0  0  0  0  0  0
   -3.3697   -8.1444   -1.2067 H   0  0  0  1  0  0  0  0  0  0  0  0
   -3.4317   -6.6002   -2.0226 H   0  0  0  1  0  0  0  0  0  0  0  0
    3.1732   -2.2583    0.2027 H   0  0  0  1  0  0  0  0  0  0  0  0
    4.2921    0.3263    0.8726 H   0  0  0  1  0  0  0  0  0  0  0  0
    5.5552    0.7230   -1.1692 H   0  0  0  1  0  0  0  0  0  0  0  0
    4.0032    0.2216   -1.7970 H   0  0  0  1  0  0  0  0  0  0  0  0
    6.1773   -1.1155   -2.5381 H   0  0  0  1  0  0  0  0  0  0  0  0
    4.7246   -2.0057   -2.1490 H   0  0  0  1  0  0  0  0  0  0  0  0
    6.0461   -3.0978   -0.6287 H   0  0  0  1  0  0  0  0  0  0  0  0
    6.3099   -0.8174    1.1953 H   0  0  0  1  0  0  0  0  0  0  0  0
    5.2239   -2.1798    1.3326 H   0  0  0  1  0  0  0  0  0  0  0  0
    8.1158   -2.1526    0.1153 H   0  0  0  1  0  0  0  0  0  0  0  0
    7.8240   -0.7940   -0.6784 H   0  0  0  1  0  0  0  0  0  0  0  0
  1  2  4  0  0  0  0
  1  6  4  0  0  0  0
  1 18  1  0  0  0  0
  2  3  4  0  0  0  0
  3  4  4  0  0  0  0
  3 25  1  0  0  0  0
  4  5  4  0  0  0  0
  4  7  4  0  0  0  0
  5  6  4  0  0  0  0
  5  9  4  0  0  0  0
  7  8  4  0  0  0  0
  7 26  1  0  0  0  0
  8  9  4  0  0  0  0
  9 10  1  0  0  0  0
 10 11  4  0  0  0  0
 10 15  4  0  0  0  0
 11 12  4  0  0  0  0
 11 27  1  0  0  0  0
 12 13  4  0  0  0  0
 12 28  1  0  0  0  0
 13 14  4  0  0  0  0
 13 16  1  0  0  0  0
 14 15  4  0  0  0  0
 14 29  1  0  0  0  0
 15 30  1  0  0  0  0
 16 17  1  0  0  0  0
 17 31  1  0  0  0  0
 17 32  1  0  0  0  0
 17 33  1  0  0  0  0
 18 19  1  0  0  0  0
 18 34  1  0  0  0  0
 19 20  1  0  0  0  0
 19 23  1  0  0  0  0
 19 35  1  0  0  0  0
 20 21  1  0  0  0  0
 20 36  1  0  0  0  0
 20 37  1  0  0  0  0
 21 22  1  0  0  0  0
 21 38  1  0  0  0  0
 21 39  1  0  0  0  0
 22 23  1  0  0  0  0
 22 24  1  0  0  0  0
 22 40  1  0  0  0  0
 23 41  1  0  0  0  0
 23 42  1  0  0  0  0
 24 43  1  0  0  0  0
 24 44  1  0  0  0  0
M  END
> <ConfClashScore>
0 

> <ConfOneFourInteractionScore>
-0.984337 

> <ConfScore>
-0.0867295 

> <ConfScorePBest>
0.00468614 

> <ConfTolerance>
0.277788 

$$$$
c22.sdf
 OpenBabel04162418103D

 44 47  0  0  0  0  0  0  0  0999 V2000
    1.9453   -0.6101    0.1256 C   0  0  0  1  0  0  0  0  0  0  0  0
    2.0363    0.7233    0.1481 N   0  0  0  1  0  0  0  0  0  0  0  0
    0.8946    1.4376    0.0881 C   0  0  0  1  0  0  0  0  0  0  0  0
   -0.3452    0.7386    0.0096 C   0  0  0  1  0  0  0  0  0  0  0  0
   -0.2528   -0.6478    0.0020 C   0  0  0  1  0  0  0  0  0  0  0  0
    0.8779   -1.3912    0.0539 N   0  0  0  1  0  0  0  0  0  0  0  0
   -1.7303    0.9921   -0.0538 C   0  0  0  1  0  0  0  0  0  0  0  0
   -2.4281   -0.1191   -0.1029 N   0  0  0  1  0  0  0  0  0  0  0  0
   -1.5126   -1.1342   -0.0681 N   0  0  0  1  0  0  0  0  0  0  0  0
   -1.8415   -2.5177   -0.1014 C   0  0  0  1  0  0  0  0  0  0  0  0
   -2.8262   -3.0590    0.7033 C   0  0  0  1  0  0  0  0  0  0  0  0
   -3.1804   -4.3919    0.5632 C   0  0  0  1  0  0  0  0  0  0  0  0
   -2.5453   -5.1807   -0.3773 C   0  0  0  1  0  0  0  0  0  0  0  0
   -1.5576   -4.6375   -1.1843 C   0  0  0  1  0  0  0  0  0  0  0  0
   -1.2043   -3.3086   -1.0447 C   0  0  0  1  0  0  0  0  0  0  0  0
   -2.9303   -6.4574   -0.6132 O   0  0  0  1  0  0  0  0  0  0  0  0
   -2.0901   -7.2490   -1.4676 C   0  0  0  1  0  0  0  0  0  0  0  0
    3.1213   -1.2604    0.1849 N   0  0  0  1  0  0  0  0  0  0  0  0
    3.2471   -2.7074    0.1925 C   0  0  0  1  0  0  0  0  0  0  0  0
    4.5286   -3.1255    0.9227 C   0  0  0  1  0  0  0  0  0  0  0  0
    5.4172   -3.7500   -0.1460 C   0  0  0  1  0  0  0  0  0  0  0  0
    4.4385   -4.3405   -1.1693 C   0  0  0  1  0  0  0  0  0  0  0  0
    3.3789   -3.2380   -1.2439 C   0  0  0  1  0  0  0  0  0  0  0  0
    3.8598   -5.6161   -0.6914 N   0  0  0  1  0  0  0  0  0  0  0  0
    0.9179    2.4773    0.0988 H   0  0  0  1  0  0  0  0  0  0  0  0
   -2.1490    1.9441   -0.0608 H   0  0  0  1  0  0  0  0  0  0  0  0
   -3.3013   -2.4666    1.4138 H   0  0  0  1  0  0  0  0  0  0  0  0
   -3.9242   -4.7983    1.1658 H   0  0  0  1  0  0  0  0  0  0  0  0
   -1.0825   -5.2299   -1.8948 H   0  0  0  1  0  0  0  0  0  0  0  0
   -0.4606   -2.9021   -1.6473 H   0  0  0  1  0  0  0  0  0  0  0  0
   -2.5403   -8.2071   -1.6230 H   0  0  0  1  0  0  0  0  0  0  0  0
   -1.1323   -7.3756   -1.0076 H   0  0  0  1  0  0  0  0  0  0  0  0
   -1.9717   -6.7540   -2.4088 H   0  0  0  1  0  0  0  0  0  0  0  0
    3.9419   -0.7262    0.2255 H   0  0  0  1  0  0  0  0  0  0  0  0
    2.3914   -3.1378    0.6696 H   0  0  0  1  0  0  0  0  0  0  0  0
    4.3073   -3.8387    1.6890 H   0  0  0  1  0  0  0  0  0  0  0  0
    5.0077   -2.2726    1.3561 H   0  0  0  1  0  0  0  0  0  0  0  0
    6.0374   -3.0071   -0.6024 H   0  0  0  1  0  0  0  0  0  0  0  0
    6.0313   -4.5181    0.2755 H   0  0  0  1  0  0  0  0  0  0  0  0
    4.9097   -4.4952   -2.1175 H   0  0  0  1  0  0  0  0  0  0  0  0
    2.4458   -3.6369   -1.5834 H   0  0  0  1  0  0  0  0  0  0  0  0
    3.6952   -2.4579   -1.9043 H   0  0  0  1  0  0  0  0  0  0  0  0
    3.2143   -5.9493   -1.3491 H   0  0  0  1  0  0  0  0  0  0  0  0
    3.4067   -5.4684    0.1649 H   0  0  0  1  0  0  0  0  0  0  0  0
  1  2  4  0  0  0  0
  1  6  4  0  0  0  0
  1 18  1  0  0  0  0
  2  3  4  0  0  0  0
  3  4  4  0  0  0  0
  3 25  1  0  0  0  0
  4  5  4  0  0  0  0
  4  7  4  0  0  0  0
  5  6  4  0  0  0  0
  5  9  4  0  0  0  0
  7  8  4  0  0  0  0
  7 26  1  0  0  0  0
  8  9  4  0  0  0  0
  9 10  1  0  0  0  0
 10 11  4  0  0  0  0
 10 15  4  0  0  0  0
 11 12  4  0  0  0  0
 11 27  1  0  0  0  0
 12 13  4  0  0  0  0
 12 28  1  0  0  0  0
 13 14  4  0  0  0  0
 13 16  1  0  0  0  0
 14 15  4  0  0  0  0
 14 29  1  0  0  0  0
 15 30  1  0  0  0  0
 16 17  1  0  0  0  0
 17 31  1  0  0  0  0
 17 32  1  0  0  0  0
 17 33  1  0  0  0  0
 18 19  1  0  0  0  0
 18 34  1  0  0  0  0
 19 20  1  0  0  0  0
 19 23  1  0  0  0  0
 19 35  1  0  0  0  0
 20 21  1  0  0  0  0
 20 36  1  0  0  0  0
 20 37  1  0  0  0  0
 21 22  1  0  0  0  0
 21 38  1  0  0  0  0
 21 39  1  0  0  0  0
 22 23  1  0  0  0  0
 22 24  1  0  0  0  0
 22 40  1  0  0  0  0
 23 41  1  0  0  0  0
 23 42  1  0  0  0  0
 24 43  1  0  0  0  0
 24 44  1  0  0  0  0
M  END
> <ConfClashScore>
0 

> <ConfOneFourInteractionScore>
-0.984337 

> <ConfScore>
-0.0850278 

> <ConfScorePBest>
0.00467282 

> <ConfTolerance>
0.24694 

$$$$
c22.sdf
 OpenBabel04162418103D

 44 47  0  0  0  0  0  0  0  0999 V2000
    1.9452   -0.6102    0.1256 C   0  0  0  1  0  0  0  0  0  0  0  0
    2.0363    0.7233    0.1482 N   0  0  0  1  0  0  0  0  0  0  0  0
    0.8946    1.4375    0.0881 C   0  0  0  1  0  0  0  0  0  0  0  0
   -0.3453    0.7386    0.0096 C   0  0  0  1  0  0  0  0  0  0  0  0
   -0.2528   -0.6477    0.0021 C   0  0  0  1  0  0  0  0  0  0  0  0
    0.8779   -1.3913    0.0539 N   0  0  0  1  0  0  0  0  0  0  0  0
   -1.7304    0.9921   -0.0538 C   0  0  0  1  0  0  0  0  0  0  0  0
   -2.4281   -0.1191   -0.1029 N   0  0  0  1  0  0  0  0  0  0  0  0
   -1.5125   -1.1341   -0.0681 N   0  0  0  1  0  0  0  0  0  0  0  0
   -1.8385   -2.5051   -0.1010 C   0  0  0  1  0  0  0  0  0  0  0  0
   -0.9508   -3.4666   -0.5456 C   0  0  0  1  0  0  0  0  0  0  0  0
   -1.3217   -4.8022   -0.5516 C   0  0  0  1  0  0  0  0  0  0  0  0
   -2.5809   -5.1720   -0.1182 C   0  0  0  1  0  0  0  0  0  0  0  0
   -3.4712   -4.2075    0.3277 C   0  0  0  1  0  0  0  0  0  0  0  0
   -3.1015   -2.8757    0.3338 C   0  0  0  1  0  0  0  0  0  0  0  0
   -3.0066   -6.4574   -0.1037 O   0  0  0  1  0  0  0  0  0  0  0  0
   -2.0685   -7.4640   -0.5147 C   0  0  0  1  0  0  0  0  0  0  0  0
    3.1545   -1.2788    0.1867 N   0  0  0  1  0  0  0  0  0  0  0  0
    4.3806   -0.4839    0.1022 C   0  0  0  1  0  0  0  0  0  0  0  0
    5.4263   -1.1725   -0.7642 C   0  0  0  1  0  0  0  0  0  0  0  0
    6.7784   -0.6278   -0.3245 C   0  0  0  1  0  0  0  0  0  0  0  0
    6.5584   -0.0235    1.0639 C   0  0  0  1  0  0  0  0  0  0  0  0
    5.1061   -0.4035    1.4972 C   0  0  0  1  0  0  0  0  0  0  0  0
    6.7065    1.4687    1.0068 N   0  0  0  1  0  0  0  0  0  0  0  0
    0.9178    2.4773    0.0988 H   0  0  0  1  0  0  0  0  0  0  0  0
   -2.1490    1.9440   -0.0609 H   0  0  0  1  0  0  0  0  0  0  0  0
   -0.0047   -3.1880   -0.8755 H   0  0  0  1  0  0  0  0  0  0  0  0
   -0.6523   -5.5262   -0.8824 H   0  0  0  1  0  0  0  0  0  0  0  0
   -4.4173   -4.4860    0.6576 H   0  0  0  1  0  0  0  0  0  0  0  0
   -3.7709   -2.1517    0.6645 H   0  0  0  1  0  0  0  0  0  0  0  0
   -1.6880   -7.2227   -1.4851 H   0  0  0  1  0  0  0  0  0  0  0  0
   -2.5584   -8.4147   -0.5502 H   0  0  0  1  0  0  0  0  0  0  0  0
   -1.2602   -7.5048    0.1851 H   0  0  0  1  0  0  0  0  0  0  0  0
    3.1892   -2.2534    0.2834 H   0  0  0  1  0  0  0  0  0  0  0  0
    4.1488    0.4917   -0.2713 H   0  0  0  1  0  0  0  0  0  0  0  0
    5.2559   -0.9492   -1.7968 H   0  0  0  1  0  0  0  0  0  0  0  0
    5.3889   -2.2317   -0.6170 H   0  0  0  1  0  0  0  0  0  0  0  0
    7.1164    0.1233   -1.0074 H   0  0  0  1  0  0  0  0  0  0  0  0
    7.4992   -1.4172   -0.2763 H   0  0  0  1  0  0  0  0  0  0  0  0
    7.2669   -0.4264    1.7572 H   0  0  0  1  0  0  0  0  0  0  0  0
    4.6734    0.3505    2.1209 H   0  0  0  1  0  0  0  0  0  0  0  0
    5.0825   -1.3446    2.0058 H   0  0  0  1  0  0  0  0  0  0  0  0
    7.5498    1.6970    0.5628 H   0  0  0  1  0  0  0  0  0  0  0  0
    6.7083    1.8315    1.9172 H   0  0  0  1  0  0  0  0  0  0  0  0
  1  2  4  0  0  0  0
  1  6  4  0  0  0  0
  1 18  1  0  0  0  0
  2  3  4  0  0  0  0
  3  4  4  0  0  0  0
  3 25  1  0  0  0  0
  4  5  4  0  0  0  0
  4  7  4  0  0  0  0
  5  6  4  0  0  0  0
  5  9  4  0  0  0  0
  7  8  4  0  0  0  0
  7 26  1  0  0  0  0
  8  9  4  0  0  0  0
  9 10  1  0  0  0  0
 10 11  4  0  0  0  0
 10 15  4  0  0  0  0
 11 12  4  0  0  0  0
 11 27  1  0  0  0  0
 12 13  4  0  0  0  0
 12 28  1  0  0  0  0
 13 14  4  0  0  0  0
 13 16  1  0  0  0  0
 14 15  4  0  0  0  0
 14 29  1  0  0  0  0
 15 30  1  0  0  0  0
 16 17  1  0  0  0  0
 17 31  1  0  0  0  0
 17 32  1  0  0  0  0
 17 33  1  0  0  0  0
 18 19  1  0  0  0  0
 18 34  1  0  0  0  0
 19 20  1  0  0  0  0
 19 23  1  0  0  0  0
 19 35  1  0  0  0  0
 20 21  1  0  0  0  0
 20 36  1  0  0  0  0
 20 37  1  0  0  0  0
 21 22  1  0  0  0  0
 21 38  1  0  0  0  0
 21 39  1  0  0  0  0
 22 23  1  0  0  0  0
 22 24  1  0  0  0  0
 22 40  1  0  0  0  0
 23 41  1  0  0  0  0
 23 42  1  0  0  0  0
 24 43  1  0  0  0  0
 24 44  1  0  0  0  0
M  END
> <ConfClashScore>
0 

> <ConfOneFourInteractionScore>
-0.984337 

> <ConfScore>
-0.0841583 

> <ConfScorePBest>
0.00465949 

> <ConfTolerance>
0.310925 

$$$$
c22.sdf
 OpenBabel04162418103D

 44 47  0  0  0  0  0  0  0  0999 V2000
    1.9452   -0.6102    0.1255 C   0  0  0  1  0  0  0  0  0  0  0  0
    2.0363    0.7233    0.1481 N   0  0  0  1  0  0  0  0  0  0  0  0
    0.8946    1.4376    0.0881 C   0  0  0  1  0  0  0  0  0  0  0  0
   -0.3452    0.7386    0.0096 C   0  0  0  1  0  0  0  0  0  0  0  0
   -0.2529   -0.6478    0.0020 C   0  0  0  1  0  0  0  0  0  0  0  0
    0.8779   -1.3913    0.0538 N   0  0  0  1  0  0  0  0  0  0  0  0
   -1.7303    0.9920   -0.0538 C   0  0  0  1  0  0  0  0  0  0  0  0
   -2.4281   -0.1191   -0.1028 N   0  0  0  1  0  0  0  0  0  0  0  0
   -1.5126   -1.1341   -0.0681 N   0  0  0  1  0  0  0  0  0  0  0  0
   -1.8419   -2.5193   -0.1013 C   0  0  0  1  0  0  0  0  0  0  0  0
   -1.0247   -3.3560   -0.8375 C   0  0  0  1  0  0  0  0  0  0  0  0
   -1.3488   -4.6969   -0.9741 C   0  0  0  1  0  0  0  0  0  0  0  0
   -2.4918   -5.1958   -0.3785 C   0  0  0  1  0  0  0  0  0  0  0  0
   -3.3114   -4.3564    0.3599 C   0  0  0  1  0  0  0  0  0  0  0  0
   -2.9883   -3.0194    0.4961 C   0  0  0  1  0  0  0  0  0  0  0  0
   -2.9471   -6.4670   -0.4202 O   0  0  0  1  0  0  0  0  0  0  0  0
   -2.0804   -7.5136   -0.8851 C   0  0  0  1  0  0  0  0  0  0  0  0
    3.1322   -1.2665    0.1854 N   0  0  0  1  0  0  0  0  0  0  0  0
    3.2643   -2.7255    0.1146 C   0  0  0  1  0  0  0  0  0  0  0  0
    4.3596   -3.2450    1.1054 C   0  0  0  1  0  0  0  0  0  0  0  0
    5.6684   -2.9594    0.3461 C   0  0  0  1  0  0  0  0  0  0  0  0
    5.3385   -3.0186   -1.1861 C   0  0  0  1  0  0  0  0  0  0  0  0
    3.8217   -3.1681   -1.2438 C   0  0  0  1  0  0  0  0  0  0  0  0
    6.0099   -4.1912   -1.8264 N   0  0  0  1  0  0  0  0  0  0  0  0
    0.9178    2.4772    0.0988 H   0  0  0  1  0  0  0  0  0  0  0  0
   -2.1490    1.9441   -0.0608 H   0  0  0  1  0  0  0  0  0  0  0  0
   -0.1667   -2.9797   -1.2891 H   0  0  0  1  0  0  0  0  0  0  0  0
   -0.7317   -5.3274   -1.5248 H   0  0  0  1  0  0  0  0  0  0  0  0
   -4.1694   -4.7326    0.8114 H   0  0  0  1  0  0  0  0  0  0  0  0
   -3.6054   -2.3888    1.0468 H   0  0  0  1  0  0  0  0  0  0  0  0
   -1.8346   -7.3438   -1.9125 H   0  0  0  1  0  0  0  0  0  0  0  0
   -2.5768   -8.4566   -0.7886 H   0  0  0  1  0  0  0  0  0  0  0  0
   -1.1843   -7.5203   -0.3004 H   0  0  0  1  0  0  0  0  0  0  0  0
    3.9492   -0.7338    0.2817 H   0  0  0  1  0  0  0  0  0  0  0  0
    2.3159   -3.1799    0.3116 H   0  0  0  1  0  0  0  0  0  0  0  0
    4.2438   -4.2921    1.2934 H   0  0  0  1  0  0  0  0  0  0  0  0
    4.3266   -2.7101    2.0314 H   0  0  0  1  0  0  0  0  0  0  0  0
    6.4031   -3.6977    0.5915 H   0  0  0  1  0  0  0  0  0  0  0  0
    6.0375   -1.9888    0.6042 H   0  0  0  1  0  0  0  0  0  0  0  0
    5.6487   -2.1187   -1.6748 H   0  0  0  1  0  0  0  0  0  0  0  0
    3.5618   -4.1893   -1.4302 H   0  0  0  1  0  0  0  0  0  0  0  0
    3.4228   -2.5505   -2.0213 H   0  0  0  1  0  0  0  0  0  0  0  0
    6.9783   -4.1281   -1.6905 H   0  0  0  1  0  0  0  0  0  0  0  0
    5.8146   -4.1950   -2.7867 H   0  0  0  1  0  0  0  0  0  0  0  0
  1  2  4  0  0  0  0
  1  6  4  0  0  0  0
  1 18  1  0  0  0  0
  2  3  4  0  0  0  0
  3  4  4  0  0  0  0
  3 25  1  0  0  0  0
  4  5  4  0  0  0  0
  4  7  4  0  0  0  0
  5  6  4  0  0  0  0
  5  9  4  0  0  0  0
  7  8  4  0  0  0  0
  7 26  1  0  0  0  0
  8  9  4  0  0  0  0
  9 10  1  0  0  0  0
 10 11  4  0  0  0  0
 10 15  4  0  0  0  0
 11 12  4  0  0  0  0
 11 27  1  0  0  0  0
 12 13  4  0  0  0  0
 12 28  1  0  0  0  0
 13 14  4  0  0  0  0
 13 16  1  0  0  0  0
 14 15  4  0  0  0  0
 14 29  1  0  0  0  0
 15 30  1  0  0  0  0
 16 17  1  0  0  0  0
 17 31  1  0  0  0  0
 17 32  1  0  0  0  0
 17 33  1  0  0  0  0
 18 19  1  0  0  0  0
 18 34  1  0  0  0  0
 19 20  1  0  0  0  0
 19 23  1  0  0  0  0
 19 35  1  0  0  0  0
 20 21  1  0  0  0  0
 20 36  1  0  0  0  0
 20 37  1  0  0  0  0
 21 22  1  0  0  0  0
 21 38  1  0  0  0  0
 21 39  1  0  0  0  0
 22 23  1  0  0  0  0
 22 24  1  0  0  0  0
 22 40  1  0  0  0  0
 23 41  1  0  0  0  0
 23 42  1  0  0  0  0
 24 43  1  0  0  0  0
 24 44  1  0  0  0  0
M  END
> <ConfClashScore>
0 

> <ConfOneFourInteractionScore>
-0.984337 

> <ConfScore>
-0.0841583 

> <ConfScorePBest>
0.00464616 

> <ConfTolerance>
0.224091 

$$$$
c22.sdf
 OpenBabel04162418103D

 44 47  0  0  0  0  0  0  0  0999 V2000
    1.9452   -0.6103    0.1255 C   0  0  0  1  0  0  0  0  0  0  0  0
    2.0363    0.7233    0.1481 N   0  0  0  1  0  0  0  0  0  0  0  0
    0.8946    1.4375    0.0881 C   0  0  0  1  0  0  0  0  0  0  0  0
   -0.3452    0.7386    0.0096 C   0  0  0  1  0  0  0  0  0  0  0  0
   -0.2528   -0.6477    0.0019 C   0  0  0  1  0  0  0  0  0  0  0  0
    0.8780   -1.3912    0.0538 N   0  0  0  1  0  0  0  0  0  0  0  0
   -1.7304    0.9921   -0.0538 C   0  0  0  1  0  0  0  0  0  0  0  0
   -2.4281   -0.1191   -0.1028 N   0  0  0  1  0  0  0  0  0  0  0  0
   -1.5125   -1.1341   -0.0681 N   0  0  0  1  0  0  0  0  0  0  0  0
   -1.8419   -2.5192   -0.1013 C   0  0  0  1  0  0  0  0  0  0  0  0
   -2.4978   -3.0474   -1.1972 C   0  0  0  1  0  0  0  0  0  0  0  0
   -2.8136   -4.3967   -1.2319 C   0  0  0  1  0  0  0  0  0  0  0  0
   -2.4773   -5.2128   -0.1683 C   0  0  0  1  0  0  0  0  0  0  0  0
   -1.8194   -4.6829    0.9307 C   0  0  0  1  0  0  0  0  0  0  0  0
   -1.5045   -3.3375    0.9654 C   0  0  0  1  0  0  0  0  0  0  0  0
   -2.8366   -6.4937   -0.3109 O   0  0  0  1  0  0  0  0  0  0  0  0
   -3.6942   -6.9355   -1.4165 C   0  0  0  1  0  0  0  0  0  0  0  0
    3.1545   -1.2787    0.1864 N   0  0  0  1  0  0  0  0  0  0  0  0
    3.1248   -2.7383    0.2761 C   0  0  0  1  0  0  0  0  0  0  0  0
    3.3373   -3.1926    1.7108 C   0  0  0  1  0  0  0  0  0  0  0  0
    4.8582   -3.0754    1.8593 C   0  0  0  1  0  0  0  0  0  0  0  0
    5.4149   -3.5826    0.5261 C   0  0  0  1  0  0  0  0  0  0  0  0
    4.2959   -3.3521   -0.4985 C   0  0  0  1  0  0  0  0  0  0  0  0
    5.7422   -5.0139    0.6167 N   0  0  0  1  0  0  0  0  0  0  0  0
    0.9178    2.4773    0.0988 H   0  0  0  1  0  0  0  0  0  0  0  0
   -2.1490    1.9441   -0.0607 H   0  0  0  1  0  0  0  0  0  0  0  0
   -2.7545   -2.4326   -1.9959 H   0  0  0  1  0  0  0  0  0  0  0  0
   -3.3036   -4.7949   -2.0582 H   0  0  0  1  0  0  0  0  0  0  0  0
   -1.5627   -5.2978    1.7293 H   0  0  0  1  0  0  0  0  0  0  0  0
   -1.0145   -2.9393    1.7918 H   0  0  0  1  0  0  0  0  0  0  0  0
   -3.3706   -6.4739   -2.3259 H   0  0  0  1  0  0  0  0  0  0  0  0
   -4.7072   -6.6556   -1.2156 H   0  0  0  1  0  0  0  0  0  0  0  0
   -3.6302   -7.9991   -1.5142 H   0  0  0  1  0  0  0  0  0  0  0  0
    4.0038   -0.7902    0.1701 H   0  0  0  1  0  0  0  0  0  0  0  0
    2.1912   -3.1004   -0.1007 H   0  0  0  1  0  0  0  0  0  0  0  0
    3.0095   -4.2012    1.8518 H   0  0  0  1  0  0  0  0  0  0  0  0
    2.8288   -2.5519    2.4008 H   0  0  0  1  0  0  0  0  0  0  0  0
    5.1443   -2.0580    2.0257 H   0  0  0  1  0  0  0  0  0  0  0  0
    5.2066   -3.6814    2.6693 H   0  0  0  1  0  0  0  0  0  0  0  0
    6.2910   -3.0324    0.2531 H   0  0  0  1  0  0  0  0  0  0  0  0
    4.6265   -2.6811   -1.2636 H   0  0  0  1  0  0  0  0  0  0  0  0
    4.0014   -4.2809   -0.9408 H   0  0  0  1  0  0  0  0  0  0  0  0
    6.0385   -5.3378   -0.2594 H   0  0  0  1  0  0  0  0  0  0  0  0
    4.9472   -5.5133    0.8976 H   0  0  0  1  0  0  0  0  0  0  0  0
  1  2  4  0  0  0  0
  1  6  4  0  0  0  0
  1 18  1  0  0  0  0
  2  3  4  0  0  0  0
  3  4  4  0  0  0  0
  3 25  1  0  0  0  0
  4  5  4  0  0  0  0
  4  7  4  0  0  0  0
  5  6  4  0  0  0  0
  5  9  4  0  0  0  0
  7  8  4  0  0  0  0
  7 26  1  0  0  0  0
  8  9  4  0  0  0  0
  9 10  1  0  0  0  0
 10 11  4  0  0  0  0
 10 15  4  0  0  0  0
 11 12  4  0  0  0  0
 11 27  1  0  0  0  0
 12 13  4  0  0  0  0
 12 28  1  0  0  0  0
 13 14  4  0  0  0  0
 13 16  1  0  0  0  0
 14 15  4  0  0  0  0
 14 29  1  0  0  0  0
 15 30  1  0  0  0  0
 16 17  1  0  0  0  0
 17 31  1  0  0  0  0
 17 32  1  0  0  0  0
 17 33  1  0  0  0  0
 18 19  1  0  0  0  0
 18 34  1  0  0  0  0
 19 20  1  0  0  0  0
 19 23  1  0  0  0  0
 19 35  1  0  0  0  0
 20 21  1  0  0  0  0
 20 36  1  0  0  0  0
 20 37  1  0  0  0  0
 21 22  1  0  0  0  0
 21 38  1  0  0  0  0
 21 39  1  0  0  0  0
 22 23  1  0  0  0  0
 22 24  1  0  0  0  0
 22 40  1  0  0  0  0
 23 41  1  0  0  0  0
 23 42  1  0  0  0  0
 24 43  1  0  0  0  0
 24 44  1  0  0  0  0
M  END
> <ConfClashScore>
3.20076e-05 

> <ConfOneFourInteractionScore>
-0.984337 

> <ConfScore>
-0.0835288 

> <ConfScorePBest>
0.00463283 

> <ConfTolerance>
0.353798 

$$$$
c22.sdf
 OpenBabel04162418103D

 44 47  0  0  0  0  0  0  0  0999 V2000
    1.9452   -0.6102    0.1255 C   0  0  0  1  0  0  0  0  0  0  0  0
    2.0363    0.7233    0.1481 N   0  0  0  1  0  0  0  0  0  0  0  0
    0.8946    1.4376    0.0881 C   0  0  0  1  0  0  0  0  0  0  0  0
   -0.3453    0.7386    0.0096 C   0  0  0  1  0  0  0  0  0  0  0  0
   -0.2529   -0.6477    0.0020 C   0  0  0  1  0  0  0  0  0  0  0  0
    0.8779   -1.3913    0.0538 N   0  0  0  1  0  0  0  0  0  0  0  0
   -1.7303    0.9921   -0.0538 C   0  0  0  1  0  0  0  0  0  0  0  0
   -2.4282   -0.1191   -0.1029 N   0  0  0  1  0  0  0  0  0  0  0  0
   -1.5126   -1.1341   -0.0681 N   0  0  0  1  0  0  0  0  0  0  0  0
   -1.8413   -2.5165   -0.1013 C   0  0  0  1  0  0  0  0  0  0  0  0
   -0.9849   -3.4159   -0.7078 C   0  0  0  1  0  0  0  0  0  0  0  0
   -1.3030   -4.7648   -0.7354 C   0  0  0  1  0  0  0  0  0  0  0  0
   -2.4789   -5.2097   -0.1612 C   0  0  0  1  0  0  0  0  0  0  0  0
   -3.3377   -4.3073    0.4470 C   0  0  0  1  0  0  0  0  0  0  0  0
   -3.0207   -2.9624    0.4746 C   0  0  0  1  0  0  0  0  0  0  0  0
   -2.9013   -6.5110   -0.1307 O   0  0  0  1  0  0  0  0  0  0  0  0
   -1.8750   -7.4391   -0.5157 C   0  0  0  1  0  0  0  0  0  0  0  0
    3.1148   -1.2568    0.1845 N   0  0  0  1  0  0  0  0  0  0  0  0
    4.4256   -0.6571    0.4002 C   0  0  0  1  0  0  0  0  0  0  0  0
    4.9701   -0.0835   -0.9021 C   0  0  0  1  0  0  0  0  0  0  0  0
    6.4925   -0.2355   -0.7878 C   0  0  0  1  0  0  0  0  0  0  0  0
    6.6101   -1.6275   -0.1612 C   0  0  0  1  0  0  0  0  0  0  0  0
    5.4394   -1.7240    0.8299 C   0  0  0  1  0  0  0  0  0  0  0  0
    7.9153   -1.7719    0.5538 N   0  0  0  1  0  0  0  0  0  0  0  0
    0.9178    2.4772    0.0988 H   0  0  0  1  0  0  0  0  0  0  0  0
   -2.1490    1.9440   -0.0608 H   0  0  0  1  0  0  0  0  0  0  0  0
   -0.1020   -3.0807   -1.1434 H   0  0  0  1  0  0  0  0  0  0  0  0
   -0.6568   -5.4422   -1.1883 H   0  0  0  1  0  0  0  0  0  0  0  0
   -4.2206   -4.6425    0.8827 H   0  0  0  1  0  0  0  0  0  0  0  0
   -3.6669   -2.2849    0.9275 H   0  0  0  1  0  0  0  0  0  0  0  0
   -2.1116   -8.4109   -0.1355 H   0  0  0  1  0  0  0  0  0  0  0  0
   -0.9361   -7.1185   -0.1151 H   0  0  0  1  0  0  0  0  0  0  0  0
   -1.8130   -7.4793   -1.5831 H   0  0  0  1  0  0  0  0  0  0  0  0
    3.0875   -2.2299    0.0715 H   0  0  0  1  0  0  0  0  0  0  0  0
    4.3502    0.1085    1.1438 H   0  0  0  1  0  0  0  0  0  0  0  0
    4.5981   -0.6333   -1.7412 H   0  0  0  1  0  0  0  0  0  0  0  0
    4.7004    0.9471   -1.0023 H   0  0  0  1  0  0  0  0  0  0  0  0
    6.9628   -0.1976   -1.7481 H   0  0  0  1  0  0  0  0  0  0  0  0
    6.9143    0.5160   -0.1535 H   0  0  0  1  0  0  0  0  0  0  0  0
    6.5287   -2.3851   -0.9126 H   0  0  0  1  0  0  0  0  0  0  0  0
    4.9954   -2.6965    0.7856 H   0  0  0  1  0  0  0  0  0  0  0  0
    5.7801   -1.5319    1.8258 H   0  0  0  1  0  0  0  0  0  0  0  0
    7.9515   -2.6462    0.9951 H   0  0  0  1  0  0  0  0  0  0  0  0
    7.9996   -1.0633    1.2255 H   0  0  0  1  0  0  0  0  0  0  0  0
  1  2  4  0  0  0  0
  1  6  4  0  0  0  0
  1 18  1  0  0  0  0
  2  3  4  0  0  0  0
  3  4  4  0  0  0  0
  3 25  1  0  0  0  0
  4  5  4  0  0  0  0
  4  7  4  0  0  0  0
  5  6  4  0  0  0  0
  5  9  4  0  0  0  0
  7  8  4  0  0  0  0
  7 26  1  0  0  0  0
  8  9  4  0  0  0  0
  9 10  1  0  0  0  0
 10 11  4  0  0  0  0
 10 15  4  0  0  0  0
 11 12  4  0  0  0  0
 11 27  1  0  0  0  0
 12 13  4  0  0  0  0
 12 28  1  0  0  0  0
 13 14  4  0  0  0  0
 13 16  1  0  0  0  0
 14 15  4  0  0  0  0
 14 29  1  0  0  0  0
 15 30  1  0  0  0  0
 16 17  1  0  0  0  0
 17 31  1  0  0  0  0
 17 32  1  0  0  0  0
 17 33  1  0  0  0  0
 18 19  1  0  0  0  0
 18 34  1  0  0  0  0
 19 20  1  0  0  0  0
 19 23  1  0  0  0  0
 19 35  1  0  0  0  0
 20 21  1  0  0  0  0
 20 36  1  0  0  0  0
 20 37  1  0  0  0  0
 21 22  1  0  0  0  0
 21 38  1  0  0  0  0
 21 39  1  0  0  0  0
 22 23  1  0  0  0  0
 22 24  1  0  0  0  0
 22 40  1  0  0  0  0
 23 41  1  0  0  0  0
 23 42  1  0  0  0  0
 24 43  1  0  0  0  0
 24 44  1  0  0  0  0
M  END
> <ConfClashScore>
0 

> <ConfOneFourInteractionScore>
-0.984337 

> <ConfScore>
-0.0820725 

> <ConfScorePBest>
0.0046195 

> <ConfTolerance>
0.248449 

$$$$
c22.sdf
 OpenBabel04162418103D

 44 47  0  0  0  0  0  0  0  0999 V2000
    1.9452   -0.6103    0.1256 C   0  0  0  1  0  0  0  0  0  0  0  0
    2.0363    0.7233    0.1482 N   0  0  0  1  0  0  0  0  0  0  0  0
    0.8945    1.4376    0.0881 C   0  0  0  1  0  0  0  0  0  0  0  0
   -0.3453    0.7386    0.0096 C   0  0  0  1  0  0  0  0  0  0  0  0
   -0.2528   -0.6478    0.0021 C   0  0  0  1  0  0  0  0  0  0  0  0
    0.8779   -1.3912    0.0539 N   0  0  0  1  0  0  0  0  0  0  0  0
   -1.7303    0.9921   -0.0538 C   0  0  0  1  0  0  0  0  0  0  0  0
   -2.4282   -0.1191   -0.1028 N   0  0  0  1  0  0  0  0  0  0  0  0
   -1.5125   -1.1342   -0.0681 N   0  0  0  1  0  0  0  0  0  0  0  0
   -1.8386   -2.5051   -0.1009 C   0  0  0  1  0  0  0  0  0  0  0  0
   -3.0187   -2.9981    0.4227 C   0  0  0  1  0  0  0  0  0  0  0  0
   -3.2915   -4.3556    0.3589 C   0  0  0  1  0  0  0  0  0  0  0  0
   -2.3809   -5.2170   -0.2237 C   0  0  0  1  0  0  0  0  0  0  0  0
   -1.1973   -4.7223   -0.7489 C   0  0  0  1  0  0  0  0  0  0  0  0
   -0.9252   -3.3687   -0.6853 C   0  0  0  1  0  0  0  0  0  0  0  0
   -2.6451   -6.5439   -0.2814 O   0  0  0  1  0  0  0  0  0  0  0  0
   -1.6060   -7.3986   -0.7833 C   0  0  0  1  0  0  0  0  0  0  0  0
    3.1544   -1.2788    0.1866 N   0  0  0  1  0  0  0  0  0  0  0  0
    3.1339   -2.7413    0.0946 C   0  0  0  1  0  0  0  0  0  0  0  0
    2.9439   -3.3585    1.4850 C   0  0  0  1  0  0  0  0  0  0  0  0
    4.2464   -4.0905    1.7836 C   0  0  0  1  0  0  0  0  0  0  0  0
    4.7807   -4.5108    0.4082 C   0  0  0  1  0  0  0  0  0  0  0  0
    4.4836   -3.2611   -0.4250 C   0  0  0  1  0  0  0  0  0  0  0  0
    4.0479   -5.7138   -0.1230 N   0  0  0  1  0  0  0  0  0  0  0  0
    0.9179    2.4772    0.0987 H   0  0  0  1  0  0  0  0  0  0  0  0
   -2.1490    1.9441   -0.0609 H   0  0  0  1  0  0  0  0  0  0  0  0
   -3.7021   -2.3506    0.8648 H   0  0  0  1  0  0  0  0  0  0  0  0
   -4.1814   -4.7261    0.7494 H   0  0  0  1  0  0  0  0  0  0  0  0
   -0.5139   -5.3699   -1.1909 H   0  0  0  1  0  0  0  0  0  0  0  0
   -0.0354   -2.9982   -1.0758 H   0  0  0  1  0  0  0  0  0  0  0  0
   -1.7272   -7.5265   -1.8386 H   0  0  0  1  0  0  0  0  0  0  0  0
   -1.6636   -8.3515   -0.2999 H   0  0  0  1  0  0  0  0  0  0  0  0
   -0.6527   -6.9548   -0.5853 H   0  0  0  1  0  0  0  0  0  0  0  0
    3.9979   -0.7902    0.2882 H   0  0  0  1  0  0  0  0  0  0  0  0
    2.3429   -3.0470   -0.5579 H   0  0  0  1  0  0  0  0  0  0  0  0
    2.1219   -4.0435    1.4814 H   0  0  0  1  0  0  0  0  0  0  0  0
    2.7687   -2.5942    2.2130 H   0  0  0  1  0  0  0  0  0  0  0  0
    4.9400   -3.4410    2.2754 H   0  0  0  1  0  0  0  0  0  0  0  0
    4.0648   -4.9489    2.3962 H   0  0  0  1  0  0  0  0  0  0  0  0
    5.8299   -4.7181    0.4426 H   0  0  0  1  0  0  0  0  0  0  0  0
    4.4150   -3.5104   -1.4633 H   0  0  0  1  0  0  0  0  0  0  0  0
    5.2481   -2.5259   -0.2839 H   0  0  0  1  0  0  0  0  0  0  0  0
    4.4239   -5.9687   -0.9913 H   0  0  0  1  0  0  0  0  0  0  0  0
    3.0982   -5.4968   -0.2296 H   0  0  0  1  0  0  0  0  0  0  0  0
  1  2  4  0  0  0  0
  1  6  4  0  0  0  0
  1 18  1  0  0  0  0
  2  3  4  0  0  0  0
  3  4  4  0  0  0  0
  3 25  1  0  0  0  0
  4  5  4  0  0  0  0
  4  7  4  0  0  0  0
  5  6  4  0  0  0  0
  5  9  4  0  0  0  0
  7  8  4  0  0  0  0
  7 26  1  0  0  0  0
  8  9  4  0  0  0  0
  9 10  1  0  0  0  0
 10 11  4  0  0  0  0
 10 15  4  0  0  0  0
 11 12  4  0  0  0  0
 11 27  1  0  0  0  0
 12 13  4  0  0  0  0
 12 28  1  0  0  0  0
 13 14  4  0  0  0  0
 13 16  1  0  0  0  0
 14 15  4  0  0  0  0
 14 29  1  0  0  0  0
 15 30  1  0  0  0  0
 16 17  1  0  0  0  0
 17 31  1  0  0  0  0
 17 32  1  0  0  0  0
 17 33  1  0  0  0  0
 18 19  1  0  0  0  0
 18 34  1  0  0  0  0
 19 20  1  0  0  0  0
 19 23  1  0  0  0  0
 19 35  1  0  0  0  0
 20 21  1  0  0  0  0
 20 36  1  0  0  0  0
 20 37  1  0  0  0  0
 21 22  1  0  0  0  0
 21 38  1  0  0  0  0
 21 39  1  0  0  0  0
 22 23  1  0  0  0  0
 22 24  1  0  0  0  0
 22 40  1  0  0  0  0
 23 41  1  0  0  0  0
 23 42  1  0  0  0  0
 24 43  1  0  0  0  0
 24 44  1  0  0  0  0
M  END
> <ConfClashScore>
0 

> <ConfOneFourInteractionScore>
-0.984337 

> <ConfScore>
-0.0820725 

> <ConfScorePBest>
0.00460617 

> <ConfTolerance>
0.263163 

$$$$
c22.sdf
 OpenBabel04162418103D

 44 47  0  0  0  0  0  0  0  0999 V2000
    1.9453   -0.6102    0.1255 C   0  0  0  1  0  0  0  0  0  0  0  0
    2.0363    0.7233    0.1481 N   0  0  0  1  0  0  0  0  0  0  0  0
    0.8946    1.4376    0.0881 C   0  0  0  1  0  0  0  0  0  0  0  0
   -0.3452    0.7386    0.0095 C   0  0  0  1  0  0  0  0  0  0  0  0
   -0.2528   -0.6477    0.0020 C   0  0  0  1  0  0  0  0  0  0  0  0
    0.8780   -1.3913    0.0539 N   0  0  0  1  0  0  0  0  0  0  0  0
   -1.7304    0.9921   -0.0538 C   0  0  0  1  0  0  0  0  0  0  0  0
   -2.4282   -0.1192   -0.1029 N   0  0  0  1  0  0  0  0  0  0  0  0
   -1.5125   -1.1341   -0.0681 N   0  0  0  1  0  0  0  0  0  0  0  0
   -1.8396   -2.5098   -0.1011 C   0  0  0  1  0  0  0  0  0  0  0  0
   -1.2483   -3.3385   -1.0359 C   0  0  0  1  0  0  0  0  0  0  0  0
   -1.5649   -4.6877   -1.0647 C   0  0  0  1  0  0  0  0  0  0  0  0
   -2.4759   -5.2034   -0.1622 C   0  0  0  1  0  0  0  0  0  0  0  0
   -3.0690   -4.3722    0.7752 C   0  0  0  1  0  0  0  0  0  0  0  0
   -2.7533   -3.0269    0.8041 C   0  0  0  1  0  0  0  0  0  0  0  0
   -2.8618   -6.4983   -0.2530 O   0  0  0  1  0  0  0  0  0  0  0  0
   -2.1017   -7.3500   -1.1243 C   0  0  0  1  0  0  0  0  0  0  0  0
    3.1645   -1.2843    0.1871 N   0  0  0  1  0  0  0  0  0  0  0  0
    4.3435   -0.4185    0.2409 C   0  0  0  1  0  0  0  0  0  0  0  0
    5.5639   -1.1282   -0.3556 C   0  0  0  1  0  0  0  0  0  0  0  0
    6.7139   -0.3439    0.2545 C   0  0  0  1  0  0  0  0  0  0  0  0
    6.2708   -0.0713    1.6958 C   0  0  0  1  0  0  0  0  0  0  0  0
    4.7374   -0.1310    1.6924 C   0  0  0  1  0  0  0  0  0  0  0  0
    6.7354    1.2809    2.1333 N   0  0  0  1  0  0  0  0  0  0  0  0
    0.9179    2.4772    0.0987 H   0  0  0  1  0  0  0  0  0  0  0  0
   -2.1490    1.9441   -0.0609 H   0  0  0  1  0  0  0  0  0  0  0  0
   -0.5658   -2.9498   -1.7176 H   0  0  0  1  0  0  0  0  0  0  0  0
   -1.1168   -5.3121   -1.7655 H   0  0  0  1  0  0  0  0  0  0  0  0
   -3.7515   -4.7608    1.4569 H   0  0  0  1  0  0  0  0  0  0  0  0
   -3.2014   -2.4024    1.5049 H   0  0  0  1  0  0  0  0  0  0  0  0
   -2.4733   -8.3513   -1.0585 H   0  0  0  1  0  0  0  0  0  0  0  0
   -1.0726   -7.3319   -0.8318 H   0  0  0  1  0  0  0  0  0  0  0  0
   -2.1928   -7.0016   -2.1318 H   0  0  0  1  0  0  0  0  0  0  0  0
    3.2272   -2.2623    0.1937 H   0  0  0  1  0  0  0  0  0  0  0  0
    4.1421    0.4921   -0.2836 H   0  0  0  1  0  0  0  0  0  0  0  0
    5.5700   -1.0598   -1.4234 H   0  0  0  1  0  0  0  0  0  0  0  0
    5.5967   -2.1570   -0.0635 H   0  0  0  1  0  0  0  0  0  0  0  0
    7.6152   -0.9206    0.2386 H   0  0  0  1  0  0  0  0  0  0  0  0
    6.8679    0.5738   -0.2738 H   0  0  0  1  0  0  0  0  0  0  0  0
    6.6692   -0.8157    2.3531 H   0  0  0  1  0  0  0  0  0  0  0  0
    4.3922   -0.9133    2.3356 H   0  0  0  1  0  0  0  0  0  0  0  0
    4.3260    0.8031    2.0135 H   0  0  0  1  0  0  0  0  0  0  0  0
    6.2740    1.9701    1.6113 H   0  0  0  1  0  0  0  0  0  0  0  0
    7.7021    1.3560    1.9908 H   0  0  0  1  0  0  0  0  0  0  0  0
  1  2  4  0  0  0  0
  1  6  4  0  0  0  0
  1 18  1  0  0  0  0
  2  3  4  0  0  0  0
  3  4  4  0  0  0  0
  3 25  1  0  0  0  0
  4  5  4  0  0  0  0
  4  7  4  0  0  0  0
  5  6  4  0  0  0  0
  5  9  4  0  0  0  0
  7  8  4  0  0  0  0
  7 26  1  0  0  0  0
  8  9  4  0  0  0  0
  9 10  1  0  0  0  0
 10 11  4  0  0  0  0
 10 15  4  0  0  0  0
 11 12  4  0  0  0  0
 11 27  1  0  0  0  0
 12 13  4  0  0  0  0
 12 28  1  0  0  0  0
 13 14  4  0  0  0  0
 13 16  1  0  0  0  0
 14 15  4  0  0  0  0
 14 29  1  0  0  0  0
 15 30  1  0  0  0  0
 16 17  1  0  0  0  0
 17 31  1  0  0  0  0
 17 32  1  0  0  0  0
 17 33  1  0  0  0  0
 18 19  1  0  0  0  0
 18 34  1  0  0  0  0
 19 20  1  0  0  0  0
 19 23  1  0  0  0  0
 19 35  1  0  0  0  0
 20 21  1  0  0  0  0
 20 36  1  0  0  0  0
 20 37  1  0  0  0  0
 21 22  1  0  0  0  0
 21 38  1  0  0  0  0
 21 39  1  0  0  0  0
 22 23  1  0  0  0  0
 22 24  1  0  0  0  0
 22 40  1  0  0  0  0
 23 41  1  0  0  0  0
 23 42  1  0  0  0  0
 24 43  1  0  0  0  0
 24 44  1  0  0  0  0
M  END
> <ConfClashScore>
0 

> <ConfOneFourInteractionScore>
-0.984337 

> <ConfScore>
-0.0820254 

> <ConfScorePBest>
0.00459285 

> <ConfTolerance>
0.273679 

$$$$
c22.sdf
 OpenBabel04162418103D

 44 47  0  0  0  0  0  0  0  0999 V2000
    1.9452   -0.6102    0.1256 C   0  0  0  1  0  0  0  0  0  0  0  0
    2.0363    0.7233    0.1482 N   0  0  0  1  0  0  0  0  0  0  0  0
    0.8946    1.4375    0.0881 C   0  0  0  1  0  0  0  0  0  0  0  0
   -0.3452    0.7385    0.0096 C   0  0  0  1  0  0  0  0  0  0  0  0
   -0.2528   -0.6478    0.0020 C   0  0  0  1  0  0  0  0  0  0  0  0
    0.8779   -1.3913    0.0539 N   0  0  0  1  0  0  0  0  0  0  0  0
   -1.7304    0.9921   -0.0538 C   0  0  0  1  0  0  0  0  0  0  0  0
   -2.4282   -0.1192   -0.1029 N   0  0  0  1  0  0  0  0  0  0  0  0
   -1.5125   -1.1342   -0.0681 N   0  0  0  1  0  0  0  0  0  0  0  0
   -1.8385   -2.5052   -0.1010 C   0  0  0  1  0  0  0  0  0  0  0  0
   -2.6284   -3.1015    0.8636 C   0  0  0  1  0  0  0  0  0  0  0  0
   -2.9224   -4.4536    0.7797 C   0  0  0  1  0  0  0  0  0  0  0  0
   -2.4214   -5.2064   -0.2656 C   0  0  0  1  0  0  0  0  0  0  0  0
   -1.6291   -4.6080   -1.2329 C   0  0  0  1  0  0  0  0  0  0  0  0
   -1.3359   -3.2600   -1.1494 C   0  0  0  1  0  0  0  0  0  0  0  0
   -2.7414   -6.5221   -0.2862 O   0  0  0  1  0  0  0  0  0  0  0  0
   -2.3138   -7.2835   -1.4264 C   0  0  0  1  0  0  0  0  0  0  0  0
    3.1379   -1.2696    0.1858 N   0  0  0  1  0  0  0  0  0  0  0  0
    4.4060   -0.5535    0.3271 C   0  0  0  1  0  0  0  0  0  0  0  0
    5.5343   -1.3012   -0.4377 C   0  0  0  1  0  0  0  0  0  0  0  0
    6.5147   -1.8268    0.6256 C   0  0  0  1  0  0  0  0  0  0  0  0
    5.7537   -1.7842    1.9648 C   0  0  0  1  0  0  0  0  0  0  0  0
    4.8431   -0.5168    1.8303 C   0  0  0  1  0  0  0  0  0  0  0  0
    6.6856   -1.6438    3.0942 N   0  0  0  1  0  0  0  0  0  0  0  0
    0.9178    2.4773    0.0988 H   0  0  0  1  0  0  0  0  0  0  0  0
   -2.1490    1.9441   -0.0608 H   0  0  0  1  0  0  0  0  0  0  0  0
   -3.0021   -2.5360    1.6524 H   0  0  0  1  0  0  0  0  0  0  0  0
   -3.5201   -4.9016    1.5034 H   0  0  0  1  0  0  0  0  0  0  0  0
   -1.2553   -5.1736   -2.0216 H   0  0  0  1  0  0  0  0  0  0  0  0
   -0.7382   -2.8119   -1.8730 H   0  0  0  1  0  0  0  0  0  0  0  0
   -2.5987   -6.7743   -2.3233 H   0  0  0  1  0  0  0  0  0  0  0  0
   -2.7742   -8.2491   -1.4031 H   0  0  0  1  0  0  0  0  0  0  0  0
   -1.2498   -7.3945   -1.4022 H   0  0  0  1  0  0  0  0  0  0  0  0
    3.1456   -2.2482    0.1331 H   0  0  0  1  0  0  0  0  0  0  0  0
    4.2985    0.4415   -0.0516 H   0  0  0  1  0  0  0  0  0  0  0  0
    6.0365   -0.6301   -1.1028 H   0  0  0  1  0  0  0  0  0  0  0  0
    5.1238   -2.1166   -0.9960 H   0  0  0  1  0  0  0  0  0  0  0  0
    6.8082   -2.8300    0.3969 H   0  0  0  1  0  0  0  0  0  0  0  0
    7.3825   -1.2024    0.6716 H   0  0  0  1  0  0  0  0  0  0  0  0
    5.1630   -2.6666    2.0967 H   0  0  0  1  0  0  0  0  0  0  0  0
    3.9946   -0.5827    2.4789 H   0  0  0  1  0  0  0  0  0  0  0  0
    5.3916    0.3754    2.0492 H   0  0  0  1  0  0  0  0  0  0  0  0
    7.2914   -0.8921    2.9268 H   0  0  0  1  0  0  0  0  0  0  0  0
    7.2069   -2.4679    3.1915 H   0  0  0  1  0  0  0  0  0  0  0  0
  1  2  4  0  0  0  0
  1  6  4  0  0  0  0
  1 18  1  0  0  0  0
  2  3  4  0  0  0  0
  3  4  4  0  0  0  0
  3 25  1  0  0  0  0
  4  5  4  0  0  0  0
  4  7  4  0  0  0  0
  5  6  4  0  0  0  0
  5  9  4  0  0  0  0
  7  8  4  0  0  0  0
  7 26  1  0  0  0  0
  8  9  4  0  0  0  0
  9 10  1  0  0  0  0
 10 11  4  0  0  0  0
 10 15  4  0  0  0  0
 11 12  4  0  0  0  0
 11 27  1  0  0  0  0
 12 13  4  0  0  0  0
 12 28  1  0  0  0  0
 13 14  4  0  0  0  0
 13 16  1  0  0  0  0
 14 15  4  0  0  0  0
 14 29  1  0  0  0  0
 15 30  1  0  0  0  0
 16 17  1  0  0  0  0
 17 31  1  0  0  0  0
 17 32  1  0  0  0  0
 17 33  1  0  0  0  0
 18 19  1  0  0  0  0
 18 34  1  0  0  0  0
 19 20  1  0  0  0  0
 19 23  1  0  0  0  0
 19 35  1  0  0  0  0
 20 21  1  0  0  0  0
 20 36  1  0  0  0  0
 20 37  1  0  0  0  0
 21 22  1  0  0  0  0
 21 38  1  0  0  0  0
 21 39  1  0  0  0  0
 22 23  1  0  0  0  0
 22 24  1  0  0  0  0
 22 40  1  0  0  0  0
 23 41  1  0  0  0  0
 23 42  1  0  0  0  0
 24 43  1  0  0  0  0
 24 44  1  0  0  0  0
M  END
> <ConfClashScore>
0 

> <ConfOneFourInteractionScore>
-0.984337 

> <ConfScore>
-0.0820254 

> <ConfScorePBest>
0.00457952 

> <ConfTolerance>
0.291498 

$$$$
c22.sdf
 OpenBabel04162418103D

 44 47  0  0  0  0  0  0  0  0999 V2000
    1.9453   -0.6102    0.1254 C   0  0  0  1  0  0  0  0  0  0  0  0
    2.0363    0.7233    0.1480 N   0  0  0  1  0  0  0  0  0  0  0  0
    0.8946    1.4376    0.0881 C   0  0  0  1  0  0  0  0  0  0  0  0
   -0.3452    0.7386    0.0096 C   0  0  0  1  0  0  0  0  0  0  0  0
   -0.2528   -0.6477    0.0020 C   0  0  0  1  0  0  0  0  0  0  0  0
    0.8779   -1.3913    0.0538 N   0  0  0  1  0  0  0  0  0  0  0  0
   -1.7303    0.9921   -0.0538 C   0  0  0  1  0  0  0  0  0  0  0  0
   -2.4281   -0.1190   -0.1028 N   0  0  0  1  0  0  0  0  0  0  0  0
   -1.5125   -1.1342   -0.0681 N   0  0  0  1  0  0  0  0  0  0  0  0
   -1.8421   -2.5200   -0.1013 C   0  0  0  1  0  0  0  0  0  0  0  0
   -1.4050   -3.3103   -1.1475 C   0  0  0  1  0  0  0  0  0  0  0  0
   -1.7985   -4.6371   -1.2250 C   0  0  0  1  0  0  0  0  0  0  0  0
   -2.6323   -5.1684   -0.2591 C   0  0  0  1  0  0  0  0  0  0  0  0
   -3.0706   -4.3757    0.7901 C   0  0  0  1  0  0  0  0  0  0  0  0
   -2.6783   -3.0526    0.8675 C   0  0  0  1  0  0  0  0  0  0  0  0
   -3.1461   -6.4098   -0.3592 O   0  0  0  1  0  0  0  0  0  0  0  0
   -2.6664   -7.1820   -1.4844 C   0  0  0  1  0  0  0  0  0  0  0  0
    3.1257   -1.2629    0.1849 N   0  0  0  1  0  0  0  0  0  0  0  0
    3.2564   -2.7248    0.1332 C   0  0  0  1  0  0  0  0  0  0  0  0
    4.5670   -3.1942    0.7781 C   0  0  0  1  0  0  0  0  0  0  0  0
    5.6370   -2.9064   -0.2679 C   0  0  0  1  0  0  0  0  0  0  0  0
    4.9238   -3.0178   -1.6204 C   0  0  0  1  0  0  0  0  0  0  0  0
    3.4336   -3.2208   -1.3044 C   0  0  0  1  0  0  0  0  0  0  0  0
    5.4442   -4.1639   -2.3772 N   0  0  0  1  0  0  0  0  0  0  0  0
    0.9179    2.4773    0.0987 H   0  0  0  1  0  0  0  0  0  0  0  0
   -2.1490    1.9441   -0.0607 H   0  0  0  1  0  0  0  0  0  0  0  0
   -0.7808   -2.9095   -1.8765 H   0  0  0  1  0  0  0  0  0  0  0  0
   -1.4664   -5.2330   -2.0101 H   0  0  0  1  0  0  0  0  0  0  0  0
   -3.6947   -4.7764    1.5191 H   0  0  0  1  0  0  0  0  0  0  0  0
   -3.0104   -2.4567    1.6525 H   0  0  0  1  0  0  0  0  0  0  0  0
   -2.8269   -6.6331   -2.3887 H   0  0  0  1  0  0  0  0  0  0  0  0
   -3.1969   -8.1100   -1.5318 H   0  0  0  1  0  0  0  0  0  0  0  0
   -1.6206   -7.3741   -1.3648 H   0  0  0  1  0  0  0  0  0  0  0  0
    3.9437   -0.7295    0.2675 H   0  0  0  1  0  0  0  0  0  0  0  0
    2.4065   -3.1762    0.6010 H   0  0  0  1  0  0  0  0  0  0  0  0
    4.7619   -2.6478    1.6772 H   0  0  0  1  0  0  0  0  0  0  0  0
    4.5259   -4.2406    0.9976 H   0  0  0  1  0  0  0  0  0  0  0  0
    6.0355   -1.9224   -0.1347 H   0  0  0  1  0  0  0  0  0  0  0  0
    6.4279   -3.6241   -0.2014 H   0  0  0  1  0  0  0  0  0  0  0  0
    5.0637   -2.1217   -2.1882 H   0  0  0  1  0  0  0  0  0  0  0  0
    3.1719   -4.2556   -1.3790 H   0  0  0  1  0  0  0  0  0  0  0  0
    2.8267   -2.6496   -1.9756 H   0  0  0  1  0  0  0  0  0  0  0  0
    5.4079   -4.9684   -1.8187 H   0  0  0  1  0  0  0  0  0  0  0  0
    6.3726   -3.9889   -2.6375 H   0  0  0  1  0  0  0  0  0  0  0  0
  1  2  4  0  0  0  0
  1  6  4  0  0  0  0
  1 18  1  0  0  0  0
  2  3  4  0  0  0  0
  3  4  4  0  0  0  0
  3 25  1  0  0  0  0
  4  5  4  0  0  0  0
  4  7  4  0  0  0  0
  5  6  4  0  0  0  0
  5  9  4  0  0  0  0
  7  8  4  0  0  0  0
  7 26  1  0  0  0  0
  8  9  4  0  0  0  0
  9 10  1  0  0  0  0
 10 11  4  0  0  0  0
 10 15  4  0  0  0  0
 11 12  4  0  0  0  0
 11 27  1  0  0  0  0
 12 13  4  0  0  0  0
 12 28  1  0  0  0  0
 13 14  4  0  0  0  0
 13 16  1  0  0  0  0
 14 15  4  0  0  0  0
 14 29  1  0  0  0  0
 15 30  1  0  0  0  0
 16 17  1  0  0  0  0
 17 31  1  0  0  0  0
 17 32  1  0  0  0  0
 17 33  1  0  0  0  0
 18 19  1  0  0  0  0
 18 34  1  0  0  0  0
 19 20  1  0  0  0  0
 19 23  1  0  0  0  0
 19 35  1  0  0  0  0
 20 21  1  0  0  0  0
 20 36  1  0  0  0  0
 20 37  1  0  0  0  0
 21 22  1  0  0  0  0
 21 38  1  0  0  0  0
 21 39  1  0  0  0  0
 22 23  1  0  0  0  0
 22 24  1  0  0  0  0
 22 40  1  0  0  0  0
 23 41  1  0  0  0  0
 23 42  1  0  0  0  0
 24 43  1  0  0  0  0
 24 44  1  0  0  0  0
M  END
> <ConfClashScore>
0 

> <ConfOneFourInteractionScore>
-0.984337 

> <ConfScore>
-0.0820254 

> <ConfScorePBest>
0.00456619 

> <ConfTolerance>
0.294575 

$$$$
c22.sdf
 OpenBabel04162418103D

 44 47  0  0  0  0  0  0  0  0999 V2000
    1.9452   -0.6103    0.1255 C   0  0  0  1  0  0  0  0  0  0  0  0
    2.0363    0.7233    0.1481 N   0  0  0  1  0  0  0  0  0  0  0  0
    0.8946    1.4376    0.0881 C   0  0  0  1  0  0  0  0  0  0  0  0
   -0.3452    0.7386    0.0096 C   0  0  0  1  0  0  0  0  0  0  0  0
   -0.2528   -0.6477    0.0020 C   0  0  0  1  0  0  0  0  0  0  0  0
    0.8779   -1.3913    0.0539 N   0  0  0  1  0  0  0  0  0  0  0  0
   -1.7304    0.9921   -0.0538 C   0  0  0  1  0  0  0  0  0  0  0  0
   -2.4281   -0.1191   -0.1028 N   0  0  0  1  0  0  0  0  0  0  0  0
   -1.5125   -1.1341   -0.0681 N   0  0  0  1  0  0  0  0  0  0  0  0
   -1.8396   -2.5099   -0.1011 C   0  0  0  1  0  0  0  0  0  0  0  0
   -1.4009   -3.3488    0.9058 C   0  0  0  1  0  0  0  0  0  0  0  0
   -1.7260   -4.6960    0.8762 C   0  0  0  1  0  0  0  0  0  0  0  0
   -2.4844   -5.2013   -0.1629 C   0  0  0  1  0  0  0  0  0  0  0  0
   -2.9243   -4.3598   -1.1727 C   0  0  0  1  0  0  0  0  0  0  0  0
   -2.6003   -3.0166   -1.1433 C   0  0  0  1  0  0  0  0  0  0  0  0
   -2.7169   -6.5257   -0.2466 O   0  0  0  1  0  0  0  0  0  0  0  0
   -3.3496   -6.9598   -1.4729 C   0  0  0  1  0  0  0  0  0  0  0  0
    3.1379   -1.2697    0.1856 N   0  0  0  1  0  0  0  0  0  0  0  0
    3.2176   -2.7298    0.0749 C   0  0  0  1  0  0  0  0  0  0  0  0
    2.3553   -3.4113    1.1549 C   0  0  0  1  0  0  0  0  0  0  0  0
    2.9948   -4.7887    1.4033 C   0  0  0  1  0  0  0  0  0  0  0  0
    4.4354   -4.7225    0.8224 C   0  0  0  1  0  0  0  0  0  0  0  0
    4.6665   -3.2360    0.3875 C   0  0  0  1  0  0  0  0  0  0  0  0
    4.5585   -5.6229   -0.3457 N   0  0  0  1  0  0  0  0  0  0  0  0
    0.9179    2.4772    0.0988 H   0  0  0  1  0  0  0  0  0  0  0  0
   -2.1490    1.9440   -0.0607 H   0  0  0  1  0  0  0  0  0  0  0  0
   -0.8268   -2.9694    1.6856 H   0  0  0  1  0  0  0  0  0  0  0  0
   -1.3993   -5.3265    1.6360 H   0  0  0  1  0  0  0  0  0  0  0  0
   -3.4984   -4.7392   -1.9526 H   0  0  0  1  0  0  0  0  0  0  0  0
   -2.9271   -2.3860   -1.9031 H   0  0  0  1  0  0  0  0  0  0  0  0
   -4.3413   -6.5611   -1.5237 H   0  0  0  1  0  0  0  0  0  0  0  0
   -3.3938   -8.0287   -1.4920 H   0  0  0  1  0  0  0  0  0  0  0  0
   -2.7818   -6.6107   -2.3099 H   0  0  0  1  0  0  0  0  0  0  0  0
    3.9628   -0.7543    0.3061 H   0  0  0  1  0  0  0  0  0  0  0  0
    2.9108   -3.0309   -0.9050 H   0  0  0  1  0  0  0  0  0  0  0  0
    1.3491   -3.5258    0.8093 H   0  0  0  1  0  0  0  0  0  0  0  0
    2.3602   -2.8318    2.0544 H   0  0  0  1  0  0  0  0  0  0  0  0
    2.4319   -5.5516    0.9074 H   0  0  0  1  0  0  0  0  0  0  0  0
    3.0294   -4.9954    2.4526 H   0  0  0  1  0  0  0  0  0  0  0  0
    5.1488   -5.0052    1.5680 H   0  0  0  1  0  0  0  0  0  0  0  0
    5.1094   -2.6686    1.1791 H   0  0  0  1  0  0  0  0  0  0  0  0
    5.2882   -3.1822   -0.4817 H   0  0  0  1  0  0  0  0  0  0  0  0
    5.4550   -5.5368   -0.7321 H   0  0  0  1  0  0  0  0  0  0  0  0
    3.8885   -5.3789   -1.0180 H   0  0  0  1  0  0  0  0  0  0  0  0
  1  2  4  0  0  0  0
  1  6  4  0  0  0  0
  1 18  1  0  0  0  0
  2  3  4  0  0  0  0
  3  4  4  0  0  0  0
  3 25  1  0  0  0  0
  4  5  4  0  0  0  0
  4  7  4  0  0  0  0
  5  6  4  0  0  0  0
  5  9  4  0  0  0  0
  7  8  4  0  0  0  0
  7 26  1  0  0  0  0
  8  9  4  0  0  0  0
  9 10  1  0  0  0  0
 10 11  4  0  0  0  0
 10 15  4  0  0  0  0
 11 12  4  0  0  0  0
 11 27  1  0  0  0  0
 12 13  4  0  0  0  0
 12 28  1  0  0  0  0
 13 14  4  0  0  0  0
 13 16  1  0  0  0  0
 14 15  4  0  0  0  0
 14 29  1  0  0  0  0
 15 30  1  0  0  0  0
 16 17  1  0  0  0  0
 17 31  1  0  0  0  0
 17 32  1  0  0  0  0
 17 33  1  0  0  0  0
 18 19  1  0  0  0  0
 18 34  1  0  0  0  0
 19 20  1  0  0  0  0
 19 23  1  0  0  0  0
 19 35  1  0  0  0  0
 20 21  1  0  0  0  0
 20 36  1  0  0  0  0
 20 37  1  0  0  0  0
 21 22  1  0  0  0  0
 21 38  1  0  0  0  0
 21 39  1  0  0  0  0
 22 23  1  0  0  0  0
 22 24  1  0  0  0  0
 22 40  1  0  0  0  0
 23 41  1  0  0  0  0
 23 42  1  0  0  0  0
 24 43  1  0  0  0  0
 24 44  1  0  0  0  0
M  END
> <ConfClashScore>
0 

> <ConfOneFourInteractionScore>
-0.985399 

> <ConfScore>
-0.0802511 

> <ConfScorePBest>
0.00455286 

> <ConfTolerance>
0.250462 

$$$$
c22.sdf
 OpenBabel04162418103D

 44 47  0  0  0  0  0  0  0  0999 V2000
    1.9453   -0.6102    0.1255 C   0  0  0  1  0  0  0  0  0  0  0  0
    2.0363    0.7233    0.1481 N   0  0  0  1  0  0  0  0  0  0  0  0
    0.8946    1.4376    0.0881 C   0  0  0  1  0  0  0  0  0  0  0  0
   -0.3452    0.7385    0.0096 C   0  0  0  1  0  0  0  0  0  0  0  0
   -0.2528   -0.6477    0.0020 C   0  0  0  1  0  0  0  0  0  0  0  0
    0.8780   -1.3913    0.0537 N   0  0  0  1  0  0  0  0  0  0  0  0
   -1.7303    0.9921   -0.0538 C   0  0  0  1  0  0  0  0  0  0  0  0
   -2.4281   -0.1192   -0.1028 N   0  0  0  1  0  0  0  0  0  0  0  0
   -1.5125   -1.1342   -0.0681 N   0  0  0  1  0  0  0  0  0  0  0  0
   -1.8396   -2.5099   -0.1011 C   0  0  0  1  0  0  0  0  0  0  0  0
   -2.4069   -3.0582   -1.2359 C   0  0  0  1  0  0  0  0  0  0  0  0
   -2.7226   -4.4075   -1.2701 C   0  0  0  1  0  0  0  0  0  0  0  0
   -2.4749   -5.2035   -0.1676 C   0  0  0  1  0  0  0  0  0  0  0  0
   -1.9059   -4.6534    0.9704 C   0  0  0  1  0  0  0  0  0  0  0  0
   -1.5911   -3.3080    1.0047 C   0  0  0  1  0  0  0  0  0  0  0  0
   -2.8739   -6.4976   -0.1621 O   0  0  0  1  0  0  0  0  0  0  0  0
   -3.4149   -7.0227   -1.3844 C   0  0  0  1  0  0  0  0  0  0  0  0
    3.1148   -1.2568    0.1844 N   0  0  0  1  0  0  0  0  0  0  0  0
    4.4409   -0.6475    0.3432 C   0  0  0  1  0  0  0  0  0  0  0  0
    4.7312    0.3636   -0.7736 C   0  0  0  1  0  0  0  0  0  0  0  0
    5.0968   -0.4895   -1.9819 C   0  0  0  1  0  0  0  0  0  0  0  0
    5.7195   -1.7661   -1.4048 C   0  0  0  1  0  0  0  0  0  0  0  0
    5.5577   -1.6709    0.1206 C   0  0  0  1  0  0  0  0  0  0  0  0
    7.1460   -1.8449   -1.7626 N   0  0  0  1  0  0  0  0  0  0  0  0
    0.9179    2.4773    0.0987 H   0  0  0  1  0  0  0  0  0  0  0  0
   -2.1490    1.9440   -0.0607 H   0  0  0  1  0  0  0  0  0  0  0  0
   -2.5970   -2.4585   -2.0640 H   0  0  0  1  0  0  0  0  0  0  0  0
   -3.1457   -4.8209   -2.1254 H   0  0  0  1  0  0  0  0  0  0  0  0
   -1.7158   -5.2531    1.7986 H   0  0  0  1  0  0  0  0  0  0  0  0
   -1.1679   -2.8945    1.8600 H   0  0  0  1  0  0  0  0  0  0  0  0
   -3.6946   -8.0455   -1.2408 H   0  0  0  1  0  0  0  0  0  0  0  0
   -2.6769   -6.9600   -2.1567 H   0  0  0  1  0  0  0  0  0  0  0  0
   -4.2762   -6.4540   -1.6663 H   0  0  0  1  0  0  0  0  0  0  0  0
    3.0833   -2.2338    0.1148 H   0  0  0  1  0  0  0  0  0  0  0  0
    4.5123   -0.1942    1.3097 H   0  0  0  1  0  0  0  0  0  0  0  0
    5.5457    1.0020   -0.5021 H   0  0  0  1  0  0  0  0  0  0  0  0
    3.8651    0.9575   -0.9793 H   0  0  0  1  0  0  0  0  0  0  0  0
    5.8016    0.0232   -2.6026 H   0  0  0  1  0  0  0  0  0  0  0  0
    4.2228   -0.7243   -2.5527 H   0  0  0  1  0  0  0  0  0  0  0  0
    5.2093   -2.6292   -1.7786 H   0  0  0  1  0  0  0  0  0  0  0  0
    5.2824   -2.6210    0.5285 H   0  0  0  1  0  0  0  0  0  0  0  0
    6.4677   -1.3376    0.5741 H   0  0  0  1  0  0  0  0  0  0  0  0
    7.4909   -2.7343   -1.5380 H   0  0  0  1  0  0  0  0  0  0  0  0
    7.6457   -1.1654   -1.2638 H   0  0  0  1  0  0  0  0  0  0  0  0
  1  2  4  0  0  0  0
  1  6  4  0  0  0  0
  1 18  1  0  0  0  0
  2  3  4  0  0  0  0
  3  4  4  0  0  0  0
  3 25  1  0  0  0  0
  4  5  4  0  0  0  0
  4  7  4  0  0  0  0
  5  6  4  0  0  0  0
  5  9  4  0  0  0  0
  7  8  4  0  0  0  0
  7 26  1  0  0  0  0
  8  9  4  0  0  0  0
  9 10  1  0  0  0  0
 10 11  4  0  0  0  0
 10 15  4  0  0  0  0
 11 12  4  0  0  0  0
 11 27  1  0  0  0  0
 12 13  4  0  0  0  0
 12 28  1  0  0  0  0
 13 14  4  0  0  0  0
 13 16  1  0  0  0  0
 14 15  4  0  0  0  0
 14 29  1  0  0  0  0
 15 30  1  0  0  0  0
 16 17  1  0  0  0  0
 17 31  1  0  0  0  0
 17 32  1  0  0  0  0
 17 33  1  0  0  0  0
 18 19  1  0  0  0  0
 18 34  1  0  0  0  0
 19 20  1  0  0  0  0
 19 23  1  0  0  0  0
 19 35  1  0  0  0  0
 20 21  1  0  0  0  0
 20 36  1  0  0  0  0
 20 37  1  0  0  0  0
 21 22  1  0  0  0  0
 21 38  1  0  0  0  0
 21 39  1  0  0  0  0
 22 23  1  0  0  0  0
 22 24  1  0  0  0  0
 22 40  1  0  0  0  0
 23 41  1  0  0  0  0
 23 42  1  0  0  0  0
 24 43  1  0  0  0  0
 24 44  1  0  0  0  0
M  END
> <ConfClashScore>
0 

> <ConfOneFourInteractionScore>
-0.985399 

> <ConfScore>
-0.0802511 

> <ConfScorePBest>
0.00453953 

> <ConfTolerance>
0.276149 

$$$$
c22.sdf
 OpenBabel04162418103D

 44 47  0  0  0  0  0  0  0  0999 V2000
    1.9453   -0.6102    0.1256 C   0  0  0  1  0  0  0  0  0  0  0  0
    2.0363    0.7233    0.1482 N   0  0  0  1  0  0  0  0  0  0  0  0
    0.8946    1.4376    0.0881 C   0  0  0  1  0  0  0  0  0  0  0  0
   -0.3453    0.7386    0.0096 C   0  0  0  1  0  0  0  0  0  0  0  0
   -0.2528   -0.6477    0.0020 C   0  0  0  1  0  0  0  0  0  0  0  0
    0.8780   -1.3913    0.0539 N   0  0  0  1  0  0  0  0  0  0  0  0
   -1.7303    0.9921   -0.0538 C   0  0  0  1  0  0  0  0  0  0  0  0
   -2.4281   -0.1192   -0.1029 N   0  0  0  1  0  0  0  0  0  0  0  0
   -1.5125   -1.1341   -0.0681 N   0  0  0  1  0  0  0  0  0  0  0  0
   -1.8385   -2.5051   -0.1010 C   0  0  0  1  0  0  0  0  0  0  0  0
   -1.2147   -3.2890   -1.0532 C   0  0  0  1  0  0  0  0  0  0  0  0
   -1.4946   -4.6447   -1.1262 C   0  0  0  1  0  0  0  0  0  0  0  0
   -2.4013   -5.2115   -0.2505 C   0  0  0  1  0  0  0  0  0  0  0  0
   -3.0268   -4.4251    0.7044 C   0  0  0  1  0  0  0  0  0  0  0  0
   -2.7478   -3.0734    0.7775 C   0  0  0  1  0  0  0  0  0  0  0  0
   -2.5969   -6.5373   -0.4200 O   0  0  0  1  0  0  0  0  0  0  0  0
   -3.5324   -7.2276    0.4232 C   0  0  0  1  0  0  0  0  0  0  0  0
    3.1214   -1.2603    0.1849 N   0  0  0  1  0  0  0  0  0  0  0  0
    4.4211   -0.5904    0.2963 C   0  0  0  1  0  0  0  0  0  0  0  0
    5.0967   -0.4450   -1.0735 C   0  0  0  1  0  0  0  0  0  0  0  0
    5.6610   -1.8279   -1.3748 C   0  0  0  1  0  0  0  0  0  0  0  0
    5.9705   -2.4475   -0.0070 C   0  0  0  1  0  0  0  0  0  0  0  0
    5.4371   -1.4595    1.0424 C   0  0  0  1  0  0  0  0  0  0  0  0
    7.4327   -2.6295    0.1555 N   0  0  0  1  0  0  0  0  0  0  0  0
    0.9178    2.4773    0.0989 H   0  0  0  1  0  0  0  0  0  0  0  0
   -2.1490    1.9440   -0.0607 H   0  0  0  1  0  0  0  0  0  0  0  0
   -0.5355   -2.8619   -1.7148 H   0  0  0  1  0  0  0  0  0  0  0  0
   -1.0222   -5.2354   -1.8401 H   0  0  0  1  0  0  0  0  0  0  0  0
   -3.7061   -4.8522    1.3661 H   0  0  0  1  0  0  0  0  0  0  0  0
   -3.2201   -2.4826    1.4913 H   0  0  0  1  0  0  0  0  0  0  0  0
   -4.5181   -6.8508    0.2464 H   0  0  0  1  0  0  0  0  0  0  0  0
   -3.2700   -7.0718    1.4487 H   0  0  0  1  0  0  0  0  0  0  0  0
   -3.5060   -8.2743    0.2027 H   0  0  0  1  0  0  0  0  0  0  0  0
    3.1089   -2.2397    0.1518 H   0  0  0  1  0  0  0  0  0  0  0  0
    4.2939    0.3593    0.7725 H   0  0  0  1  0  0  0  0  0  0  0  0
    5.8809    0.2817   -1.0322 H   0  0  0  1  0  0  0  0  0  0  0  0
    4.3830   -0.1586   -1.8176 H   0  0  0  1  0  0  0  0  0  0  0  0
    6.5532   -1.7487   -1.9602 H   0  0  0  1  0  0  0  0  0  0  0  0
    4.9408   -2.4200   -1.8996 H   0  0  0  1  0  0  0  0  0  0  0  0
    5.4798   -3.3933    0.0911 H   0  0  0  1  0  0  0  0  0  0  0  0
    6.2326   -0.8577    1.4295 H   0  0  0  1  0  0  0  0  0  0  0  0
    4.9632   -1.9847    1.8453 H   0  0  0  1  0  0  0  0  0  0  0  0
    7.7604   -3.2624   -0.5171 H   0  0  0  1  0  0  0  0  0  0  0  0
    7.6206   -2.9790    1.0515 H   0  0  0  1  0  0  0  0  0  0  0  0
  1  2  4  0  0  0  0
  1  6  4  0  0  0  0
  1 18  1  0  0  0  0
  2  3  4  0  0  0  0
  3  4  4  0  0  0  0
  3 25  1  0  0  0  0
  4  5  4  0  0  0  0
  4  7  4  0  0  0  0
  5  6  4  0  0  0  0
  5  9  4  0  0  0  0
  7  8  4  0  0  0  0
  7 26  1  0  0  0  0
  8  9  4  0  0  0  0
  9 10  1  0  0  0  0
 10 11  4  0  0  0  0
 10 15  4  0  0  0  0
 11 12  4  0  0  0  0
 11 27  1  0  0  0  0
 12 13  4  0  0  0  0
 12 28  1  0  0  0  0
 13 14  4  0  0  0  0
 13 16  1  0  0  0  0
 14 15  4  0  0  0  0
 14 29  1  0  0  0  0
 15 30  1  0  0  0  0
 16 17  1  0  0  0  0
 17 31  1  0  0  0  0
 17 32  1  0  0  0  0
 17 33  1  0  0  0  0
 18 19  1  0  0  0  0
 18 34  1  0  0  0  0
 19 20  1  0  0  0  0
 19 23  1  0  0  0  0
 19 35  1  0  0  0  0
 20 21  1  0  0  0  0
 20 36  1  0  0  0  0
 20 37  1  0  0  0  0
 21 22  1  0  0  0  0
 21 38  1  0  0  0  0
 21 39  1  0  0  0  0
 22 23  1  0  0  0  0
 22 24  1  0  0  0  0
 22 40  1  0  0  0  0
 23 41  1  0  0  0  0
 23 42  1  0  0  0  0
 24 43  1  0  0  0  0
 24 44  1  0  0  0  0
M  END
> <ConfClashScore>
0 

> <ConfOneFourInteractionScore>
-0.984337 

> <ConfScore>
-0.0794146 

> <ConfScorePBest>
0.00452621 

> <ConfTolerance>
0.29785 

$$$$
c22.sdf
 OpenBabel04162418103D

 44 47  0  0  0  0  0  0  0  0999 V2000
    1.9453   -0.6102    0.1255 C   0  0  0  1  0  0  0  0  0  0  0  0
    2.0363    0.7234    0.1481 N   0  0  0  1  0  0  0  0  0  0  0  0
    0.8946    1.4376    0.0881 C   0  0  0  1  0  0  0  0  0  0  0  0
   -0.3452    0.7386    0.0096 C   0  0  0  1  0  0  0  0  0  0  0  0
   -0.2528   -0.6477    0.0020 C   0  0  0  1  0  0  0  0  0  0  0  0
    0.8780   -1.3912    0.0538 N   0  0  0  1  0  0  0  0  0  0  0  0
   -1.7303    0.9921   -0.0538 C   0  0  0  1  0  0  0  0  0  0  0  0
   -2.4281   -0.1192   -0.1029 N   0  0  0  1  0  0  0  0  0  0  0  0
   -1.5126   -1.1342   -0.0681 N   0  0  0  1  0  0  0  0  0  0  0  0
   -1.8419   -2.5192   -0.1014 C   0  0  0  1  0  0  0  0  0  0  0  0
   -3.0763   -2.9469    0.3493 C   0  0  0  1  0  0  0  0  0  0  0  0
   -3.3989   -4.2945    0.3120 C   0  0  0  1  0  0  0  0  0  0  0  0
   -2.4840   -5.2111   -0.1709 C   0  0  0  1  0  0  0  0  0  0  0  0
   -1.2458   -4.7820   -0.6230 C   0  0  0  1  0  0  0  0  0  0  0  0
   -0.9242   -3.4383   -0.5857 C   0  0  0  1  0  0  0  0  0  0  0  0
   -2.8920   -6.4962   -0.2977 O   0  0  0  1  0  0  0  0  0  0  0  0
   -4.2849   -6.7673   -0.0763 C   0  0  0  1  0  0  0  0  0  0  0  0
    3.1257   -1.2628    0.1850 N   0  0  0  1  0  0  0  0  0  0  0  0
    4.4183   -0.5966    0.2851 C   0  0  0  1  0  0  0  0  0  0  0  0
    5.4347   -1.2786   -0.6332 C   0  0  0  1  0  0  0  0  0  0  0  0
    6.4494   -1.9452    0.2856 C   0  0  0  1  0  0  0  0  0  0  0  0
    5.7852   -2.0619    1.6507 C   0  0  0  1  0  0  0  0  0  0  0  0
    4.9735   -0.7158    1.7408 C   0  0  0  1  0  0  0  0  0  0  0  0
    6.8015   -2.1554    2.7411 N   0  0  0  1  0  0  0  0  0  0  0  0
    0.9178    2.4772    0.0988 H   0  0  0  1  0  0  0  0  0  0  0  0
   -2.1490    1.9440   -0.0608 H   0  0  0  1  0  0  0  0  0  0  0  0
   -3.7633   -2.2577    0.7165 H   0  0  0  1  0  0  0  0  0  0  0  0
   -4.3294   -4.6159    0.6474 H   0  0  0  1  0  0  0  0  0  0  0  0
   -0.5589   -5.4711   -0.9902 H   0  0  0  1  0  0  0  0  0  0  0  0
    0.0063   -3.1169   -0.9212 H   0  0  0  1  0  0  0  0  0  0  0  0
   -4.5473   -6.4939    0.9243 H   0  0  0  1  0  0  0  0  0  0  0  0
   -4.4724   -7.8106   -0.2216 H   0  0  0  1  0  0  0  0  0  0  0  0
   -4.8727   -6.1992   -0.7667 H   0  0  0  1  0  0  0  0  0  0  0  0
    3.1128   -2.2424    0.1595 H   0  0  0  1  0  0  0  0  0  0  0  0
    4.3112    0.4332    0.0151 H   0  0  0  1  0  0  0  0  0  0  0  0
    4.9501   -2.0107   -1.2450 H   0  0  0  1  0  0  0  0  0  0  0  0
    5.9168   -0.5548   -1.2565 H   0  0  0  1  0  0  0  0  0  0  0  0
    7.3340   -1.3472    0.3549 H   0  0  0  1  0  0  0  0  0  0  0  0
    6.7029   -2.9160   -0.0863 H   0  0  0  1  0  0  0  0  0  0  0  0
    5.1351   -2.9106    1.6945 H   0  0  0  1  0  0  0  0  0  0  0  0
    5.6089    0.1092    1.9867 H   0  0  0  1  0  0  0  0  0  0  0  0
    4.1819   -0.7829    2.4577 H   0  0  0  1  0  0  0  0  0  0  0  0
    7.2666   -3.0159    2.6818 H   0  0  0  1  0  0  0  0  0  0  0  0
    6.3548   -2.0850    3.6105 H   0  0  0  1  0  0  0  0  0  0  0  0
  1  2  4  0  0  0  0
  1  6  4  0  0  0  0
  1 18  1  0  0  0  0
  2  3  4  0  0  0  0
  3  4  4  0  0  0  0
  3 25  1  0  0  0  0
  4  5  4  0  0  0  0
  4  7  4  0  0  0  0
  5  6  4  0  0  0  0
  5  9  4  0  0  0  0
  7  8  4  0  0  0  0
  7 26  1  0  0  0  0
  8  9  4  0  0  0  0
  9 10  1  0  0  0  0
 10 11  4  0  0  0  0
 10 15  4  0  0  0  0
 11 12  4  0  0  0  0
 11 27  1  0  0  0  0
 12 13  4  0  0  0  0
 12 28  1  0  0  0  0
 13 14  4  0  0  0  0
 13 16  1  0  0  0  0
 14 15  4  0  0  0  0
 14 29  1  0  0  0  0
 15 30  1  0  0  0  0
 16 17  1  0  0  0  0
 17 31  1  0  0  0  0
 17 32  1  0  0  0  0
 17 33  1  0  0  0  0
 18 19  1  0  0  0  0
 18 34  1  0  0  0  0
 19 20  1  0  0  0  0
 19 23  1  0  0  0  0
 19 35  1  0  0  0  0
 20 21  1  0  0  0  0
 20 36  1  0  0  0  0
 20 37  1  0  0  0  0
 21 22  1  0  0  0  0
 21 38  1  0  0  0  0
 21 39  1  0  0  0  0
 22 23  1  0  0  0  0
 22 24  1  0  0  0  0
 22 40  1  0  0  0  0
 23 41  1  0  0  0  0
 23 42  1  0  0  0  0
 24 43  1  0  0  0  0
 24 44  1  0  0  0  0
M  END
> <ConfClashScore>
0 

> <ConfOneFourInteractionScore>
-0.984337 

> <ConfScore>
-0.0783484 

> <ConfScorePBest>
0.00451288 

> <ConfTolerance>
0.265285 

$$$$
c22.sdf
 OpenBabel04162418103D

 44 47  0  0  0  0  0  0  0  0999 V2000
    1.9452   -0.6102    0.1254 C   0  0  0  1  0  0  0  0  0  0  0  0
    2.0363    0.7234    0.1480 N   0  0  0  1  0  0  0  0  0  0  0  0
    0.8946    1.4376    0.0881 C   0  0  0  1  0  0  0  0  0  0  0  0
   -0.3453    0.7387    0.0096 C   0  0  0  1  0  0  0  0  0  0  0  0
   -0.2528   -0.6478    0.0020 C   0  0  0  1  0  0  0  0  0  0  0  0
    0.8779   -1.3912    0.0539 N   0  0  0  1  0  0  0  0  0  0  0  0
   -1.7304    0.9921   -0.0538 C   0  0  0  1  0  0  0  0  0  0  0  0
   -2.4281   -0.1191   -0.1028 N   0  0  0  1  0  0  0  0  0  0  0  0
   -1.5125   -1.1342   -0.0681 N   0  0  0  1  0  0  0  0  0  0  0  0
   -1.8419   -2.5192   -0.1013 C   0  0  0  1  0  0  0  0  0  0  0  0
   -0.9269   -3.4356   -0.5843 C   0  0  0  1  0  0  0  0  0  0  0  0
   -1.2456   -4.7843   -0.6116 C   0  0  0  1  0  0  0  0  0  0  0  0
   -2.4800   -5.2122   -0.1610 C   0  0  0  1  0  0  0  0  0  0  0  0
   -3.3977   -4.2931    0.3234 C   0  0  0  1  0  0  0  0  0  0  0  0
   -3.0801   -2.9482    0.3507 C   0  0  0  1  0  0  0  0  0  0  0  0
   -2.6376   -6.5537   -0.2589 O   0  0  0  1  0  0  0  0  0  0  0  0
   -3.8855   -7.1026    0.1928 C   0  0  0  1  0  0  0  0  0  0  0  0
    3.1542   -1.2786    0.1864 N   0  0  0  1  0  0  0  0  0  0  0  0
    3.1798   -2.7421    0.1818 C   0  0  0  1  0  0  0  0  0  0  0  0
    4.4090   -3.2546    0.9440 C   0  0  0  1  0  0  0  0  0  0  0  0
    5.2067   -4.0757   -0.0729 C   0  0  0  1  0  0  0  0  0  0  0  0
    4.8060   -3.4966   -1.4340 C   0  0  0  1  0  0  0  0  0  0  0  0
    3.3150   -3.2660   -1.2519 C   0  0  0  1  0  0  0  0  0  0  0  0
    5.0742   -4.4673   -2.5370 N   0  0  0  1  0  0  0  0  0  0  0  0
    0.9179    2.4773    0.0988 H   0  0  0  1  0  0  0  0  0  0  0  0
   -2.1490    1.9441   -0.0608 H   0  0  0  1  0  0  0  0  0  0  0  0
    0.0005   -3.1132   -0.9272 H   0  0  0  1  0  0  0  0  0  0  0  0
   -0.5556   -5.4743   -0.9714 H   0  0  0  1  0  0  0  0  0  0  0  0
   -4.3250   -4.6154    0.6663 H   0  0  0  1  0  0  0  0  0  0  0  0
   -3.7701   -2.2581    0.7104 H   0  0  0  1  0  0  0  0  0  0  0  0
   -3.9339   -8.1398   -0.0657 H   0  0  0  1  0  0  0  0  0  0  0  0
   -4.6943   -6.5806   -0.2743 H   0  0  0  1  0  0  0  0  0  0  0  0
   -3.9579   -6.9964    1.2550 H   0  0  0  1  0  0  0  0  0  0  0  0
    3.9926   -0.7733    0.2327 H   0  0  0  1  0  0  0  0  0  0  0  0
    2.2832   -3.1164    0.6301 H   0  0  0  1  0  0  0  0  0  0  0  0
    4.9945   -2.4346    1.3043 H   0  0  0  1  0  0  0  0  0  0  0  0
    4.1093   -3.8684    1.7677 H   0  0  0  1  0  0  0  0  0  0  0  0
    6.2580   -3.9626    0.0913 H   0  0  0  1  0  0  0  0  0  0  0  0
    4.9449   -5.1114   -0.0110 H   0  0  0  1  0  0  0  0  0  0  0  0
    5.3199   -2.5794   -1.6328 H   0  0  0  1  0  0  0  0  0  0  0  0
    2.7734   -4.1808   -1.3727 H   0  0  0  1  0  0  0  0  0  0  0  0
    2.9557   -2.5429   -1.9540 H   0  0  0  1  0  0  0  0  0  0  0  0
    6.0385   -4.5123   -2.7060 H   0  0  0  1  0  0  0  0  0  0  0  0
    4.6135   -4.1728   -3.3503 H   0  0  0  1  0  0  0  0  0  0  0  0
  1  2  4  0  0  0  0
  1  6  4  0  0  0  0
  1 18  1  0  0  0  0
  2  3  4  0  0  0  0
  3  4  4  0  0  0  0
  3 25  1  0  0  0  0
  4  5  4  0  0  0  0
  4  7  4  0  0  0  0
  5  6  4  0  0  0  0
  5  9  4  0  0  0  0
  7  8  4  0  0  0  0
  7 26  1  0  0  0  0
  8  9  4  0  0  0  0
  9 10  1  0  0  0  0
 10 11  4  0  0  0  0
 10 15  4  0  0  0  0
 11 12  4  0  0  0  0
 11 27  1  0  0  0  0
 12 13  4  0  0  0  0
 12 28  1  0  0  0  0
 13 14  4  0  0  0  0
 13 16  1  0  0  0  0
 14 15  4  0  0  0  0
 14 29  1  0  0  0  0
 15 30  1  0  0  0  0
 16 17  1  0  0  0  0
 17 31  1  0  0  0  0
 17 32  1  0  0  0  0
 17 33  1  0  0  0  0
 18 19  1  0  0  0  0
 18 34  1  0  0  0  0
 19 20  1  0  0  0  0
 19 23  1  0  0  0  0
 19 35  1  0  0  0  0
 20 21  1  0  0  0  0
 20 36  1  0  0  0  0
 20 37  1  0  0  0  0
 21 22  1  0  0  0  0
 21 38  1  0  0  0  0
 21 39  1  0  0  0  0
 22 23  1  0  0  0  0
 22 24  1  0  0  0  0
 22 40  1  0  0  0  0
 23 41  1  0  0  0  0
 23 42  1  0  0  0  0
 24 43  1  0  0  0  0
 24 44  1  0  0  0  0
M  END
> <ConfClashScore>
0 

> <ConfOneFourInteractionScore>
-0.984337 

> <ConfScore>
-0.0783484 

> <ConfScorePBest>
0.00449955 

> <ConfTolerance>
0.26265 

$$$$
c22.sdf
 OpenBabel04162418103D

 44 47  0  0  0  0  0  0  0  0999 V2000
    1.9452   -0.6102    0.1256 C   0  0  0  1  0  0  0  0  0  0  0  0
    2.0362    0.7234    0.1482 N   0  0  0  1  0  0  0  0  0  0  0  0
    0.8946    1.4376    0.0881 C   0  0  0  1  0  0  0  0  0  0  0  0
   -0.3453    0.7387    0.0096 C   0  0  0  1  0  0  0  0  0  0  0  0
   -0.2528   -0.6477    0.0020 C   0  0  0  1  0  0  0  0  0  0  0  0
    0.8779   -1.3912    0.0539 N   0  0  0  1  0  0  0  0  0  0  0  0
   -1.7303    0.9921   -0.0538 C   0  0  0  1  0  0  0  0  0  0  0  0
   -2.4282   -0.1192   -0.1029 N   0  0  0  1  0  0  0  0  0  0  0  0
   -1.5126   -1.1342   -0.0681 N   0  0  0  1  0  0  0  0  0  0  0  0
   -1.8422   -2.5202   -0.1014 C   0  0  0  1  0  0  0  0  0  0  0  0
   -2.3981   -3.0668   -1.2427 C   0  0  0  1  0  0  0  0  0  0  0  0
   -2.6296   -4.4315   -1.3155 C   0  0  0  1  0  0  0  0  0  0  0  0
   -2.3095   -5.2450   -0.2450 C   0  0  0  1  0  0  0  0  0  0  0  0
   -1.7520   -4.6967    0.8996 C   0  0  0  1  0  0  0  0  0  0  0  0
   -1.5210   -3.3360    0.9724 C   0  0  0  1  0  0  0  0  0  0  0  0
   -2.4764   -6.5859   -0.1560 O   0  0  0  1  0  0  0  0  0  0  0  0
   -3.0735   -7.2473   -1.2783 C   0  0  0  1  0  0  0  0  0  0  0  0
    3.1257   -1.2628    0.1852 N   0  0  0  1  0  0  0  0  0  0  0  0
    4.4330   -0.5890    0.2900 C   0  0  0  1  0  0  0  0  0  0  0  0
    5.5235   -1.5531    0.7650 C   0  0  0  1  0  0  0  0  0  0  0  0
    6.6001   -0.6615    1.4036 C   0  0  0  1  0  0  0  0  0  0  0  0
    5.9131    0.6683    1.7356 C   0  0  0  1  0  0  0  0  0  0  0  0
    4.4390    0.4521    1.4169 C   0  0  0  1  0  0  0  0  0  0  0  0
    6.4737    1.7708    0.8955 N   0  0  0  1  0  0  0  0  0  0  0  0
    0.9179    2.4772    0.0988 H   0  0  0  1  0  0  0  0  0  0  0  0
   -2.1490    1.9440   -0.0608 H   0  0  0  1  0  0  0  0  0  0  0  0
   -2.6427   -2.4541   -2.0467 H   0  0  0  1  0  0  0  0  0  0  0  0
   -3.0443   -4.8433   -2.1757 H   0  0  0  1  0  0  0  0  0  0  0  0
   -1.5073   -5.3093    1.7037 H   0  0  0  1  0  0  0  0  0  0  0  0
   -1.1064   -2.9240    1.8326 H   0  0  0  1  0  0  0  0  0  0  0  0
   -4.1086   -6.9834   -1.3391 H   0  0  0  1  0  0  0  0  0  0  0  0
   -2.9822   -8.3065   -1.1578 H   0  0  0  1  0  0  0  0  0  0  0  0
   -2.5754   -6.9458   -2.1760 H   0  0  0  1  0  0  0  0  0  0  0  0
    3.1128   -2.2423    0.1570 H   0  0  0  1  0  0  0  0  0  0  0  0
    4.6841   -0.1477   -0.6518 H   0  0  0  1  0  0  0  0  0  0  0  0
    5.9293   -2.0972   -0.0621 H   0  0  0  1  0  0  0  0  0  0  0  0
    5.1295   -2.2394    1.4852 H   0  0  0  1  0  0  0  0  0  0  0  0
    6.9774   -1.1166    2.2954 H   0  0  0  1  0  0  0  0  0  0  0  0
    7.4045   -0.5017    0.7163 H   0  0  0  1  0  0  0  0  0  0  0  0
    6.0411    0.9076    2.7706 H   0  0  0  1  0  0  0  0  0  0  0  0
    3.9859    1.3647    1.0897 H   0  0  0  1  0  0  0  0  0  0  0  0
    3.9178    0.0823    2.2750 H   0  0  0  1  0  0  0  0  0  0  0  0
    6.2600    1.6054   -0.0466 H   0  0  0  1  0  0  0  0  0  0  0  0
    7.4467    1.8048    1.0082 H   0  0  0  1  0  0  0  0  0  0  0  0
  1  2  4  0  0  0  0
  1  6  4  0  0  0  0
  1 18  1  0  0  0  0
  2  3  4  0  0  0  0
  3  4  4  0  0  0  0
  3 25  1  0  0  0  0
  4  5  4  0  0  0  0
  4  7  4  0  0  0  0
  5  6  4  0  0  0  0
  5  9  4  0  0  0  0
  7  8  4  0  0  0  0
  7 26  1  0  0  0  0
  8  9  4  0  0  0  0
  9 10  1  0  0  0  0
 10 11  4  0  0  0  0
 10 15  4  0  0  0  0
 11 12  4  0  0  0  0
 11 27  1  0  0  0  0
 12 13  4  0  0  0  0
 12 28  1  0  0  0  0
 13 14  4  0  0  0  0
 13 16  1  0  0  0  0
 14 15  4  0  0  0  0
 14 29  1  0  0  0  0
 15 30  1  0  0  0  0
 16 17  1  0  0  0  0
 17 31  1  0  0  0  0
 17 32  1  0  0  0  0
 17 33  1  0  0  0  0
 18 19  1  0  0  0  0
 18 34  1  0  0  0  0
 19 20  1  0  0  0  0
 19 23  1  0  0  0  0
 19 35  1  0  0  0  0
 20 21  1  0  0  0  0
 20 36  1  0  0  0  0
 20 37  1  0  0  0  0
 21 22  1  0  0  0  0
 21 38  1  0  0  0  0
 21 39  1  0  0  0  0
 22 23  1  0  0  0  0
 22 24  1  0  0  0  0
 22 40  1  0  0  0  0
 23 41  1  0  0  0  0
 23 42  1  0  0  0  0
 24 43  1  0  0  0  0
 24 44  1  0  0  0  0
M  END
> <ConfClashScore>
0 

> <ConfOneFourInteractionScore>
-0.985399 

> <ConfScore>
-0.0780776 

> <ConfScorePBest>
0.00448622 

> <ConfTolerance>
0.258389 

$$$$
c22.sdf
 OpenBabel04162418103D

 44 47  0  0  0  0  0  0  0  0999 V2000
    1.9452   -0.6103    0.1255 C   0  0  0  1  0  0  0  0  0  0  0  0
    2.0363    0.7233    0.1481 N   0  0  0  1  0  0  0  0  0  0  0  0
    0.8946    1.4376    0.0881 C   0  0  0  1  0  0  0  0  0  0  0  0
   -0.3452    0.7386    0.0096 C   0  0  0  1  0  0  0  0  0  0  0  0
   -0.2528   -0.6478    0.0019 C   0  0  0  1  0  0  0  0  0  0  0  0
    0.8780   -1.3913    0.0539 N   0  0  0  1  0  0  0  0  0  0  0  0
   -1.7303    0.9921   -0.0538 C   0  0  0  1  0  0  0  0  0  0  0  0
   -2.4281   -0.1192   -0.1028 N   0  0  0  1  0  0  0  0  0  0  0  0
   -1.5126   -1.1341   -0.0681 N   0  0  0  1  0  0  0  0  0  0  0  0
   -1.8419   -2.5193   -0.1014 C   0  0  0  1  0  0  0  0  0  0  0  0
   -2.7523   -2.9909   -1.0281 C   0  0  0  1  0  0  0  0  0  0  0  0
   -3.0688   -4.3400   -1.0639 C   0  0  0  1  0  0  0  0  0  0  0  0
   -2.4781   -5.2126   -0.1696 C   0  0  0  1  0  0  0  0  0  0  0  0
   -1.5649   -4.7393    0.7599 C   0  0  0  1  0  0  0  0  0  0  0  0
   -1.2492   -3.3942    0.7958 C   0  0  0  1  0  0  0  0  0  0  0  0
   -2.7467   -6.5364   -0.1484 O   0  0  0  1  0  0  0  0  0  0  0  0
   -3.6378   -7.0981   -1.1399 C   0  0  0  1  0  0  0  0  0  0  0  0
    3.1213   -1.2604    0.1848 N   0  0  0  1  0  0  0  0  0  0  0  0
    4.4143   -0.6059    0.0858 C   0  0  0  1  0  0  0  0  0  0  0  0
    4.4333    0.3546   -1.1089 C   0  0  0  1  0  0  0  0  0  0  0  0
    5.4377   -0.2389   -2.0888 C   0  0  0  1  0  0  0  0  0  0  0  0
    6.4448   -0.9889   -1.2072 C   0  0  0  1  0  0  0  0  0  0  0  0
    5.5171   -1.6429   -0.1797 C   0  0  0  1  0  0  0  0  0  0  0  0
    7.4136   -0.0423   -0.5504 N   0  0  0  1  0  0  0  0  0  0  0  0
    0.9178    2.4772    0.0988 H   0  0  0  1  0  0  0  0  0  0  0  0
   -2.1490    1.9440   -0.0608 H   0  0  0  1  0  0  0  0  0  0  0  0
   -3.1998   -2.3338   -1.6985 H   0  0  0  1  0  0  0  0  0  0  0  0
   -3.7508   -4.6956   -1.7638 H   0  0  0  1  0  0  0  0  0  0  0  0
   -1.1173   -5.3965    1.4303 H   0  0  0  1  0  0  0  0  0  0  0  0
   -0.5672   -3.0385    1.4957 H   0  0  0  1  0  0  0  0  0  0  0  0
   -3.7148   -8.1551   -0.9929 H   0  0  0  1  0  0  0  0  0  0  0  0
   -3.2517   -6.9016   -2.1183 H   0  0  0  1  0  0  0  0  0  0  0  0
   -4.6059   -6.6532   -1.0420 H   0  0  0  1  0  0  0  0  0  0  0  0
    3.1049   -2.2333    0.3017 H   0  0  0  1  0  0  0  0  0  0  0  0
    4.6159   -0.0742    0.9922 H   0  0  0  1  0  0  0  0  0  0  0  0
    3.4635    0.4139   -1.5570 H   0  0  0  1  0  0  0  0  0  0  0  0
    4.7441    1.3307   -0.7996 H   0  0  0  1  0  0  0  0  0  0  0  0
    4.9530   -0.9123   -2.7644 H   0  0  0  1  0  0  0  0  0  0  0  0
    5.9255    0.5347   -2.6442 H   0  0  0  1  0  0  0  0  0  0  0  0
    6.9862   -1.7219   -1.7681 H   0  0  0  1  0  0  0  0  0  0  0  0
    6.0507   -1.8620    0.7214 H   0  0  0  1  0  0  0  0  0  0  0  0
    5.0970   -2.5445   -0.5741 H   0  0  0  1  0  0  0  0  0  0  0  0
    6.9306    0.5403    0.0723 H   0  0  0  1  0  0  0  0  0  0  0  0
    7.8515    0.5043   -1.2359 H   0  0  0  1  0  0  0  0  0  0  0  0
  1  2  4  0  0  0  0
  1  6  4  0  0  0  0
  1 18  1  0  0  0  0
  2  3  4  0  0  0  0
  3  4  4  0  0  0  0
  3 25  1  0  0  0  0
  4  5  4  0  0  0  0
  4  7  4  0  0  0  0
  5  6  4  0  0  0  0
  5  9  4  0  0  0  0
  7  8  4  0  0  0  0
  7 26  1  0  0  0  0
  8  9  4  0  0  0  0
  9 10  1  0  0  0  0
 10 11  4  0  0  0  0
 10 15  4  0  0  0  0
 11 12  4  0  0  0  0
 11 27  1  0  0  0  0
 12 13  4  0  0  0  0
 12 28  1  0  0  0  0
 13 14  4  0  0  0  0
 13 16  1  0  0  0  0
 14 15  4  0  0  0  0
 14 29  1  0  0  0  0
 15 30  1  0  0  0  0
 16 17  1  0  0  0  0
 17 31  1  0  0  0  0
 17 32  1  0  0  0  0
 17 33  1  0  0  0  0
 18 19  1  0  0  0  0
 18 34  1  0  0  0  0
 19 20  1  0  0  0  0
 19 23  1  0  0  0  0
 19 35  1  0  0  0  0
 20 21  1  0  0  0  0
 20 36  1  0  0  0  0
 20 37  1  0  0  0  0
 21 22  1  0  0  0  0
 21 38  1  0  0  0  0
 21 39  1  0  0  0  0
 22 23  1  0  0  0  0
 22 24  1  0  0  0  0
 22 40  1  0  0  0  0
 23 41  1  0  0  0  0
 23 42  1  0  0  0  0
 24 43  1  0  0  0  0
 24 44  1  0  0  0  0
M  END
> <ConfClashScore>
0 

> <ConfOneFourInteractionScore>
-0.985399 

> <ConfScore>
-0.0772487 

> <ConfScorePBest>
0.00447289 

> <ConfTolerance>
0.231899 

$$$$
c22.sdf
 OpenBabel04162418103D

 44 47  0  0  0  0  0  0  0  0999 V2000
    1.9453   -0.6102    0.1256 C   0  0  0  1  0  0  0  0  0  0  0  0
    2.0363    0.7233    0.1482 N   0  0  0  1  0  0  0  0  0  0  0  0
    0.8946    1.4376    0.0881 C   0  0  0  1  0  0  0  0  0  0  0  0
   -0.3452    0.7386    0.0096 C   0  0  0  1  0  0  0  0  0  0  0  0
   -0.2528   -0.6478    0.0020 C   0  0  0  1  0  0  0  0  0  0  0  0
    0.8780   -1.3912    0.0539 N   0  0  0  1  0  0  0  0  0  0  0  0
   -1.7303    0.9921   -0.0538 C   0  0  0  1  0  0  0  0  0  0  0  0
   -2.4281   -0.1192   -0.1028 N   0  0  0  1  0  0  0  0  0  0  0  0
   -1.5125   -1.1342   -0.0681 N   0  0  0  1  0  0  0  0  0  0  0  0
   -1.8419   -2.5193   -0.1014 C   0  0  0  1  0  0  0  0  0  0  0  0
   -3.0762   -2.9470    0.3499 C   0  0  0  1  0  0  0  0  0  0  0  0
   -3.3987   -4.2946    0.3125 C   0  0  0  1  0  0  0  0  0  0  0  0
   -2.4840   -5.2112   -0.1709 C   0  0  0  1  0  0  0  0  0  0  0  0
   -1.2461   -4.7820   -0.6235 C   0  0  0  1  0  0  0  0  0  0  0  0
   -0.9243   -3.4383   -0.5862 C   0  0  0  1  0  0  0  0  0  0  0  0
   -2.6859   -6.5622   -0.2521 O   0  0  0  1  0  0  0  0  0  0  0  0
   -3.8876   -6.9869    0.4098 C   0  0  0  1  0  0  0  0  0  0  0  0
    3.1380   -1.2696    0.1858 N   0  0  0  1  0  0  0  0  0  0  0  0
    4.4115   -0.5504    0.2940 C   0  0  0  1  0  0  0  0  0  0  0  0
    5.0273   -0.3395   -1.0793 C   0  0  0  1  0  0  0  0  0  0  0  0
    5.6631   -1.7064   -1.3558 C   0  0  0  1  0  0  0  0  0  0  0  0
    6.2639   -2.1297   -0.0124 C   0  0  0  1  0  0  0  0  0  0  0  0
    5.4444   -1.3897    1.0533 C   0  0  0  1  0  0  0  0  0  0  0  0
    7.7030   -1.7315    0.0651 N   0  0  0  1  0  0  0  0  0  0  0  0
    0.9178    2.4772    0.0988 H   0  0  0  1  0  0  0  0  0  0  0  0
   -2.1490    1.9441   -0.0608 H   0  0  0  1  0  0  0  0  0  0  0  0
   -3.7630   -2.2579    0.7173 H   0  0  0  1  0  0  0  0  0  0  0  0
   -4.3291   -4.6160    0.6483 H   0  0  0  1  0  0  0  0  0  0  0  0
   -0.5593   -5.4710   -0.9910 H   0  0  0  1  0  0  0  0  0  0  0  0
    0.0059   -3.1168   -0.9220 H   0  0  0  1  0  0  0  0  0  0  0  0
   -3.8509   -6.6951    1.4386 H   0  0  0  1  0  0  0  0  0  0  0  0
   -3.9733   -8.0515    0.3441 H   0  0  0  1  0  0  0  0  0  0  0  0
   -4.7337   -6.5307   -0.0602 H   0  0  0  1  0  0  0  0  0  0  0  0
    3.1440   -2.2491    0.1560 H   0  0  0  1  0  0  0  0  0  0  0  0
    4.2517    0.3869    0.7846 H   0  0  0  1  0  0  0  0  0  0  0  0
    5.7648    0.4354   -1.0599 H   0  0  0  1  0  0  0  0  0  0  0  0
    4.2804   -0.1037   -1.8083 H   0  0  0  1  0  0  0  0  0  0  0  0
    6.4257   -1.6245   -2.1018 H   0  0  0  1  0  0  0  0  0  0  0  0
    4.9232   -2.4093   -1.6771 H   0  0  0  1  0  0  0  0  0  0  0  0
    6.1786   -3.1882    0.1184 H   0  0  0  1  0  0  0  0  0  0  0  0
    4.9528   -2.0904    1.6953 H   0  0  0  1  0  0  0  0  0  0  0  0
    6.0802   -0.7565    1.6361 H   0  0  0  1  0  0  0  0  0  0  0  0
    7.7684   -0.7590    0.1675 H   0  0  0  1  0  0  0  0  0  0  0  0
    8.1621   -2.0048   -0.7564 H   0  0  0  1  0  0  0  0  0  0  0  0
  1  2  4  0  0  0  0
  1  6  4  0  0  0  0
  1 18  1  0  0  0  0
  2  3  4  0  0  0  0
  3  4  4  0  0  0  0
  3 25  1  0  0  0  0
  4  5  4  0  0  0  0
  4  7  4  0  0  0  0
  5  6  4  0  0  0  0
  5  9  4  0  0  0  0
  7  8  4  0  0  0  0
  7 26  1  0  0  0  0
  8  9  4  0  0  0  0
  9 10  1  0  0  0  0
 10 11  4  0  0  0  0
 10 15  4  0  0  0  0
 11 12  4  0  0  0  0
 11 27  1  0  0  0  0
 12 13  4  0  0  0  0
 12 28  1  0  0  0  0
 13 14  4  0  0  0  0
 13 16  1  0  0  0  0
 14 15  4  0  0  0  0
 14 29  1  0  0  0  0
 15 30  1  0  0  0  0
 16 17  1  0  0  0  0
 17 31  1  0  0  0  0
 17 32  1  0  0  0  0
 17 33  1  0  0  0  0
 18 19  1  0  0  0  0
 18 34  1  0  0  0  0
 19 20  1  0  0  0  0
 19 23  1  0  0  0  0
 19 35  1  0  0  0  0
 20 21  1  0  0  0  0
 20 36  1  0  0  0  0
 20 37  1  0  0  0  0
 21 22  1  0  0  0  0
 21 38  1  0  0  0  0
 21 39  1  0  0  0  0
 22 23  1  0  0  0  0
 22 24  1  0  0  0  0
 22 40  1  0  0  0  0
 23 41  1  0  0  0  0
 23 42  1  0  0  0  0
 24 43  1  0  0  0  0
 24 44  1  0  0  0  0
M  END
> <ConfClashScore>
0 

> <ConfOneFourInteractionScore>
-0.984337 

> <ConfScore>
-0.0771399 

> <ConfScorePBest>
0.00445956 

> <ConfTolerance>
0.33712 

$$$$
c22.sdf
 OpenBabel04162418103D

 44 47  0  0  0  0  0  0  0  0999 V2000
    1.9452   -0.6103    0.1254 C   0  0  0  1  0  0  0  0  0  0  0  0
    2.0363    0.7233    0.1481 N   0  0  0  1  0  0  0  0  0  0  0  0
    0.8946    1.4376    0.0881 C   0  0  0  1  0  0  0  0  0  0  0  0
   -0.3452    0.7386    0.0096 C   0  0  0  1  0  0  0  0  0  0  0  0
   -0.2528   -0.6477    0.0019 C   0  0  0  1  0  0  0  0  0  0  0  0
    0.8780   -1.3913    0.0537 N   0  0  0  1  0  0  0  0  0  0  0  0
   -1.7303    0.9921   -0.0538 C   0  0  0  1  0  0  0  0  0  0  0  0
   -2.4282   -0.1191   -0.1028 N   0  0  0  1  0  0  0  0  0  0  0  0
   -1.5126   -1.1342   -0.0681 N   0  0  0  1  0  0  0  0  0  0  0  0
   -1.8419   -2.5192   -0.1014 C   0  0  0  1  0  0  0  0  0  0  0  0
   -2.7801   -3.0276    0.7769 C   0  0  0  1  0  0  0  0  0  0  0  0
   -3.1045   -4.3748    0.7409 C   0  0  0  1  0  0  0  0  0  0  0  0
   -2.4861   -5.2107   -0.1696 C   0  0  0  1  0  0  0  0  0  0  0  0
   -1.5451   -4.7006   -1.0506 C   0  0  0  1  0  0  0  0  0  0  0  0
   -1.2215   -3.3574   -1.0148 C   0  0  0  1  0  0  0  0  0  0  0  0
   -2.7532   -6.5324   -0.2528 O   0  0  0  1  0  0  0  0  0  0  0  0
   -3.8405   -7.0894    0.5217 C   0  0  0  1  0  0  0  0  0  0  0  0
    3.1148   -1.2569    0.1843 N   0  0  0  1  0  0  0  0  0  0  0  0
    4.4366   -0.6505    0.3721 C   0  0  0  1  0  0  0  0  0  0  0  0
    5.5504   -1.5633   -0.1480 C   0  0  0  1  0  0  0  0  0  0  0  0
    6.8097   -1.1450    0.6273 C   0  0  0  1  0  0  0  0  0  0  0  0
    6.3174   -0.4050    1.8765 C   0  0  0  1  0  0  0  0  0  0  0  0
    4.8006   -0.5473    1.8589 C   0  0  0  1  0  0  0  0  0  0  0  0
    6.7078    1.0355    1.8182 N   0  0  0  1  0  0  0  0  0  0  0  0
    0.9178    2.4773    0.0987 H   0  0  0  1  0  0  0  0  0  0  0  0
   -2.1490    1.9440   -0.0607 H   0  0  0  1  0  0  0  0  0  0  0  0
   -3.2425   -2.3995    1.4648 H   0  0  0  1  0  0  0  0  0  0  0  0
   -3.8134   -4.7566    1.3991 H   0  0  0  1  0  0  0  0  0  0  0  0
   -1.0826   -5.3287   -1.7384 H   0  0  0  1  0  0  0  0  0  0  0  0
   -0.5126   -2.9754   -1.6729 H   0  0  0  1  0  0  0  0  0  0  0  0
   -4.7541   -6.5978    0.2597 H   0  0  0  1  0  0  0  0  0  0  0  0
   -3.6453   -6.9467    1.5640 H   0  0  0  1  0  0  0  0  0  0  0  0
   -3.9265   -8.1355    0.3144 H   0  0  0  1  0  0  0  0  0  0  0  0
    3.0853   -2.2321    0.0930 H   0  0  0  1  0  0  0  0  0  0  0  0
    4.4612    0.3073   -0.1043 H   0  0  0  1  0  0  0  0  0  0  0  0
    5.6923   -1.4205   -1.1988 H   0  0  0  1  0  0  0  0  0  0  0  0
    5.3150   -2.5893    0.0445 H   0  0  0  1  0  0  0  0  0  0  0  0
    7.3766   -2.0083    0.9072 H   0  0  0  1  0  0  0  0  0  0  0  0
    7.4161   -0.4983    0.0282 H   0  0  0  1  0  0  0  0  0  0  0  0
    6.7249   -0.8500    2.7601 H   0  0  0  1  0  0  0  0  0  0  0  0
    4.4983   -1.4295    2.3835 H   0  0  0  1  0  0  0  0  0  0  0  0
    4.3362    0.3086    2.3024 H   0  0  0  1  0  0  0  0  0  0  0  0
    6.2996    1.5156    2.5687 H   0  0  0  1  0  0  0  0  0  0  0  0
    6.3968    1.4241    0.9741 H   0  0  0  1  0  0  0  0  0  0  0  0
  1  2  4  0  0  0  0
  1  6  4  0  0  0  0
  1 18  1  0  0  0  0
  2  3  4  0  0  0  0
  3  4  4  0  0  0  0
  3 25  1  0  0  0  0
  4  5  4  0  0  0  0
  4  7  4  0  0  0  0
  5  6  4  0  0  0  0
  5  9  4  0  0  0  0
  7  8  4  0  0  0  0
  7 26  1  0  0  0  0
  8  9  4  0  0  0  0
  9 10  1  0  0  0  0
 10 11  4  0  0  0  0
 10 15  4  0  0  0  0
 11 12  4  0  0  0  0
 11 27  1  0  0  0  0
 12 13  4  0  0  0  0
 12 28  1  0  0  0  0
 13 14  4  0  0  0  0
 13 16  1  0  0  0  0
 14 15  4  0  0  0  0
 14 29  1  0  0  0  0
 15 30  1  0  0  0  0
 16 17  1  0  0  0  0
 17 31  1  0  0  0  0
 17 32  1  0  0  0  0
 17 33  1  0  0  0  0
 18 19  1  0  0  0  0
 18 34  1  0  0  0  0
 19 20  1  0  0  0  0
 19 23  1  0  0  0  0
 19 35  1  0  0  0  0
 20 21  1  0  0  0  0
 20 36  1  0  0  0  0
 20 37  1  0  0  0  0
 21 22  1  0  0  0  0
 21 38  1  0  0  0  0
 21 39  1  0  0  0  0
 22 23  1  0  0  0  0
 22 24  1  0  0  0  0
 22 40  1  0  0  0  0
 23 41  1  0  0  0  0
 23 42  1  0  0  0  0
 24 43  1  0  0  0  0
 24 44  1  0  0  0  0
M  END
> <ConfClashScore>
0 

> <ConfOneFourInteractionScore>
-0.984337 

> <ConfScore>
-0.0769319 

> <ConfScorePBest>
0.00444624 

> <ConfTolerance>
0.245758 

$$$$
c22.sdf
 OpenBabel04162418103D

 44 47  0  0  0  0  0  0  0  0999 V2000
    1.9452   -0.6102    0.1255 C   0  0  0  1  0  0  0  0  0  0  0  0
    2.0363    0.7232    0.1481 N   0  0  0  1  0  0  0  0  0  0  0  0
    0.8946    1.4375    0.0881 C   0  0  0  1  0  0  0  0  0  0  0  0
   -0.3453    0.7386    0.0096 C   0  0  0  1  0  0  0  0  0  0  0  0
   -0.2528   -0.6477    0.0020 C   0  0  0  1  0  0  0  0  0  0  0  0
    0.8779   -1.3913    0.0538 N   0  0  0  1  0  0  0  0  0  0  0  0
   -1.7303    0.9921   -0.0538 C   0  0  0  1  0  0  0  0  0  0  0  0
   -2.4281   -0.1192   -0.1028 N   0  0  0  1  0  0  0  0  0  0  0  0
   -1.5125   -1.1342   -0.0681 N   0  0  0  1  0  0  0  0  0  0  0  0
   -1.8386   -2.5051   -0.1010 C   0  0  0  1  0  0  0  0  0  0  0  0
   -2.4498   -3.0947   -1.1915 C   0  0  0  1  0  0  0  0  0  0  0  0
   -2.7435   -4.4493   -1.1727 C   0  0  0  1  0  0  0  0  0  0  0  0
   -2.4299   -5.2092   -0.0616 C   0  0  0  1  0  0  0  0  0  0  0  0
   -1.8168   -4.6177    1.0319 C   0  0  0  1  0  0  0  0  0  0  0  0
   -1.5240   -3.2671    1.0134 C   0  0  0  1  0  0  0  0  0  0  0  0
   -2.6358   -6.5475   -0.0822 O   0  0  0  1  0  0  0  0  0  0  0  0
   -3.2223   -7.1031   -1.2695 C   0  0  0  1  0  0  0  0  0  0  0  0
    3.1323   -1.2665    0.1854 N   0  0  0  1  0  0  0  0  0  0  0  0
    4.4353   -0.6008    0.1490 C   0  0  0  1  0  0  0  0  0  0  0  0
    4.4929    0.4032   -1.0053 C   0  0  0  1  0  0  0  0  0  0  0  0
    6.0053    0.5043   -1.2424 C   0  0  0  1  0  0  0  0  0  0  0  0
    6.5122   -0.9272   -1.1192 C   0  0  0  1  0  0  0  0  0  0  0  0
    5.5510   -1.6164   -0.1438 C   0  0  0  1  0  0  0  0  0  0  0  0
    7.8858   -0.9436   -0.5872 N   0  0  0  1  0  0  0  0  0  0  0  0
    0.9179    2.4772    0.0987 H   0  0  0  1  0  0  0  0  0  0  0  0
   -2.1490    1.9440   -0.0608 H   0  0  0  1  0  0  0  0  0  0  0  0
   -2.6894   -2.5221   -2.0259 H   0  0  0  1  0  0  0  0  0  0  0  0
   -3.1998   -4.8938   -1.9947 H   0  0  0  1  0  0  0  0  0  0  0  0
   -1.5772   -5.1903    1.8664 H   0  0  0  1  0  0  0  0  0  0  0  0
   -1.0676   -2.8226    1.8354 H   0  0  0  1  0  0  0  0  0  0  0  0
   -2.5902   -6.9003   -2.1086 H   0  0  0  1  0  0  0  0  0  0  0  0
   -4.1834   -6.6618   -1.4324 H   0  0  0  1  0  0  0  0  0  0  0  0
   -3.3304   -8.1611   -1.1521 H   0  0  0  1  0  0  0  0  0  0  0  0
    3.1156   -2.2437    0.2573 H   0  0  0  1  0  0  0  0  0  0  0  0
    4.6114   -0.1091    1.0829 H   0  0  0  1  0  0  0  0  0  0  0  0
    4.0770    1.3480   -0.7234 H   0  0  0  1  0  0  0  0  0  0  0  0
    3.9849    0.0335   -1.8714 H   0  0  0  1  0  0  0  0  0  0  0  0
    6.4617    1.1309   -0.5048 H   0  0  0  1  0  0  0  0  0  0  0  0
    6.2091    0.8940   -2.2178 H   0  0  0  1  0  0  0  0  0  0  0  0
    6.4922   -1.4146   -2.0716 H   0  0  0  1  0  0  0  0  0  0  0  0
    6.0625   -1.8760    0.7596 H   0  0  0  1  0  0  0  0  0  0  0  0
    5.1414   -2.4993   -0.5885 H   0  0  0  1  0  0  0  0  0  0  0  0
    7.9058   -0.4892    0.2808 H   0  0  0  1  0  0  0  0  0  0  0  0
    8.4832   -0.4813   -1.2116 H   0  0  0  1  0  0  0  0  0  0  0  0
  1  2  4  0  0  0  0
  1  6  4  0  0  0  0
  1 18  1  0  0  0  0
  2  3  4  0  0  0  0
  3  4  4  0  0  0  0
  3 25  1  0  0  0  0
  4  5  4  0  0  0  0
  4  7  4  0  0  0  0
  5  6  4  0  0  0  0
  5  9  4  0  0  0  0
  7  8  4  0  0  0  0
  7 26  1  0  0  0  0
  8  9  4  0  0  0  0
  9 10  1  0  0  0  0
 10 11  4  0  0  0  0
 10 15  4  0  0  0  0
 11 12  4  0  0  0  0
 11 27  1  0  0  0  0
 12 13  4  0  0  0  0
 12 28  1  0  0  0  0
 13 14  4  0  0  0  0
 13 16  1  0  0  0  0
 14 15  4  0  0  0  0
 14 29  1  0  0  0  0
 15 30  1  0  0  0  0
 16 17  1  0  0  0  0
 17 31  1  0  0  0  0
 17 32  1  0  0  0  0
 17 33  1  0  0  0  0
 18 19  1  0  0  0  0
 18 34  1  0  0  0  0
 19 20  1  0  0  0  0
 19 23  1  0  0  0  0
 19 35  1  0  0  0  0
 20 21  1  0  0  0  0
 20 36  1  0  0  0  0
 20 37  1  0  0  0  0
 21 22  1  0  0  0  0
 21 38  1  0  0  0  0
 21 39  1  0  0  0  0
 22 23  1  0  0  0  0
 22 24  1  0  0  0  0
 22 40  1  0  0  0  0
 23 41  1  0  0  0  0
 23 42  1  0  0  0  0
 24 43  1  0  0  0  0
 24 44  1  0  0  0  0
M  END
> <ConfClashScore>
0 

> <ConfOneFourInteractionScore>
-0.985399 

> <ConfScore>
-0.076669 

> <ConfScorePBest>
0.00443291 

> <ConfTolerance>
0.280045 

$$$$
c22.sdf
 OpenBabel04162418103D

 44 47  0  0  0  0  0  0  0  0999 V2000
    1.9453   -0.6102    0.1256 C   0  0  0  1  0  0  0  0  0  0  0  0
    2.0363    0.7233    0.1481 N   0  0  0  1  0  0  0  0  0  0  0  0
    0.8946    1.4375    0.0881 C   0  0  0  1  0  0  0  0  0  0  0  0
   -0.3453    0.7386    0.0096 C   0  0  0  1  0  0  0  0  0  0  0  0
   -0.2528   -0.6478    0.0020 C   0  0  0  1  0  0  0  0  0  0  0  0
    0.8780   -1.3912    0.0539 N   0  0  0  1  0  0  0  0  0  0  0  0
   -1.7304    0.9921   -0.0538 C   0  0  0  1  0  0  0  0  0  0  0  0
   -2.4281   -0.1192   -0.1028 N   0  0  0  1  0  0  0  0  0  0  0  0
   -1.5125   -1.1341   -0.0681 N   0  0  0  1  0  0  0  0  0  0  0  0
   -1.8385   -2.5052   -0.1009 C   0  0  0  1  0  0  0  0  0  0  0  0
   -3.0209   -2.9975    0.4183 C   0  0  0  1  0  0  0  0  0  0  0  0
   -3.2935   -4.3551    0.3546 C   0  0  0  1  0  0  0  0  0  0  0  0
   -2.3807   -5.2171   -0.2233 C   0  0  0  1  0  0  0  0  0  0  0  0
   -1.1948   -4.7230   -0.7441 C   0  0  0  1  0  0  0  0  0  0  0  0
   -0.9228   -3.3694   -0.6806 C   0  0  0  1  0  0  0  0  0  0  0  0
   -2.6447   -6.5440   -0.2808 O   0  0  0  1  0  0  0  0  0  0  0  0
   -1.6231   -7.3933   -0.8263 C   0  0  0  1  0  0  0  0  0  0  0  0
    3.1135   -1.2561    0.1845 N   0  0  0  1  0  0  0  0  0  0  0  0
    3.4490   -2.6759    0.3278 C   0  0  0  1  0  0  0  0  0  0  0  0
    3.5612   -3.0510    1.8002 C   0  0  0  1  0  0  0  0  0  0  0  0
    4.6160   -4.1644    1.8388 C   0  0  0  1  0  0  0  0  0  0  0  0
    5.6502   -3.6341    0.8421 C   0  0  0  1  0  0  0  0  0  0  0  0
    4.8304   -2.9638   -0.2716 C   0  0  0  1  0  0  0  0  0  0  0  0
    6.4379   -4.7163    0.3079 N   0  0  0  1  0  0  0  0  0  0  0  0
    0.9179    2.4772    0.0988 H   0  0  0  1  0  0  0  0  0  0  0  0
   -2.1489    1.9441   -0.0607 H   0  0  0  1  0  0  0  0  0  0  0  0
   -3.7060   -2.3495    0.8569 H   0  0  0  1  0  0  0  0  0  0  0  0
   -4.1850   -4.7252    0.7418 H   0  0  0  1  0  0  0  0  0  0  0  0
   -0.5097   -5.3711   -1.1826 H   0  0  0  1  0  0  0  0  0  0  0  0
   -0.0313   -2.9993   -1.0678 H   0  0  0  1  0  0  0  0  0  0  0  0
   -1.1325   -6.8893   -1.6326 H   0  0  0  1  0  0  0  0  0  0  0  0
   -2.0669   -8.2971   -1.1883 H   0  0  0  1  0  0  0  0  0  0  0  0
   -0.9090   -7.6263   -0.0644 H   0  0  0  1  0  0  0  0  0  0  0  0
    3.8952   -0.6687    0.1194 H   0  0  0  1  0  0  0  0  0  0  0  0
    2.7007   -3.2701   -0.1539 H   0  0  0  1  0  0  0  0  0  0  0  0
    3.8789   -2.2101    2.3806 H   0  0  0  1  0  0  0  0  0  0  0  0
    2.6230   -3.4072    2.1714 H   0  0  0  1  0  0  0  0  0  0  0  0
    5.0352   -4.2727    2.8174 H   0  0  0  1  0  0  0  0  0  0  0  0
    4.2086   -5.1007    1.5192 H   0  0  0  1  0  0  0  0  0  0  0  0
    6.2948   -2.9221    1.3137 H   0  0  0  1  0  0  0  0  0  0  0  0
    5.2985   -2.0520   -0.5789 H   0  0  0  1  0  0  0  0  0  0  0  0
    4.7405   -3.6200   -1.1119 H   0  0  0  1  0  0  0  0  0  0  0  0
    5.8435   -5.4021   -0.0620 H   0  0  0  1  0  0  0  0  0  0  0  0
    6.9825   -5.1075    1.0226 H   0  0  0  1  0  0  0  0  0  0  0  0
  1  2  4  0  0  0  0
  1  6  4  0  0  0  0
  1 18  1  0  0  0  0
  2  3  4  0  0  0  0
  3  4  4  0  0  0  0
  3 25  1  0  0  0  0
  4  5  4  0  0  0  0
  4  7  4  0  0  0  0
  5  6  4  0  0  0  0
  5  9  4  0  0  0  0
  7  8  4  0  0  0  0
  7 26  1  0  0  0  0
  8  9  4  0  0  0  0
  9 10  1  0  0  0  0
 10 11  4  0  0  0  0
 10 15  4  0  0  0  0
 11 12  4  0  0  0  0
 11 27  1  0  0  0  0
 12 13  4  0  0  0  0
 12 28  1  0  0  0  0
 13 14  4  0  0  0  0
 13 16  1  0  0  0  0
 14 15  4  0  0  0  0
 14 29  1  0  0  0  0
 15 30  1  0  0  0  0
 16 17  1  0  0  0  0
 17 31  1  0  0  0  0
 17 32  1  0  0  0  0
 17 33  1  0  0  0  0
 18 19  1  0  0  0  0
 18 34  1  0  0  0  0
 19 20  1  0  0  0  0
 19 23  1  0  0  0  0
 19 35  1  0  0  0  0
 20 21  1  0  0  0  0
 20 36  1  0  0  0  0
 20 37  1  0  0  0  0
 21 22  1  0  0  0  0
 21 38  1  0  0  0  0
 21 39  1  0  0  0  0
 22 23  1  0  0  0  0
 22 24  1  0  0  0  0
 22 40  1  0  0  0  0
 23 41  1  0  0  0  0
 23 42  1  0  0  0  0
 24 43  1  0  0  0  0
 24 44  1  0  0  0  0
M  END
> <ConfClashScore>
0 

> <ConfOneFourInteractionScore>
-0.984337 

> <ConfScore>
-0.076248 

> <ConfScorePBest>
0.00441958 

> <ConfTolerance>
0.336573 

$$$$
c22.sdf
 OpenBabel04162418103D

 44 47  0  0  0  0  0  0  0  0999 V2000
    1.9452   -0.6102    0.1255 C   0  0  0  1  0  0  0  0  0  0  0  0
    2.0363    0.7234    0.1481 N   0  0  0  1  0  0  0  0  0  0  0  0
    0.8945    1.4375    0.0881 C   0  0  0  1  0  0  0  0  0  0  0  0
   -0.3453    0.7386    0.0096 C   0  0  0  1  0  0  0  0  0  0  0  0
   -0.2528   -0.6478    0.0020 C   0  0  0  1  0  0  0  0  0  0  0  0
    0.8779   -1.3913    0.0539 N   0  0  0  1  0  0  0  0  0  0  0  0
   -1.7303    0.9921   -0.0538 C   0  0  0  1  0  0  0  0  0  0  0  0
   -2.4281   -0.1191   -0.1028 N   0  0  0  1  0  0  0  0  0  0  0  0
   -1.5125   -1.1341   -0.0681 N   0  0  0  1  0  0  0  0  0  0  0  0
   -1.8385   -2.5051   -0.1011 C   0  0  0  1  0  0  0  0  0  0  0  0
   -3.0321   -2.8936    0.4774 C   0  0  0  1  0  0  0  0  0  0  0  0
   -3.4042   -4.2289    0.4682 C   0  0  0  1  0  0  0  0  0  0  0  0
   -2.5792   -5.1724   -0.1144 C   0  0  0  1  0  0  0  0  0  0  0  0
   -1.3821   -4.7826   -0.6943 C   0  0  0  1  0  0  0  0  0  0  0  0
   -1.0109   -3.4512   -0.6854 C   0  0  0  1  0  0  0  0  0  0  0  0
   -3.0418   -6.4365   -0.0582 O   0  0  0  1  0  0  0  0  0  0  0  0
   -2.3454   -7.3813   -0.9037 C   0  0  0  1  0  0  0  0  0  0  0  0
    3.1379   -1.2696    0.1857 N   0  0  0  1  0  0  0  0  0  0  0  0
    3.2099   -2.7310    0.1754 C   0  0  0  1  0  0  0  0  0  0  0  0
    2.3701   -3.3111    1.3000 C   0  0  0  1  0  0  0  0  0  0  0  0
    3.0442   -4.6644    1.5792 C   0  0  0  1  0  0  0  0  0  0  0  0
    4.4296   -4.6373    0.9529 C   0  0  0  1  0  0  0  0  0  0  0  0
    4.6376   -3.1962    0.4491 C   0  0  0  1  0  0  0  0  0  0  0  0
    4.5032   -5.5923   -0.1753 N   0  0  0  1  0  0  0  0  0  0  0  0
    0.9178    2.4773    0.0987 H   0  0  0  1  0  0  0  0  0  0  0  0
   -2.1490    1.9441   -0.0608 H   0  0  0  1  0  0  0  0  0  0  0  0
   -3.6510   -2.1842    0.9193 H   0  0  0  1  0  0  0  0  0  0  0  0
   -4.3043   -4.5208    0.8999 H   0  0  0  1  0  0  0  0  0  0  0  0
   -0.7632   -5.4919   -1.1363 H   0  0  0  1  0  0  0  0  0  0  0  0
   -0.1110   -3.1593   -1.1170 H   0  0  0  1  0  0  0  0  0  0  0  0
   -2.7603   -8.3578   -0.7652 H   0  0  0  1  0  0  0  0  0  0  0  0
   -1.3076   -7.3948   -0.6435 H   0  0  0  1  0  0  0  0  0  0  0  0
   -2.4533   -7.0902   -1.9276 H   0  0  0  1  0  0  0  0  0  0  0  0
    3.9680   -0.7511    0.2372 H   0  0  0  1  0  0  0  0  0  0  0  0
    2.8720   -3.0985   -0.7709 H   0  0  0  1  0  0  0  0  0  0  0  0
    1.3546   -3.4450    0.9907 H   0  0  0  1  0  0  0  0  0  0  0  0
    2.4000   -2.6819    2.1650 H   0  0  0  1  0  0  0  0  0  0  0  0
    3.1260   -4.8183    2.6348 H   0  0  0  1  0  0  0  0  0  0  0  0
    2.4659   -5.4540    1.1468 H   0  0  0  1  0  0  0  0  0  0  0  0
    5.1723   -4.8873    1.6816 H   0  0  0  1  0  0  0  0  0  0  0  0
    5.1050   -2.5895    1.1963 H   0  0  0  1  0  0  0  0  0  0  0  0
    5.2268   -3.1804   -0.4438 H   0  0  0  1  0  0  0  0  0  0  0  0
    5.4011   -5.5674   -0.5670 H   0  0  0  1  0  0  0  0  0  0  0  0
    3.8431   -5.3450   -0.8559 H   0  0  0  1  0  0  0  0  0  0  0  0
  1  2  4  0  0  0  0
  1  6  4  0  0  0  0
  1 18  1  0  0  0  0
  2  3  4  0  0  0  0
  3  4  4  0  0  0  0
  3 25  1  0  0  0  0
  4  5  4  0  0  0  0
  4  7  4  0  0  0  0
  5  6  4  0  0  0  0
  5  9  4  0  0  0  0
  7  8  4  0  0  0  0
  7 26  1  0  0  0  0
  8  9  4  0  0  0  0
  9 10  1  0  0  0  0
 10 11  4  0  0  0  0
 10 15  4  0  0  0  0
 11 12  4  0  0  0  0
 11 27  1  0  0  0  0
 12 13  4  0  0  0  0
 12 28  1  0  0  0  0
 13 14  4  0  0  0  0
 13 16  1  0  0  0  0
 14 15  4  0  0  0  0
 14 29  1  0  0  0  0
 15 30  1  0  0  0  0
 16 17  1  0  0  0  0
 17 31  1  0  0  0  0
 17 32  1  0  0  0  0
 17 33  1  0  0  0  0
 18 19  1  0  0  0  0
 18 34  1  0  0  0  0
 19 20  1  0  0  0  0
 19 23  1  0  0  0  0
 19 35  1  0  0  0  0
 20 21  1  0  0  0  0
 20 36  1  0  0  0  0
 20 37  1  0  0  0  0
 21 22  1  0  0  0  0
 21 38  1  0  0  0  0
 21 39  1  0  0  0  0
 22 23  1  0  0  0  0
 22 24  1  0  0  0  0
 22 40  1  0  0  0  0
 23 41  1  0  0  0  0
 23 42  1  0  0  0  0
 24 43  1  0  0  0  0
 24 44  1  0  0  0  0
M  END
> <ConfClashScore>
0 

> <ConfOneFourInteractionScore>
-0.985399 

> <ConfScore>
-0.075594 

> <ConfScorePBest>
0.00440625 

> <ConfTolerance>
0.254986 

$$$$
c22.sdf
 OpenBabel04162418103D

 44 47  0  0  0  0  0  0  0  0999 V2000
    1.9452   -0.6102    0.1255 C   0  0  0  1  0  0  0  0  0  0  0  0
    2.0363    0.7234    0.1482 N   0  0  0  1  0  0  0  0  0  0  0  0
    0.8946    1.4375    0.0881 C   0  0  0  1  0  0  0  0  0  0  0  0
   -0.3452    0.7386    0.0096 C   0  0  0  1  0  0  0  0  0  0  0  0
   -0.2528   -0.6477    0.0020 C   0  0  0  1  0  0  0  0  0  0  0  0
    0.8780   -1.3912    0.0538 N   0  0  0  1  0  0  0  0  0  0  0  0
   -1.7303    0.9921   -0.0538 C   0  0  0  1  0  0  0  0  0  0  0  0
   -2.4281   -0.1191   -0.1029 N   0  0  0  1  0  0  0  0  0  0  0  0
   -1.5125   -1.1341   -0.0681 N   0  0  0  1  0  0  0  0  0  0  0  0
   -1.8369   -2.4985   -0.1009 C   0  0  0  1  0  0  0  0  0  0  0  0
   -1.7152   -3.1075   -1.3356 C   0  0  0  1  0  0  0  0  0  0  0  0
   -2.0067   -4.4555   -1.4750 C   0  0  0  1  0  0  0  0  0  0  0  0
   -2.4240   -5.1893   -0.3806 C   0  0  0  1  0  0  0  0  0  0  0  0
   -2.5460   -4.5783    0.8577 C   0  0  0  1  0  0  0  0  0  0  0  0
   -2.2555   -3.2342    0.9969 C   0  0  0  1  0  0  0  0  0  0  0  0
   -2.7390   -6.4991   -0.3958 O   0  0  0  1  0  0  0  0  0  0  0  0
   -2.6448   -7.1364   -1.6909 C   0  0  0  1  0  0  0  0  0  0  0  0
    3.1213   -1.2604    0.1849 N   0  0  0  1  0  0  0  0  0  0  0  0
    3.3103   -2.7041    0.3517 C   0  0  0  1  0  0  0  0  0  0  0  0
    3.3495   -3.0892    1.8243 C   0  0  0  1  0  0  0  0  0  0  0  0
    4.1130   -4.4040    1.9069 C   0  0  0  1  0  0  0  0  0  0  0  0
    4.9022   -4.5162    0.6009 C   0  0  0  1  0  0  0  0  0  0  0  0
    4.7341   -3.1548   -0.1472 C   0  0  0  1  0  0  0  0  0  0  0  0
    4.3550   -5.6423   -0.2412 N   0  0  0  1  0  0  0  0  0  0  0  0
    0.9178    2.4773    0.0988 H   0  0  0  1  0  0  0  0  0  0  0  0
   -2.1490    1.9441   -0.0608 H   0  0  0  1  0  0  0  0  0  0  0  0
   -1.4051   -2.5546   -2.1599 H   0  0  0  1  0  0  0  0  0  0  0  0
   -1.9112   -4.9148   -2.4032 H   0  0  0  1  0  0  0  0  0  0  0  0
   -2.8562   -5.1313    1.6820 H   0  0  0  1  0  0  0  0  0  0  0  0
   -2.3509   -2.7749    1.9250 H   0  0  0  1  0  0  0  0  0  0  0  0
   -1.6287   -7.1159   -2.0260 H   0  0  0  1  0  0  0  0  0  0  0  0
   -3.2617   -6.6133   -2.3913 H   0  0  0  1  0  0  0  0  0  0  0  0
   -2.9740   -8.1515   -1.6135 H   0  0  0  1  0  0  0  0  0  0  0  0
    3.9318   -0.7147    0.1091 H   0  0  0  1  0  0  0  0  0  0  0  0
    2.5341   -3.2281   -0.1658 H   0  0  0  1  0  0  0  0  0  0  0  0
    2.3556   -3.2147    2.2001 H   0  0  0  1  0  0  0  0  0  0  0  0
    3.8528   -2.3334    2.3906 H   0  0  0  1  0  0  0  0  0  0  0  0
    4.7792   -4.3949    2.7441 H   0  0  0  1  0  0  0  0  0  0  0  0
    3.4318   -5.2238    2.0013 H   0  0  0  1  0  0  0  0  0  0  0  0
    5.9360   -4.6963    0.8097 H   0  0  0  1  0  0  0  0  0  0  0  0
    5.4899   -2.4540    0.1401 H   0  0  0  1  0  0  0  0  0  0  0  0
    4.7537   -3.2860   -1.2090 H   0  0  0  1  0  0  0  0  0  0  0  0
    3.4009   -5.4924   -0.4078 H   0  0  0  1  0  0  0  0  0  0  0  0
    4.4741   -6.4918    0.2326 H   0  0  0  1  0  0  0  0  0  0  0  0
  1  2  4  0  0  0  0
  1  6  4  0  0  0  0
  1 18  1  0  0  0  0
  2  3  4  0  0  0  0
  3  4  4  0  0  0  0
  3 25  1  0  0  0  0
  4  5  4  0  0  0  0
  4  7  4  0  0  0  0
  5  6  4  0  0  0  0
  5  9  4  0  0  0  0
  7  8  4  0  0  0  0
  7 26  1  0  0  0  0
  8  9  4  0  0  0  0
  9 10  1  0  0  0  0
 10 11  4  0  0  0  0
 10 15  4  0  0  0  0
 11 12  4  0  0  0  0
 11 27  1  0  0  0  0
 12 13  4  0  0  0  0
 12 28  1  0  0  0  0
 13 14  4  0  0  0  0
 13 16  1  0  0  0  0
 14 15  4  0  0  0  0
 14 29  1  0  0  0  0
 15 30  1  0  0  0  0
 16 17  1  0  0  0  0
 17 31  1  0  0  0  0
 17 32  1  0  0  0  0
 17 33  1  0  0  0  0
 18 19  1  0  0  0  0
 18 34  1  0  0  0  0
 19 20  1  0  0  0  0
 19 23  1  0  0  0  0
 19 35  1  0  0  0  0
 20 21  1  0  0  0  0
 20 36  1  0  0  0  0
 20 37  1  0  0  0  0
 21 22  1  0  0  0  0
 21 38  1  0  0  0  0
 21 39  1  0  0  0  0
 22 23  1  0  0  0  0
 22 24  1  0  0  0  0
 22 40  1  0  0  0  0
 23 41  1  0  0  0  0
 23 42  1  0  0  0  0
 24 43  1  0  0  0  0
 24 44  1  0  0  0  0
M  END
> <ConfClashScore>
0 

> <ConfOneFourInteractionScore>
-0.984337 

> <ConfScore>
-0.0750696 

> <ConfScorePBest>
0.00439292 

> <ConfTolerance>
0.332701 

$$$$
c22.sdf
 OpenBabel04162418103D

 44 47  0  0  0  0  0  0  0  0999 V2000
    1.9452   -0.6102    0.1255 C   0  0  0  1  0  0  0  0  0  0  0  0
    2.0362    0.7234    0.1482 N   0  0  0  1  0  0  0  0  0  0  0  0
    0.8946    1.4376    0.0881 C   0  0  0  1  0  0  0  0  0  0  0  0
   -0.3453    0.7386    0.0096 C   0  0  0  1  0  0  0  0  0  0  0  0
   -0.2529   -0.6477    0.0020 C   0  0  0  1  0  0  0  0  0  0  0  0
    0.8779   -1.3912    0.0539 N   0  0  0  1  0  0  0  0  0  0  0  0
   -1.7303    0.9921   -0.0538 C   0  0  0  1  0  0  0  0  0  0  0  0
   -2.4282   -0.1191   -0.1028 N   0  0  0  1  0  0  0  0  0  0  0  0
   -1.5125   -1.1342   -0.0681 N   0  0  0  1  0  0  0  0  0  0  0  0
   -1.8419   -2.5192   -0.1013 C   0  0  0  1  0  0  0  0  0  0  0  0
   -1.3799   -3.3633    0.8908 C   0  0  0  1  0  0  0  0  0  0  0  0
   -1.7049   -4.7105    0.8613 C   0  0  0  1  0  0  0  0  0  0  0  0
   -2.4865   -5.2107   -0.1630 C   0  0  0  1  0  0  0  0  0  0  0  0
   -2.9498   -4.3640   -1.1579 C   0  0  0  1  0  0  0  0  0  0  0  0
   -2.6259   -3.0207   -1.1287 C   0  0  0  1  0  0  0  0  0  0  0  0
   -2.8632   -6.5042   -0.2996 O   0  0  0  1  0  0  0  0  0  0  0  0
   -2.4954   -7.4095    0.7528 C   0  0  0  1  0  0  0  0  0  0  0  0
    3.1645   -1.2843    0.1872 N   0  0  0  1  0  0  0  0  0  0  0  0
    4.3365   -0.4215    0.3441 C   0  0  0  1  0  0  0  0  0  0  0  0
    4.7346    0.2317   -0.9858 C   0  0  0  1  0  0  0  0  0  0  0  0
    5.4545   -0.8681   -1.7563 C   0  0  0  1  0  0  0  0  0  0  0  0
    6.0899   -1.7646   -0.6872 C   0  0  0  1  0  0  0  0  0  0  0  0
    5.5921   -1.2359    0.6673 C   0  0  0  1  0  0  0  0  0  0  0  0
    7.5793   -1.6804   -0.7598 N   0  0  0  1  0  0  0  0  0  0  0  0
    0.9179    2.4773    0.0987 H   0  0  0  1  0  0  0  0  0  0  0  0
   -2.1491    1.9441   -0.0608 H   0  0  0  1  0  0  0  0  0  0  0  0
   -0.7884   -2.9877    1.6593 H   0  0  0  1  0  0  0  0  0  0  0  0
   -1.3605   -5.3449    1.6100 H   0  0  0  1  0  0  0  0  0  0  0  0
   -3.5413   -4.7396   -1.9264 H   0  0  0  1  0  0  0  0  0  0  0  0
   -2.9701   -2.3862   -1.8773 H   0  0  0  1  0  0  0  0  0  0  0  0
   -2.7985   -7.0038    1.6953 H   0  0  0  1  0  0  0  0  0  0  0  0
   -1.4344   -7.5481    0.7492 H   0  0  0  1  0  0  0  0  0  0  0  0
   -2.9791   -8.3514    0.5981 H   0  0  0  1  0  0  0  0  0  0  0  0
    3.2315   -2.2603    0.1297 H   0  0  0  1  0  0  0  0  0  0  0  0
    4.1413    0.3125    1.0978 H   0  0  0  1  0  0  0  0  0  0  0  0
    3.8671    0.5602   -1.5192 H   0  0  0  1  0  0  0  0  0  0  0  0
    5.3866    1.0632   -0.8174 H   0  0  0  1  0  0  0  0  0  0  0  0
    6.2083   -0.4493   -2.3899 H   0  0  0  1  0  0  0  0  0  0  0  0
    4.7599   -1.4264   -2.3485 H   0  0  0  1  0  0  0  0  0  0  0  0
    5.7824   -2.7802   -0.8245 H   0  0  0  1  0  0  0  0  0  0  0  0
    5.3541   -2.0479    1.3222 H   0  0  0  1  0  0  0  0  0  0  0  0
    6.3347   -0.6150    1.1234 H   0  0  0  1  0  0  0  0  0  0  0  0
    7.8514   -0.7409   -0.8200 H   0  0  0  1  0  0  0  0  0  0  0  0
    7.8952   -2.1632   -1.5519 H   0  0  0  1  0  0  0  0  0  0  0  0
  1  2  4  0  0  0  0
  1  6  4  0  0  0  0
  1 18  1  0  0  0  0
  2  3  4  0  0  0  0
  3  4  4  0  0  0  0
  3 25  1  0  0  0  0
  4  5  4  0  0  0  0
  4  7  4  0  0  0  0
  5  6  4  0  0  0  0
  5  9  4  0  0  0  0
  7  8  4  0  0  0  0
  7 26  1  0  0  0  0
  8  9  4  0  0  0  0
  9 10  1  0  0  0  0
 10 11  4  0  0  0  0
 10 15  4  0  0  0  0
 11 12  4  0  0  0  0
 11 27  1  0  0  0  0
 12 13  4  0  0  0  0
 12 28  1  0  0  0  0
 13 14  4  0  0  0  0
 13 16  1  0  0  0  0
 14 15  4  0  0  0  0
 14 29  1  0  0  0  0
 15 30  1  0  0  0  0
 16 17  1  0  0  0  0
 17 31  1  0  0  0  0
 17 32  1  0  0  0  0
 17 33  1  0  0  0  0
 18 19  1  0  0  0  0
 18 34  1  0  0  0  0
 19 20  1  0  0  0  0
 19 23  1  0  0  0  0
 19 35  1  0  0  0  0
 20 21  1  0  0  0  0
 20 36  1  0  0  0  0
 20 37  1  0  0  0  0
 21 22  1  0  0  0  0
 21 38  1  0  0  0  0
 21 39  1  0  0  0  0
 22 23  1  0  0  0  0
 22 24  1  0  0  0  0
 22 40  1  0  0  0  0
 23 41  1  0  0  0  0
 23 42  1  0  0  0  0
 24 43  1  0  0  0  0
 24 44  1  0  0  0  0
M  END
> <ConfClashScore>
0 

> <ConfOneFourInteractionScore>
-0.984337 

> <ConfScore>
-0.0737546 

> <ConfScorePBest>
0.0043796 

> <ConfTolerance>
0.263119 

$$$$
c22.sdf
 OpenBabel04162418103D

 44 47  0  0  0  0  0  0  0  0999 V2000
    1.9452   -0.6102    0.1256 C   0  0  0  1  0  0  0  0  0  0  0  0
    2.0362    0.7234    0.1482 N   0  0  0  1  0  0  0  0  0  0  0  0
    0.8946    1.4375    0.0881 C   0  0  0  1  0  0  0  0  0  0  0  0
   -0.3453    0.7386    0.0096 C   0  0  0  1  0  0  0  0  0  0  0  0
   -0.2529   -0.6477    0.0020 C   0  0  0  1  0  0  0  0  0  0  0  0
    0.8780   -1.3912    0.0540 N   0  0  0  1  0  0  0  0  0  0  0  0
   -1.7304    0.9921   -0.0538 C   0  0  0  1  0  0  0  0  0  0  0  0
   -2.4281   -0.1191   -0.1029 N   0  0  0  1  0  0  0  0  0  0  0  0
   -1.5125   -1.1341   -0.0681 N   0  0  0  1  0  0  0  0  0  0  0  0
   -1.8397   -2.5098   -0.1010 C   0  0  0  1  0  0  0  0  0  0  0  0
   -2.9590   -2.9701    0.5664 C   0  0  0  1  0  0  0  0  0  0  0  0
   -3.2825   -4.3175    0.5297 C   0  0  0  1  0  0  0  0  0  0  0  0
   -2.4829   -5.2015   -0.1699 C   0  0  0  1  0  0  0  0  0  0  0  0
   -1.3603   -4.7397   -0.8393 C   0  0  0  1  0  0  0  0  0  0  0  0
   -1.0376   -3.3963   -0.8028 C   0  0  0  1  0  0  0  0  0  0  0  0
   -2.7715   -6.5223   -0.0900 O   0  0  0  1  0  0  0  0  0  0  0  0
   -2.0039   -7.4127   -0.9149 C   0  0  0  1  0  0  0  0  0  0  0  0
    3.1379   -1.2696    0.1859 N   0  0  0  1  0  0  0  0  0  0  0  0
    3.2059   -2.7143    0.3599 C   0  0  0  1  0  0  0  0  0  0  0  0
    2.3426   -3.1471    1.5507 C   0  0  0  1  0  0  0  0  0  0  0  0
    3.3235   -3.6750    2.5903 C   0  0  0  1  0  0  0  0  0  0  0  0
    4.5011   -4.2206    1.7723 C   0  0  0  1  0  0  0  0  0  0  0  0
    4.6434   -3.1435    0.6936 C   0  0  0  1  0  0  0  0  0  0  0  0
    4.1816   -5.5521    1.1760 N   0  0  0  1  0  0  0  0  0  0  0  0
    0.9178    2.4773    0.0987 H   0  0  0  1  0  0  0  0  0  0  0  0
   -2.1490    1.9441   -0.0609 H   0  0  0  1  0  0  0  0  0  0  0  0
   -3.5585   -2.3056    1.0961 H   0  0  0  1  0  0  0  0  0  0  0  0
   -4.1270   -4.6632    1.0285 H   0  0  0  1  0  0  0  0  0  0  0  0
   -0.7608   -5.4043   -1.3691 H   0  0  0  1  0  0  0  0  0  0  0  0
   -0.1931   -3.0505   -1.3016 H   0  0  0  1  0  0  0  0  0  0  0  0
   -0.9836   -7.4077   -0.5927 H   0  0  0  1  0  0  0  0  0  0  0  0
   -2.0577   -7.0900   -1.9336 H   0  0  0  1  0  0  0  0  0  0  0  0
   -2.3988   -8.4038   -0.8329 H   0  0  0  1  0  0  0  0  0  0  0  0
    3.9705   -0.7583    0.1101 H   0  0  0  1  0  0  0  0  0  0  0  0
    2.8728   -3.1980   -0.5344 H   0  0  0  1  0  0  0  0  0  0  0  0
    1.7971   -2.3131    1.9403 H   0  0  0  1  0  0  0  0  0  0  0  0
    1.6584   -3.9157    1.2574 H   0  0  0  1  0  0  0  0  0  0  0  0
    2.8748   -4.4534    3.1713 H   0  0  0  1  0  0  0  0  0  0  0  0
    3.6470   -2.8871    3.2380 H   0  0  0  1  0  0  0  0  0  0  0  0
    5.3875   -4.2988    2.3666 H   0  0  0  1  0  0  0  0  0  0  0  0
    5.1264   -3.5428   -0.1737 H   0  0  0  1  0  0  0  0  0  0  0  0
    5.2060   -2.3126    1.0652 H   0  0  0  1  0  0  0  0  0  0  0  0
    3.4107   -5.4658    0.5771 H   0  0  0  1  0  0  0  0  0  0  0  0
    3.9698   -6.1878    1.8912 H   0  0  0  1  0  0  0  0  0  0  0  0
  1  2  4  0  0  0  0
  1  6  4  0  0  0  0
  1 18  1  0  0  0  0
  2  3  4  0  0  0  0
  3  4  4  0  0  0  0
  3 25  1  0  0  0  0
  4  5  4  0  0  0  0
  4  7  4  0  0  0  0
  5  6  4  0  0  0  0
  5  9  4  0  0  0  0
  7  8  4  0  0  0  0
  7 26  1  0  0  0  0
  8  9  4  0  0  0  0
  9 10  1  0  0  0  0
 10 11  4  0  0  0  0
 10 15  4  0  0  0  0
 11 12  4  0  0  0  0
 11 27  1  0  0  0  0
 12 13  4  0  0  0  0
 12 28  1  0  0  0  0
 13 14  4  0  0  0  0
 13 16  1  0  0  0  0
 14 15  4  0  0  0  0
 14 29  1  0  0  0  0
 15 30  1  0  0  0  0
 16 17  1  0  0  0  0
 17 31  1  0  0  0  0
 17 32  1  0  0  0  0
 17 33  1  0  0  0  0
 18 19  1  0  0  0  0
 18 34  1  0  0  0  0
 19 20  1  0  0  0  0
 19 23  1  0  0  0  0
 19 35  1  0  0  0  0
 20 21  1  0  0  0  0
 20 36  1  0  0  0  0
 20 37  1  0  0  0  0
 21 22  1  0  0  0  0
 21 38  1  0  0  0  0
 21 39  1  0  0  0  0
 22 23  1  0  0  0  0
 22 24  1  0  0  0  0
 22 40  1  0  0  0  0
 23 41  1  0  0  0  0
 23 42  1  0  0  0  0
 24 43  1  0  0  0  0
 24 44  1  0  0  0  0
M  END
> <ConfClashScore>
0 

> <ConfOneFourInteractionScore>
-0.985399 

> <ConfScore>
-0.0725916 

> <ConfScorePBest>
0.00436627 

> <ConfTolerance>
0.348157 

$$$$
c22.sdf
 OpenBabel04162418103D

 44 47  0  0  0  0  0  0  0  0999 V2000
    1.9452   -0.6101    0.1257 C   0  0  0  1  0  0  0  0  0  0  0  0
    2.0364    0.7233    0.1482 N   0  0  0  1  0  0  0  0  0  0  0  0
    0.8946    1.4376    0.0881 C   0  0  0  1  0  0  0  0  0  0  0  0
   -0.3452    0.7386    0.0096 C   0  0  0  1  0  0  0  0  0  0  0  0
   -0.2527   -0.6477    0.0020 C   0  0  0  1  0  0  0  0  0  0  0  0
    0.8780   -1.3912    0.0540 N   0  0  0  1  0  0  0  0  0  0  0  0
   -1.7304    0.9921   -0.0538 C   0  0  0  1  0  0  0  0  0  0  0  0
   -2.4281   -0.1191   -0.1028 N   0  0  0  1  0  0  0  0  0  0  0  0
   -1.5125   -1.1341   -0.0681 N   0  0  0  1  0  0  0  0  0  0  0  0
   -1.8369   -2.4986   -0.1008 C   0  0  0  1  0  0  0  0  0  0  0  0
   -1.0556   -3.4767   -0.6864 C   0  0  0  1  0  0  0  0  0  0  0  0
   -1.4662   -4.8004   -0.6588 C   0  0  0  1  0  0  0  0  0  0  0  0
   -2.6594   -5.1414   -0.0504 C   0  0  0  1  0  0  0  0  0  0  0  0
   -3.4430   -4.1603    0.5370 C   0  0  0  1  0  0  0  0  0  0  0  0
   -3.0338   -2.8404    0.5094 C   0  0  0  1  0  0  0  0  0  0  0  0
   -3.1618   -6.3886    0.0338 O   0  0  0  1  0  0  0  0  0  0  0  0
   -2.3653   -7.4137   -0.6044 C   0  0  0  1  0  0  0  0  0  0  0  0
    3.1213   -1.2604    0.1850 N   0  0  0  1  0  0  0  0  0  0  0  0
    3.2589   -2.7133    0.0544 C   0  0  0  1  0  0  0  0  0  0  0  0
    2.3627   -3.4348    1.1001 C   0  0  0  1  0  0  0  0  0  0  0  0
    3.3130   -4.1347    2.0875 C   0  0  0  1  0  0  0  0  0  0  0  0
    4.6911   -3.4729    1.8941 C   0  0  0  1  0  0  0  0  0  0  0  0
    4.7314   -3.1481    0.3623 C   0  0  0  1  0  0  0  0  0  0  0  0
    5.7727   -4.3963    2.2630 N   0  0  0  1  0  0  0  0  0  0  0  0
    0.9179    2.4772    0.0988 H   0  0  0  1  0  0  0  0  0  0  0  0
   -2.1490    1.9441   -0.0609 H   0  0  0  1  0  0  0  0  0  0  0  0
   -0.1597   -3.2197   -1.1477 H   0  0  0  1  0  0  0  0  0  0  0  0
   -0.8763   -5.5369   -1.0959 H   0  0  0  1  0  0  0  0  0  0  0  0
   -4.3389   -4.4174    0.9982 H   0  0  0  1  0  0  0  0  0  0  0  0
   -3.6236   -2.1038    0.9465 H   0  0  0  1  0  0  0  0  0  0  0  0
   -2.3273   -7.2322   -1.6583 H   0  0  0  1  0  0  0  0  0  0  0  0
   -2.8061   -8.3718   -0.4235 H   0  0  0  1  0  0  0  0  0  0  0  0
   -1.3733   -7.3956   -0.2037 H   0  0  0  1  0  0  0  0  0  0  0  0
    3.9343   -0.7310    0.3239 H   0  0  0  1  0  0  0  0  0  0  0  0
    2.9846   -3.0104   -0.9363 H   0  0  0  1  0  0  0  0  0  0  0  0
    1.7380   -4.1558    0.6156 H   0  0  0  1  0  0  0  0  0  0  0  0
    1.7527   -2.7233    1.6166 H   0  0  0  1  0  0  0  0  0  0  0  0
    3.3695   -5.1809    1.8705 H   0  0  0  1  0  0  0  0  0  0  0  0
    2.9723   -3.9963    3.0924 H   0  0  0  1  0  0  0  0  0  0  0  0
    4.7707   -2.5788    2.4764 H   0  0  0  1  0  0  0  0  0  0  0  0
    5.4178   -2.3536    0.1559 H   0  0  0  1  0  0  0  0  0  0  0  0
    5.0038   -4.0123   -0.2067 H   0  0  0  1  0  0  0  0  0  0  0  0
    5.7827   -5.1535    1.6410 H   0  0  0  1  0  0  0  0  0  0  0  0
    5.6251   -4.7244    3.1745 H   0  0  0  1  0  0  0  0  0  0  0  0
  1  2  4  0  0  0  0
  1  6  4  0  0  0  0
  1 18  1  0  0  0  0
  2  3  4  0  0  0  0
  3  4  4  0  0  0  0
  3 25  1  0  0  0  0
  4  5  4  0  0  0  0
  4  7  4  0  0  0  0
  5  6  4  0  0  0  0
  5  9  4  0  0  0  0
  7  8  4  0  0  0  0
  7 26  1  0  0  0  0
  8  9  4  0  0  0  0
  9 10  1  0  0  0  0
 10 11  4  0  0  0  0
 10 15  4  0  0  0  0
 11 12  4  0  0  0  0
 11 27  1  0  0  0  0
 12 13  4  0  0  0  0
 12 28  1  0  0  0  0
 13 14  4  0  0  0  0
 13 16  1  0  0  0  0
 14 15  4  0  0  0  0
 14 29  1  0  0  0  0
 15 30  1  0  0  0  0
 16 17  1  0  0  0  0
 17 31  1  0  0  0  0
 17 32  1  0  0  0  0
 17 33  1  0  0  0  0
 18 19  1  0  0  0  0
 18 34  1  0  0  0  0
 19 20  1  0  0  0  0
 19 23  1  0  0  0  0
 19 35  1  0  0  0  0
 20 21  1  0  0  0  0
 20 36  1  0  0  0  0
 20 37  1  0  0  0  0
 21 22  1  0  0  0  0
 21 38  1  0  0  0  0
 21 39  1  0  0  0  0
 22 23  1  0  0  0  0
 22 24  1  0  0  0  0
 22 40  1  0  0  0  0
 23 41  1  0  0  0  0
 23 42  1  0  0  0  0
 24 43  1  0  0  0  0
 24 44  1  0  0  0  0
M  END
> <ConfClashScore>
0 

> <ConfOneFourInteractionScore>
-0.985399 

> <ConfScore>
-0.0725916 

> <ConfScorePBest>
0.00435294 

> <ConfTolerance>
0.305413 

$$$$
c22.sdf
 OpenBabel04162418103D

 44 47  0  0  0  0  0  0  0  0999 V2000
    1.9452   -0.6102    0.1256 C   0  0  0  1  0  0  0  0  0  0  0  0
    2.0363    0.7233    0.1481 N   0  0  0  1  0  0  0  0  0  0  0  0
    0.8946    1.4376    0.0881 C   0  0  0  1  0  0  0  0  0  0  0  0
   -0.3452    0.7386    0.0096 C   0  0  0  1  0  0  0  0  0  0  0  0
   -0.2528   -0.6478    0.0020 C   0  0  0  1  0  0  0  0  0  0  0  0
    0.8779   -1.3913    0.0539 N   0  0  0  1  0  0  0  0  0  0  0  0
   -1.7304    0.9920   -0.0538 C   0  0  0  1  0  0  0  0  0  0  0  0
   -2.4281   -0.1191   -0.1028 N   0  0  0  1  0  0  0  0  0  0  0  0
   -1.5125   -1.1341   -0.0681 N   0  0  0  1  0  0  0  0  0  0  0  0
   -1.8386   -2.5051   -0.1009 C   0  0  0  1  0  0  0  0  0  0  0  0
   -1.0397   -3.4410   -0.7303 C   0  0  0  1  0  0  0  0  0  0  0  0
   -1.4053   -4.7781   -0.7277 C   0  0  0  1  0  0  0  0  0  0  0  0
   -2.5713   -5.1747   -0.1003 C   0  0  0  1  0  0  0  0  0  0  0  0
   -3.3723   -4.2358    0.5310 C   0  0  0  1  0  0  0  0  0  0  0  0
   -3.0079   -2.9026    0.5284 C   0  0  0  1  0  0  0  0  0  0  0  0
   -3.0322   -6.4464   -0.0366 O   0  0  0  1  0  0  0  0  0  0  0  0
   -2.2463   -7.4621   -0.6797 C   0  0  0  1  0  0  0  0  0  0  0  0
    3.1323   -1.2665    0.1854 N   0  0  0  1  0  0  0  0  0  0  0  0
    4.4339   -0.6169    0.0145 C   0  0  0  1  0  0  0  0  0  0  0  0
    5.2777   -1.3286   -1.0957 C   0  0  0  1  0  0  0  0  0  0  0  0
    5.8331   -2.5469   -0.3480 C   0  0  0  1  0  0  0  0  0  0  0  0
    6.1388   -2.1063    1.0800 C   0  0  0  1  0  0  0  0  0  0  0  0
    5.3089   -0.7891    1.2698 C   0  0  0  1  0  0  0  0  0  0  0  0
    7.5862   -1.8417    1.2476 N   0  0  0  1  0  0  0  0  0  0  0  0
    0.9180    2.4772    0.0987 H   0  0  0  1  0  0  0  0  0  0  0  0
   -2.1490    1.9441   -0.0609 H   0  0  0  1  0  0  0  0  0  0  0  0
   -0.1644   -3.1422   -1.2059 H   0  0  0  1  0  0  0  0  0  0  0  0
   -0.8022   -5.4829   -1.1978 H   0  0  0  1  0  0  0  0  0  0  0  0
   -4.2476   -4.5346    1.0066 H   0  0  0  1  0  0  0  0  0  0  0  0
   -3.6110   -2.1976    0.9986 H   0  0  0  1  0  0  0  0  0  0  0  0
   -2.1164   -7.2130   -1.7121 H   0  0  0  1  0  0  0  0  0  0  0  0
   -2.7476   -8.4040   -0.6006 H   0  0  0  1  0  0  0  0  0  0  0  0
   -1.2893   -7.5259   -0.2053 H   0  0  0  1  0  0  0  0  0  0  0  0
    3.1174   -2.2319    0.3530 H   0  0  0  1  0  0  0  0  0  0  0  0
    4.2891    0.4180   -0.2155 H   0  0  0  1  0  0  0  0  0  0  0  0
    4.6630   -1.6260   -1.9195 H   0  0  0  1  0  0  0  0  0  0  0  0
    6.0663   -0.6971   -1.4483 H   0  0  0  1  0  0  0  0  0  0  0  0
    6.7276   -2.8912   -0.8236 H   0  0  0  1  0  0  0  0  0  0  0  0
    5.1074   -3.3330   -0.3404 H   0  0  0  1  0  0  0  0  0  0  0  0
    5.8287   -2.8531    1.7808 H   0  0  0  1  0  0  0  0  0  0  0  0
    5.9679    0.0473    1.3747 H   0  0  0  1  0  0  0  0  0  0  0  0
    4.6904   -0.8678    2.1395 H   0  0  0  1  0  0  0  0  0  0  0  0
    7.7430   -1.4194    2.1179 H   0  0  0  1  0  0  0  0  0  0  0  0
    7.8934   -1.2438    0.5345 H   0  0  0  1  0  0  0  0  0  0  0  0
  1  2  4  0  0  0  0
  1  6  4  0  0  0  0
  1 18  1  0  0  0  0
  2  3  4  0  0  0  0
  3  4  4  0  0  0  0
  3 25  1  0  0  0  0
  4  5  4  0  0  0  0
  4  7  4  0  0  0  0
  5  6  4  0  0  0  0
  5  9  4  0  0  0  0
  7  8  4  0  0  0  0
  7 26  1  0  0  0  0
  8  9  4  0  0  0  0
  9 10  1  0  0  0  0
 10 11  4  0  0  0  0
 10 15  4  0  0  0  0
 11 12  4  0  0  0  0
 11 27  1  0  0  0  0
 12 13  4  0  0  0  0
 12 28  1  0  0  0  0
 13 14  4  0  0  0  0
 13 16  1  0  0  0  0
 14 15  4  0  0  0  0
 14 29  1  0  0  0  0
 15 30  1  0  0  0  0
 16 17  1  0  0  0  0
 17 31  1  0  0  0  0
 17 32  1  0  0  0  0
 17 33  1  0  0  0  0
 18 19  1  0  0  0  0
 18 34  1  0  0  0  0
 19 20  1  0  0  0  0
 19 23  1  0  0  0  0
 19 35  1  0  0  0  0
 20 21  1  0  0  0  0
 20 36  1  0  0  0  0
 20 37  1  0  0  0  0
 21 22  1  0  0  0  0
 21 38  1  0  0  0  0
 21 39  1  0  0  0  0
 22 23  1  0  0  0  0
 22 24  1  0  0  0  0
 22 40  1  0  0  0  0
 23 41  1  0  0  0  0
 23 42  1  0  0  0  0
 24 43  1  0  0  0  0
 24 44  1  0  0  0  0
M  END
> <ConfClashScore>
0 

> <ConfOneFourInteractionScore>
-0.984337 

> <ConfScore>
-0.0720383 

> <ConfScorePBest>
0.00433961 

> <ConfTolerance>
0.346645 

$$$$
c22.sdf
 OpenBabel04162418103D

 44 47  0  0  0  0  0  0  0  0999 V2000
    1.9452   -0.6102    0.1256 C   0  0  0  1  0  0  0  0  0  0  0  0
    2.0363    0.7233    0.1481 N   0  0  0  1  0  0  0  0  0  0  0  0
    0.8946    1.4376    0.0881 C   0  0  0  1  0  0  0  0  0  0  0  0
   -0.3452    0.7387    0.0095 C   0  0  0  1  0  0  0  0  0  0  0  0
   -0.2529   -0.6478    0.0020 C   0  0  0  1  0  0  0  0  0  0  0  0
    0.8779   -1.3913    0.0539 N   0  0  0  1  0  0  0  0  0  0  0  0
   -1.7304    0.9921   -0.0538 C   0  0  0  1  0  0  0  0  0  0  0  0
   -2.4281   -0.1191   -0.1028 N   0  0  0  1  0  0  0  0  0  0  0  0
   -1.5125   -1.1342   -0.0681 N   0  0  0  1  0  0  0  0  0  0  0  0
   -1.8426   -2.5219   -0.1014 C   0  0  0  1  0  0  0  0  0  0  0  0
   -3.0546   -2.9571    0.4003 C   0  0  0  1  0  0  0  0  0  0  0  0
   -3.3381   -4.3132    0.4477 C   0  0  0  1  0  0  0  0  0  0  0  0
   -2.4067   -5.2302   -0.0015 C   0  0  0  1  0  0  0  0  0  0  0  0
   -1.1910   -4.7936   -0.5046 C   0  0  0  1  0  0  0  0  0  0  0  0
   -0.9083   -3.4415   -0.5520 C   0  0  0  1  0  0  0  0  0  0  0  0
   -2.6839   -6.5543   -0.0644 O   0  0  0  1  0  0  0  0  0  0  0  0
   -1.7315   -7.3927   -0.7371 C   0  0  0  1  0  0  0  0  0  0  0  0
    3.1257   -1.2629    0.1852 N   0  0  0  1  0  0  0  0  0  0  0  0
    3.2501   -2.7073    0.3865 C   0  0  0  1  0  0  0  0  0  0  0  0
    3.8684   -3.0011    1.7584 C   0  0  0  1  0  0  0  0  0  0  0  0
    5.2256   -3.6278    1.4641 C   0  0  0  1  0  0  0  0  0  0  0  0
    5.0428   -4.3365    0.1157 C   0  0  0  1  0  0  0  0  0  0  0  0
    4.2079   -3.3094   -0.6537 C   0  0  0  1  0  0  0  0  0  0  0  0
    4.3095   -5.6301    0.2728 N   0  0  0  1  0  0  0  0  0  0  0  0
    0.9179    2.4772    0.0987 H   0  0  0  1  0  0  0  0  0  0  0  0
   -2.1489    1.9441   -0.0608 H   0  0  0  1  0  0  0  0  0  0  0  0
   -3.7539   -2.2674    0.7420 H   0  0  0  1  0  0  0  0  0  0  0  0
   -4.2518   -4.6405    0.8215 H   0  0  0  1  0  0  0  0  0  0  0  0
   -0.4918   -5.4833   -0.8463 H   0  0  0  1  0  0  0  0  0  0  0  0
    0.0053   -3.1140   -0.9256 H   0  0  0  1  0  0  0  0  0  0  0  0
   -2.0887   -8.4014   -0.7483 H   0  0  0  1  0  0  0  0  0  0  0  0
   -0.7945   -7.3523   -0.2220 H   0  0  0  1  0  0  0  0  0  0  0  0
   -1.6018   -7.0495   -1.7422 H   0  0  0  1  0  0  0  0  0  0  0  0
    3.9478   -0.7384    0.0878 H   0  0  0  1  0  0  0  0  0  0  0  0
    2.2852   -3.1632    0.3095 H   0  0  0  1  0  0  0  0  0  0  0  0
    3.2529   -3.6821    2.3082 H   0  0  0  1  0  0  0  0  0  0  0  0
    3.9872   -2.0962    2.3169 H   0  0  0  1  0  0  0  0  0  0  0  0
    5.4901   -4.3303    2.2266 H   0  0  0  1  0  0  0  0  0  0  0  0
    5.9821   -2.8743    1.3947 H   0  0  0  1  0  0  0  0  0  0  0  0
    5.9829   -4.5148   -0.3634 H   0  0  0  1  0  0  0  0  0  0  0  0
    3.6581   -3.7853   -1.4387 H   0  0  0  1  0  0  0  0  0  0  0  0
    4.8371   -2.5496   -1.0682 H   0  0  0  1  0  0  0  0  0  0  0  0
    4.1820   -6.0428   -0.6069 H   0  0  0  1  0  0  0  0  0  0  0  0
    3.4359   -5.4623    0.6842 H   0  0  0  1  0  0  0  0  0  0  0  0
  1  2  4  0  0  0  0
  1  6  4  0  0  0  0
  1 18  1  0  0  0  0
  2  3  4  0  0  0  0
  3  4  4  0  0  0  0
  3 25  1  0  0  0  0
  4  5  4  0  0  0  0
  4  7  4  0  0  0  0
  5  6  4  0  0  0  0
  5  9  4  0  0  0  0
  7  8  4  0  0  0  0
  7 26  1  0  0  0  0
  8  9  4  0  0  0  0
  9 10  1  0  0  0  0
 10 11  4  0  0  0  0
 10 15  4  0  0  0  0
 11 12  4  0  0  0  0
 11 27  1  0  0  0  0
 12 13  4  0  0  0  0
 12 28  1  0  0  0  0
 13 14  4  0  0  0  0
 13 16  1  0  0  0  0
 14 15  4  0  0  0  0
 14 29  1  0  0  0  0
 15 30  1  0  0  0  0
 16 17  1  0  0  0  0
 17 31  1  0  0  0  0
 17 32  1  0  0  0  0
 17 33  1  0  0  0  0
 18 19  1  0  0  0  0
 18 34  1  0  0  0  0
 19 20  1  0  0  0  0
 19 23  1  0  0  0  0
 19 35  1  0  0  0  0
 20 21  1  0  0  0  0
 20 36  1  0  0  0  0
 20 37  1  0  0  0  0
 21 22  1  0  0  0  0
 21 38  1  0  0  0  0
 21 39  1  0  0  0  0
 22 23  1  0  0  0  0
 22 24  1  0  0  0  0
 22 40  1  0  0  0  0
 23 41  1  0  0  0  0
 23 42  1  0  0  0  0
 24 43  1  0  0  0  0
 24 44  1  0  0  0  0
M  END
> <ConfClashScore>
0 

> <ConfOneFourInteractionScore>
-0.984337 

> <ConfScore>
-0.0720383 

> <ConfScorePBest>
0.00432628 

> <ConfTolerance>
0.309561 

$$$$
c22.sdf
 OpenBabel04162418103D

 44 47  0  0  0  0  0  0  0  0999 V2000
    1.9452   -0.6102    0.1256 C   0  0  0  1  0  0  0  0  0  0  0  0
    2.0362    0.7233    0.1482 N   0  0  0  1  0  0  0  0  0  0  0  0
    0.8946    1.4376    0.0881 C   0  0  0  1  0  0  0  0  0  0  0  0
   -0.3453    0.7386    0.0096 C   0  0  0  1  0  0  0  0  0  0  0  0
   -0.2529   -0.6478    0.0020 C   0  0  0  1  0  0  0  0  0  0  0  0
    0.8779   -1.3912    0.0539 N   0  0  0  1  0  0  0  0  0  0  0  0
   -1.7303    0.9921   -0.0538 C   0  0  0  1  0  0  0  0  0  0  0  0
   -2.4281   -0.1191   -0.1028 N   0  0  0  1  0  0  0  0  0  0  0  0
   -1.5125   -1.1341   -0.0681 N   0  0  0  1  0  0  0  0  0  0  0  0
   -1.8419   -2.5192   -0.1014 C   0  0  0  1  0  0  0  0  0  0  0  0
   -3.0785   -2.9463    0.3446 C   0  0  0  1  0  0  0  0  0  0  0  0
   -3.4009   -4.2939    0.3072 C   0  0  0  1  0  0  0  0  0  0  0  0
   -2.4841   -5.2111   -0.1710 C   0  0  0  1  0  0  0  0  0  0  0  0
   -1.2439   -4.7826   -0.6182 C   0  0  0  1  0  0  0  0  0  0  0  0
   -0.9223   -3.4388   -0.5809 C   0  0  0  1  0  0  0  0  0  0  0  0
   -2.9084   -6.4970   -0.1542 O   0  0  0  1  0  0  0  0  0  0  0  0
   -2.0646   -7.4746   -0.7824 C   0  0  0  1  0  0  0  0  0  0  0  0
    3.1213   -1.2604    0.1848 N   0  0  0  1  0  0  0  0  0  0  0  0
    3.3167   -2.7111    0.1351 C   0  0  0  1  0  0  0  0  0  0  0  0
    4.1339   -3.1842    1.3403 C   0  0  0  1  0  0  0  0  0  0  0  0
    4.7210   -4.4986    0.8097 C   0  0  0  1  0  0  0  0  0  0  0  0
    5.1220   -4.1904   -0.6275 C   0  0  0  1  0  0  0  0  0  0  0  0
    4.1509   -3.1003   -1.0957 C   0  0  0  1  0  0  0  0  0  0  0  0
    4.9890   -5.4096   -1.4799 N   0  0  0  1  0  0  0  0  0  0  0  0
    0.9178    2.4772    0.0988 H   0  0  0  1  0  0  0  0  0  0  0  0
   -2.1490    1.9441   -0.0608 H   0  0  0  1  0  0  0  0  0  0  0  0
   -3.7668   -2.2567    0.7081 H   0  0  0  1  0  0  0  0  0  0  0  0
   -4.3328   -4.6149    0.6390 H   0  0  0  1  0  0  0  0  0  0  0  0
   -0.5556   -5.4722   -0.9817 H   0  0  0  1  0  0  0  0  0  0  0  0
    0.0096   -3.1178   -0.9128 H   0  0  0  1  0  0  0  0  0  0  0  0
   -1.0693   -7.3862   -0.3998 H   0  0  0  1  0  0  0  0  0  0  0  0
   -2.0559   -7.3112   -1.8398 H   0  0  0  1  0  0  0  0  0  0  0  0
   -2.4401   -8.4550   -0.5757 H   0  0  0  1  0  0  0  0  0  0  0  0
    3.9269   -0.7089    0.2699 H   0  0  0  1  0  0  0  0  0  0  0  0
    2.3648   -3.1992    0.1125 H   0  0  0  1  0  0  0  0  0  0  0  0
    3.5113   -3.3503    2.1944 H   0  0  0  1  0  0  0  0  0  0  0  0
    4.9038   -2.4843    1.5901 H   0  0  0  1  0  0  0  0  0  0  0  0
    5.5747   -4.7899    1.3853 H   0  0  0  1  0  0  0  0  0  0  0  0
    3.9882   -5.2777    0.8382 H   0  0  0  1  0  0  0  0  0  0  0  0
    6.1306   -3.8353   -0.6669 H   0  0  0  1  0  0  0  0  0  0  0  0
    4.6928   -2.2524   -1.4595 H   0  0  0  1  0  0  0  0  0  0  0  0
    3.5158   -3.4772   -1.8699 H   0  0  0  1  0  0  0  0  0  0  0  0
    4.0611   -5.7244   -1.4581 H   0  0  0  1  0  0  0  0  0  0  0  0
    5.5803   -6.1127   -1.1385 H   0  0  0  1  0  0  0  0  0  0  0  0
  1  2  4  0  0  0  0
  1  6  4  0  0  0  0
  1 18  1  0  0  0  0
  2  3  4  0  0  0  0
  3  4  4  0  0  0  0
  3 25  1  0  0  0  0
  4  5  4  0  0  0  0
  4  7  4  0  0  0  0
  5  6  4  0  0  0  0
  5  9  4  0  0  0  0
  7  8  4  0  0  0  0
  7 26  1  0  0  0  0
  8  9  4  0  0  0  0
  9 10  1  0  0  0  0
 10 11  4  0  0  0  0
 10 15  4  0  0  0  0
 11 12  4  0  0  0  0
 11 27  1  0  0  0  0
 12 13  4  0  0  0  0
 12 28  1  0  0  0  0
 13 14  4  0  0  0  0
 13 16  1  0  0  0  0
 14 15  4  0  0  0  0
 14 29  1  0  0  0  0
 15 30  1  0  0  0  0
 16 17  1  0  0  0  0
 17 31  1  0  0  0  0
 17 32  1  0  0  0  0
 17 33  1  0  0  0  0
 18 19  1  0  0  0  0
 18 34  1  0  0  0  0
 19 20  1  0  0  0  0
 19 23  1  0  0  0  0
 19 35  1  0  0  0  0
 20 21  1  0  0  0  0
 20 36  1  0  0  0  0
 20 37  1  0  0  0  0
 21 22  1  0  0  0  0
 21 38  1  0  0  0  0
 21 39  1  0  0  0  0
 22 23  1  0  0  0  0
 22 24  1  0  0  0  0
 22 40  1  0  0  0  0
 23 41  1  0  0  0  0
 23 42  1  0  0  0  0
 24 43  1  0  0  0  0
 24 44  1  0  0  0  0
M  END
> <ConfClashScore>
0 

> <ConfOneFourInteractionScore>
-0.984337 

> <ConfScore>
-0.0690358 

> <ConfScorePBest>
0.00431295 

> <ConfTolerance>
0.352729 

$$$$
c22.sdf
 OpenBabel04162418103D

 44 47  0  0  0  0  0  0  0  0999 V2000
    1.9453   -0.6101    0.1256 C   0  0  0  1  0  0  0  0  0  0  0  0
    2.0363    0.7233    0.1482 N   0  0  0  1  0  0  0  0  0  0  0  0
    0.8946    1.4375    0.0881 C   0  0  0  1  0  0  0  0  0  0  0  0
   -0.3452    0.7386    0.0096 C   0  0  0  1  0  0  0  0  0  0  0  0
   -0.2529   -0.6478    0.0020 C   0  0  0  1  0  0  0  0  0  0  0  0
    0.8780   -1.3912    0.0539 N   0  0  0  1  0  0  0  0  0  0  0  0
   -1.7304    0.9921   -0.0538 C   0  0  0  1  0  0  0  0  0  0  0  0
   -2.4282   -0.1192   -0.1029 N   0  0  0  1  0  0  0  0  0  0  0  0
   -1.5125   -1.1341   -0.0681 N   0  0  0  1  0  0  0  0  0  0  0  0
   -1.8418   -2.5193   -0.1014 C   0  0  0  1  0  0  0  0  0  0  0  0
   -2.5791   -3.0291   -1.1534 C   0  0  0  1  0  0  0  0  0  0  0  0
   -2.8951   -4.3784   -1.1884 C   0  0  0  1  0  0  0  0  0  0  0  0
   -2.4775   -5.2127   -0.1687 C   0  0  0  1  0  0  0  0  0  0  0  0
   -1.7380   -4.7012    0.8862 C   0  0  0  1  0  0  0  0  0  0  0  0
   -1.4229   -3.3559    0.9213 C   0  0  0  1  0  0  0  0  0  0  0  0
   -2.7084   -6.5395   -0.3109 O   0  0  0  1  0  0  0  0  0  0  0  0
   -3.6039   -6.9412   -1.3593 C   0  0  0  1  0  0  0  0  0  0  0  0
    3.1213   -1.2604    0.1850 N   0  0  0  1  0  0  0  0  0  0  0  0
    4.4519   -0.6491    0.2372 C   0  0  0  1  0  0  0  0  0  0  0  0
    5.5181   -1.7261    0.4493 C   0  0  0  1  0  0  0  0  0  0  0  0
    6.0802   -1.4910    1.8447 C   0  0  0  1  0  0  0  0  0  0  0  0
    5.0566   -0.6414    2.5855 C   0  0  0  1  0  0  0  0  0  0  0  0
    4.5477    0.3272    1.4533 C   0  0  0  1  0  0  0  0  0  0  0  0
    5.6943    0.1223    3.7088 N   0  0  0  1  0  0  0  0  0  0  0  0
    0.9179    2.4772    0.0989 H   0  0  0  1  0  0  0  0  0  0  0  0
   -2.1491    1.9441   -0.0608 H   0  0  0  1  0  0  0  0  0  0  0  0
   -2.8969   -2.4006   -1.9186 H   0  0  0  1  0  0  0  0  0  0  0  0
   -3.4465   -4.7628   -1.9820 H   0  0  0  1  0  0  0  0  0  0  0  0
   -1.4203   -5.3298    1.6515 H   0  0  0  1  0  0  0  0  0  0  0  0
   -0.8715   -2.9715    1.7149 H   0  0  0  1  0  0  0  0  0  0  0  0
   -3.3400   -6.4389   -2.2665 H   0  0  0  1  0  0  0  0  0  0  0  0
   -4.6069   -6.6847   -1.0889 H   0  0  0  1  0  0  0  0  0  0  0  0
   -3.5322   -7.9989   -1.5036 H   0  0  0  1  0  0  0  0  0  0  0  0
    3.0846   -2.2397    0.1942 H   0  0  0  1  0  0  0  0  0  0  0  0
    4.6385   -0.1211   -0.6745 H   0  0  0  1  0  0  0  0  0  0  0  0
    5.0803   -2.7002    0.3842 H   0  0  0  1  0  0  0  0  0  0  0  0
    6.2919   -1.6325   -0.2837 H   0  0  0  1  0  0  0  0  0  0  0  0
    7.0152   -0.9742    1.7842 H   0  0  0  1  0  0  0  0  0  0  0  0
    6.2199   -2.4244    2.3489 H   0  0  0  1  0  0  0  0  0  0  0  0
    4.2588   -1.2421    2.9696 H   0  0  0  1  0  0  0  0  0  0  0  0
    5.2472    1.1157    1.2686 H   0  0  0  1  0  0  0  0  0  0  0  0
    3.5933    0.7459    1.6957 H   0  0  0  1  0  0  0  0  0  0  0  0
    5.0357    0.7287    4.1074 H   0  0  0  1  0  0  0  0  0  0  0  0
    6.4494    0.6424    3.3627 H   0  0  0  1  0  0  0  0  0  0  0  0
  1  2  4  0  0  0  0
  1  6  4  0  0  0  0
  1 18  1  0  0  0  0
  2  3  4  0  0  0  0
  3  4  4  0  0  0  0
  3 25  1  0  0  0  0
  4  5  4  0  0  0  0
  4  7  4  0  0  0  0
  5  6  4  0  0  0  0
  5  9  4  0  0  0  0
  7  8  4  0  0  0  0
  7 26  1  0  0  0  0
  8  9  4  0  0  0  0
  9 10  1  0  0  0  0
 10 11  4  0  0  0  0
 10 15  4  0  0  0  0
 11 12  4  0  0  0  0
 11 27  1  0  0  0  0
 12 13  4  0  0  0  0
 12 28  1  0  0  0  0
 13 14  4  0  0  0  0
 13 16  1  0  0  0  0
 14 15  4  0  0  0  0
 14 29  1  0  0  0  0
 15 30  1  0  0  0  0
 16 17  1  0  0  0  0
 17 31  1  0  0  0  0
 17 32  1  0  0  0  0
 17 33  1  0  0  0  0
 18 19  1  0  0  0  0
 18 34  1  0  0  0  0
 19 20  1  0  0  0  0
 19 23  1  0  0  0  0
 19 35  1  0  0  0  0
 20 21  1  0  0  0  0
 20 36  1  0  0  0  0
 20 37  1  0  0  0  0
 21 22  1  0  0  0  0
 21 38  1  0  0  0  0
 21 39  1  0  0  0  0
 22 23  1  0  0  0  0
 22 24  1  0  0  0  0
 22 40  1  0  0  0  0
 23 41  1  0  0  0  0
 23 42  1  0  0  0  0
 24 43  1  0  0  0  0
 24 44  1  0  0  0  0
M  END
> <ConfClashScore>
0 

> <ConfOneFourInteractionScore>
-0.985399 

> <ConfScore>
-0.068938 

> <ConfScorePBest>
0.00429963 

> <ConfTolerance>
0.229645 

$$$$
c22.sdf
 OpenBabel04162418103D

 44 47  0  0  0  0  0  0  0  0999 V2000
    1.9452   -0.6102    0.1256 C   0  0  0  1  0  0  0  0  0  0  0  0
    2.0362    0.7233    0.1482 N   0  0  0  1  0  0  0  0  0  0  0  0
    0.8946    1.4376    0.0881 C   0  0  0  1  0  0  0  0  0  0  0  0
   -0.3453    0.7386    0.0096 C   0  0  0  1  0  0  0  0  0  0  0  0
   -0.2528   -0.6478    0.0021 C   0  0  0  1  0  0  0  0  0  0  0  0
    0.8779   -1.3912    0.0539 N   0  0  0  1  0  0  0  0  0  0  0  0
   -1.7304    0.9921   -0.0538 C   0  0  0  1  0  0  0  0  0  0  0  0
   -2.4281   -0.1192   -0.1028 N   0  0  0  1  0  0  0  0  0  0  0  0
   -1.5125   -1.1341   -0.0681 N   0  0  0  1  0  0  0  0  0  0  0  0
   -1.8420   -2.5201   -0.1014 C   0  0  0  1  0  0  0  0  0  0  0  0
   -1.2932   -3.3843    0.8271 C   0  0  0  1  0  0  0  0  0  0  0  0
   -1.5446   -4.7448    0.7408 C   0  0  0  1  0  0  0  0  0  0  0  0
   -2.3399   -5.2376   -0.2764 C   0  0  0  1  0  0  0  0  0  0  0  0
   -2.8904   -4.3706   -1.2075 C   0  0  0  1  0  0  0  0  0  0  0  0
   -2.6396   -3.0141   -1.1217 C   0  0  0  1  0  0  0  0  0  0  0  0
   -2.5101   -6.5810   -0.2616 O   0  0  0  1  0  0  0  0  0  0  0  0
   -3.2404   -7.1643   -1.3584 C   0  0  0  1  0  0  0  0  0  0  0  0
    3.1213   -1.2604    0.1849 N   0  0  0  1  0  0  0  0  0  0  0  0
    3.2493   -2.7070    0.1536 C   0  0  0  1  0  0  0  0  0  0  0  0
    4.7232   -3.1125    0.2709 C   0  0  0  1  0  0  0  0  0  0  0  0
    5.0750   -3.7487   -1.0680 C   0  0  0  1  0  0  0  0  0  0  0  0
    3.7577   -4.3548   -1.5690 C   0  0  0  1  0  0  0  0  0  0  0  0
    2.7593   -3.2558   -1.1957 C   0  0  0  1  0  0  0  0  0  0  0  0
    3.4468   -5.6315   -0.8727 N   0  0  0  1  0  0  0  0  0  0  0  0
    0.9178    2.4773    0.0988 H   0  0  0  1  0  0  0  0  0  0  0  0
   -2.1491    1.9440   -0.0608 H   0  0  0  1  0  0  0  0  0  0  0  0
   -0.6914   -3.0139    1.5902 H   0  0  0  1  0  0  0  0  0  0  0  0
   -1.1349   -5.3947    1.4419 H   0  0  0  1  0  0  0  0  0  0  0  0
   -3.4921   -4.7409   -1.9707 H   0  0  0  1  0  0  0  0  0  0  0  0
   -3.0494   -2.3642   -1.8226 H   0  0  0  1  0  0  0  0  0  0  0  0
   -2.7587   -6.9151   -2.2809 H   0  0  0  1  0  0  0  0  0  0  0  0
   -4.2401   -6.7829   -1.3640 H   0  0  0  1  0  0  0  0  0  0  0  0
   -3.2644   -8.2280   -1.2450 H   0  0  0  1  0  0  0  0  0  0  0  0
    3.9403   -0.7266    0.2533 H   0  0  0  1  0  0  0  0  0  0  0  0
    2.6826   -3.1331    0.9549 H   0  0  0  1  0  0  0  0  0  0  0  0
    4.8556   -3.8162    1.0660 H   0  0  0  1  0  0  0  0  0  0  0  0
    5.3348   -2.2528    0.4492 H   0  0  0  1  0  0  0  0  0  0  0  0
    5.4353   -3.0103   -1.7535 H   0  0  0  1  0  0  0  0  0  0  0  0
    5.8162   -4.5098   -0.9409 H   0  0  0  1  0  0  0  0  0  0  0  0
    3.7801   -4.5207   -2.6259 H   0  0  0  1  0  0  0  0  0  0  0  0
    1.7737   -3.6612   -1.1000 H   0  0  0  1  0  0  0  0  0  0  0  0
    2.7574   -2.4834   -1.9363 H   0  0  0  1  0  0  0  0  0  0  0  0
    2.5652   -5.9524   -1.1559 H   0  0  0  1  0  0  0  0  0  0  0  0
    3.4444   -5.4829    0.0959 H   0  0  0  1  0  0  0  0  0  0  0  0
  1  2  4  0  0  0  0
  1  6  4  0  0  0  0
  1 18  1  0  0  0  0
  2  3  4  0  0  0  0
  3  4  4  0  0  0  0
  3 25  1  0  0  0  0
  4  5  4  0  0  0  0
  4  7  4  0  0  0  0
  5  6  4  0  0  0  0
  5  9  4  0  0  0  0
  7  8  4  0  0  0  0
  7 26  1  0  0  0  0
  8  9  4  0  0  0  0
  9 10  1  0  0  0  0
 10 11  4  0  0  0  0
 10 15  4  0  0  0  0
 11 12  4  0  0  0  0
 11 27  1  0  0  0  0
 12 13  4  0  0  0  0
 12 28  1  0  0  0  0
 13 14  4  0  0  0  0
 13 16  1  0  0  0  0
 14 15  4  0  0  0  0
 14 29  1  0  0  0  0
 15 30  1  0  0  0  0
 16 17  1  0  0  0  0
 17 31  1  0  0  0  0
 17 32  1  0  0  0  0
 17 33  1  0  0  0  0
 18 19  1  0  0  0  0
 18 34  1  0  0  0  0
 19 20  1  0  0  0  0
 19 23  1  0  0  0  0
 19 35  1  0  0  0  0
 20 21  1  0  0  0  0
 20 36  1  0  0  0  0
 20 37  1  0  0  0  0
 21 22  1  0  0  0  0
 21 38  1  0  0  0  0
 21 39  1  0  0  0  0
 22 23  1  0  0  0  0
 22 24  1  0  0  0  0
 22 40  1  0  0  0  0
 23 41  1  0  0  0  0
 23 42  1  0  0  0  0
 24 43  1  0  0  0  0
 24 44  1  0  0  0  0
M  END
> <ConfClashScore>
0 

> <ConfOneFourInteractionScore>
-0.981848 

> <ConfScore>
-0.068938 

> <ConfScorePBest>
0.0042863 

> <ConfTolerance>
0.209668 

$$$$
c22.sdf
 OpenBabel04162418103D

 44 47  0  0  0  0  0  0  0  0999 V2000
    1.9452   -0.6102    0.1256 C   0  0  0  1  0  0  0  0  0  0  0  0
    2.0363    0.7233    0.1481 N   0  0  0  1  0  0  0  0  0  0  0  0
    0.8946    1.4376    0.0881 C   0  0  0  1  0  0  0  0  0  0  0  0
   -0.3453    0.7386    0.0096 C   0  0  0  1  0  0  0  0  0  0  0  0
   -0.2529   -0.6478    0.0020 C   0  0  0  1  0  0  0  0  0  0  0  0
    0.8778   -1.3913    0.0539 N   0  0  0  1  0  0  0  0  0  0  0  0
   -1.7304    0.9921   -0.0538 C   0  0  0  1  0  0  0  0  0  0  0  0
   -2.4282   -0.1191   -0.1029 N   0  0  0  1  0  0  0  0  0  0  0  0
   -1.5125   -1.1342   -0.0681 N   0  0  0  1  0  0  0  0  0  0  0  0
   -1.8398   -2.5098   -0.1011 C   0  0  0  1  0  0  0  0  0  0  0  0
   -1.4759   -3.3323   -1.1506 C   0  0  0  1  0  0  0  0  0  0  0  0
   -1.8181   -4.6754   -1.1293 C   0  0  0  1  0  0  0  0  0  0  0  0
   -2.5276   -5.1910   -0.0612 C   0  0  0  1  0  0  0  0  0  0  0  0
   -2.8924   -4.3660    0.9914 C   0  0  0  1  0  0  0  0  0  0  0  0
   -2.5513   -3.0268    0.9703 C   0  0  0  1  0  0  0  0  0  0  0  0
   -2.9210   -6.4804    0.0676 O   0  0  0  1  0  0  0  0  0  0  0  0
   -2.8668   -7.3035   -1.1079 C   0  0  0  1  0  0  0  0  0  0  0  0
    3.1213   -1.2605    0.1849 N   0  0  0  1  0  0  0  0  0  0  0  0
    3.2482   -2.7215    0.1930 C   0  0  0  1  0  0  0  0  0  0  0  0
    4.4052   -3.1546    1.0974 C   0  0  0  1  0  0  0  0  0  0  0  0
    4.7456   -4.5319    0.5133 C   0  0  0  1  0  0  0  0  0  0  0  0
    4.6553   -4.3446   -0.9961 C   0  0  0  1  0  0  0  0  0  0  0  0
    3.6152   -3.2382   -1.2070 C   0  0  0  1  0  0  0  0  0  0  0  0
    4.2130   -5.6094   -1.6537 N   0  0  0  1  0  0  0  0  0  0  0  0
    0.9179    2.4772    0.0988 H   0  0  0  1  0  0  0  0  0  0  0  0
   -2.1490    1.9441   -0.0609 H   0  0  0  1  0  0  0  0  0  0  0  0
   -0.9455   -2.9435   -1.9562 H   0  0  0  1  0  0  0  0  0  0  0  0
   -1.5409   -5.2951   -1.9170 H   0  0  0  1  0  0  0  0  0  0  0  0
   -3.4229   -4.7548    1.7971 H   0  0  0  1  0  0  0  0  0  0  0  0
   -2.8286   -2.4071    1.7581 H   0  0  0  1  0  0  0  0  0  0  0  0
   -3.6277   -6.9961   -1.7946 H   0  0  0  1  0  0  0  0  0  0  0  0
   -3.0252   -8.3260   -0.8349 H   0  0  0  1  0  0  0  0  0  0  0  0
   -1.9072   -7.2019   -1.5703 H   0  0  0  1  0  0  0  0  0  0  0  0
    3.9419   -0.7263    0.2251 H   0  0  0  1  0  0  0  0  0  0  0  0
    2.3292   -3.1580    0.5248 H   0  0  0  1  0  0  0  0  0  0  0  0
    5.2339   -2.4819    1.0220 H   0  0  0  1  0  0  0  0  0  0  0  0
    4.0968   -3.2283    2.1192 H   0  0  0  1  0  0  0  0  0  0  0  0
    4.0419   -5.2666    0.8449 H   0  0  0  1  0  0  0  0  0  0  0  0
    5.7332   -4.8289    0.7982 H   0  0  0  1  0  0  0  0  0  0  0  0
    5.6034   -4.0478   -1.3938 H   0  0  0  1  0  0  0  0  0  0  0  0
    4.0295   -2.4475   -1.7970 H   0  0  0  1  0  0  0  0  0  0  0  0
    2.7487   -3.6322   -1.6957 H   0  0  0  1  0  0  0  0  0  0  0  0
    4.7622   -6.3547   -1.3323 H   0  0  0  1  0  0  0  0  0  0  0  0
    4.3135   -5.5249   -2.6248 H   0  0  0  1  0  0  0  0  0  0  0  0
  1  2  4  0  0  0  0
  1  6  4  0  0  0  0
  1 18  1  0  0  0  0
  2  3  4  0  0  0  0
  3  4  4  0  0  0  0
  3 25  1  0  0  0  0
  4  5  4  0  0  0  0
  4  7  4  0  0  0  0
  5  6  4  0  0  0  0
  5  9  4  0  0  0  0
  7  8  4  0  0  0  0
  7 26  1  0  0  0  0
  8  9  4  0  0  0  0
  9 10  1  0  0  0  0
 10 11  4  0  0  0  0
 10 15  4  0  0  0  0
 11 12  4  0  0  0  0
 11 27  1  0  0  0  0
 12 13  4  0  0  0  0
 12 28  1  0  0  0  0
 13 14  4  0  0  0  0
 13 16  1  0  0  0  0
 14 15  4  0  0  0  0
 14 29  1  0  0  0  0
 15 30  1  0  0  0  0
 16 17  1  0  0  0  0
 17 31  1  0  0  0  0
 17 32  1  0  0  0  0
 17 33  1  0  0  0  0
 18 19  1  0  0  0  0
 18 34  1  0  0  0  0
 19 20  1  0  0  0  0
 19 23  1  0  0  0  0
 19 35  1  0  0  0  0
 20 21  1  0  0  0  0
 20 36  1  0  0  0  0
 20 37  1  0  0  0  0
 21 22  1  0  0  0  0
 21 38  1  0  0  0  0
 21 39  1  0  0  0  0
 22 23  1  0  0  0  0
 22 24  1  0  0  0  0
 22 40  1  0  0  0  0
 23 41  1  0  0  0  0
 23 42  1  0  0  0  0
 24 43  1  0  0  0  0
 24 44  1  0  0  0  0
M  END
> <ConfClashScore>
0 

> <ConfOneFourInteractionScore>
-0.984337 

> <ConfScore>
-0.0676652 

> <ConfScorePBest>
0.00427297 

> <ConfTolerance>
0.281914 

$$$$
c22.sdf
 OpenBabel04162418103D

 44 47  0  0  0  0  0  0  0  0999 V2000
    1.9453   -0.6102    0.1256 C   0  0  0  1  0  0  0  0  0  0  0  0
    2.0364    0.7233    0.1482 N   0  0  0  1  0  0  0  0  0  0  0  0
    0.8946    1.4376    0.0881 C   0  0  0  1  0  0  0  0  0  0  0  0
   -0.3452    0.7386    0.0095 C   0  0  0  1  0  0  0  0  0  0  0  0
   -0.2527   -0.6478    0.0020 C   0  0  0  1  0  0  0  0  0  0  0  0
    0.8780   -1.3912    0.0538 N   0  0  0  1  0  0  0  0  0  0  0  0
   -1.7303    0.9921   -0.0538 C   0  0  0  1  0  0  0  0  0  0  0  0
   -2.4281   -0.1191   -0.1029 N   0  0  0  1  0  0  0  0  0  0  0  0
   -1.5126   -1.1341   -0.0681 N   0  0  0  1  0  0  0  0  0  0  0  0
   -1.8419   -2.5192   -0.1013 C   0  0  0  1  0  0  0  0  0  0  0  0
   -1.4944   -3.3376    0.9568 C   0  0  0  1  0  0  0  0  0  0  0  0
   -1.8198   -4.6847    0.9268 C   0  0  0  1  0  0  0  0  0  0  0  0
   -2.4868   -5.2106   -0.1635 C   0  0  0  1  0  0  0  0  0  0  0  0
   -2.8353   -4.3896   -1.2247 C   0  0  0  1  0  0  0  0  0  0  0  0
   -2.5109   -3.0464   -1.1949 C   0  0  0  1  0  0  0  0  0  0  0  0
   -2.7451   -6.5341   -0.0829 O   0  0  0  1  0  0  0  0  0  0  0  0
   -3.6004   -7.1485   -1.0595 C   0  0  0  1  0  0  0  0  0  0  0  0
    3.1380   -1.2696    0.1858 N   0  0  0  1  0  0  0  0  0  0  0  0
    3.2143   -2.7177    0.1051 C   0  0  0  1  0  0  0  0  0  0  0  0
    4.6197   -3.2145    0.4150 C   0  0  0  1  0  0  0  0  0  0  0  0
    4.7525   -4.5777   -0.2502 C   0  0  0  1  0  0  0  0  0  0  0  0
    3.6476   -4.6410   -1.3067 C   0  0  0  1  0  0  0  0  0  0  0  0
    3.0034   -3.2190   -1.3725 C   0  0  0  1  0  0  0  0  0  0  0  0
    2.6195   -5.6540   -0.9159 N   0  0  0  1  0  0  0  0  0  0  0  0
    0.9179    2.4772    0.0987 H   0  0  0  1  0  0  0  0  0  0  0  0
   -2.1489    1.9441   -0.0608 H   0  0  0  1  0  0  0  0  0  0  0  0
   -0.9889   -2.9428    1.7754 H   0  0  0  1  0  0  0  0  0  0  0  0
   -1.5618   -5.2998    1.7248 H   0  0  0  1  0  0  0  0  0  0  0  0
   -3.3408   -4.7844   -2.0434 H   0  0  0  1  0  0  0  0  0  0  0  0
   -2.7688   -2.4313   -1.9929 H   0  0  0  1  0  0  0  0  0  0  0  0
   -3.6959   -8.1923   -0.8445 H   0  0  0  1  0  0  0  0  0  0  0  0
   -3.1766   -7.0226   -2.0340 H   0  0  0  1  0  0  0  0  0  0  0  0
   -4.5658   -6.6881   -1.0277 H   0  0  0  1  0  0  0  0  0  0  0  0
    3.9646   -0.7529    0.2861 H   0  0  0  1  0  0  0  0  0  0  0  0
    2.4946   -3.1508    0.7681 H   0  0  0  1  0  0  0  0  0  0  0  0
    5.3470   -2.5373    0.0183 H   0  0  0  1  0  0  0  0  0  0  0  0
    4.7550   -3.3048    1.4726 H   0  0  0  1  0  0  0  0  0  0  0  0
    4.6224   -5.3574    0.4709 H   0  0  0  1  0  0  0  0  0  0  0  0
    5.7134   -4.6743   -0.7111 H   0  0  0  1  0  0  0  0  0  0  0  0
    4.0622   -4.9017   -2.2580 H   0  0  0  1  0  0  0  0  0  0  0  0
    1.9646   -3.2708   -1.6242 H   0  0  0  1  0  0  0  0  0  0  0  0
    3.5103   -2.5913   -2.0752 H   0  0  0  1  0  0  0  0  0  0  0  0
    3.0641   -6.4883   -0.6576 H   0  0  0  1  0  0  0  0  0  0  0  0
    2.0231   -5.8234   -1.6749 H   0  0  0  1  0  0  0  0  0  0  0  0
  1  2  4  0  0  0  0
  1  6  4  0  0  0  0
  1 18  1  0  0  0  0
  2  3  4  0  0  0  0
  3  4  4  0  0  0  0
  3 25  1  0  0  0  0
  4  5  4  0  0  0  0
  4  7  4  0  0  0  0
  5  6  4  0  0  0  0
  5  9  4  0  0  0  0
  7  8  4  0  0  0  0
  7 26  1  0  0  0  0
  8  9  4  0  0  0  0
  9 10  1  0  0  0  0
 10 11  4  0  0  0  0
 10 15  4  0  0  0  0
 11 12  4  0  0  0  0
 11 27  1  0  0  0  0
 12 13  4  0  0  0  0
 12 28  1  0  0  0  0
 13 14  4  0  0  0  0
 13 16  1  0  0  0  0
 14 15  4  0  0  0  0
 14 29  1  0  0  0  0
 15 30  1  0  0  0  0
 16 17  1  0  0  0  0
 17 31  1  0  0  0  0
 17 32  1  0  0  0  0
 17 33  1  0  0  0  0
 18 19  1  0  0  0  0
 18 34  1  0  0  0  0
 19 20  1  0  0  0  0
 19 23  1  0  0  0  0
 19 35  1  0  0  0  0
 20 21  1  0  0  0  0
 20 36  1  0  0  0  0
 20 37  1  0  0  0  0
 21 22  1  0  0  0  0
 21 38  1  0  0  0  0
 21 39  1  0  0  0  0
 22 23  1  0  0  0  0
 22 24  1  0  0  0  0
 22 40  1  0  0  0  0
 23 41  1  0  0  0  0
 23 42  1  0  0  0  0
 24 43  1  0  0  0  0
 24 44  1  0  0  0  0
M  END
> <ConfClashScore>
0 

> <ConfOneFourInteractionScore>
-0.984337 

> <ConfScore>
-0.0670759 

> <ConfScorePBest>
0.00425964 

> <ConfTolerance>
0.23611 

$$$$
c22.sdf
 OpenBabel04162418103D

 44 47  0  0  0  0  0  0  0  0999 V2000
    1.9452   -0.6103    0.1256 C   0  0  0  1  0  0  0  0  0  0  0  0
    2.0363    0.7233    0.1483 N   0  0  0  1  0  0  0  0  0  0  0  0
    0.8946    1.4376    0.0881 C   0  0  0  1  0  0  0  0  0  0  0  0
   -0.3452    0.7386    0.0096 C   0  0  0  1  0  0  0  0  0  0  0  0
   -0.2528   -0.6478    0.0020 C   0  0  0  1  0  0  0  0  0  0  0  0
    0.8779   -1.3913    0.0540 N   0  0  0  1  0  0  0  0  0  0  0  0
   -1.7303    0.9921   -0.0538 C   0  0  0  1  0  0  0  0  0  0  0  0
   -2.4281   -0.1191   -0.1028 N   0  0  0  1  0  0  0  0  0  0  0  0
   -1.5125   -1.1341   -0.0681 N   0  0  0  1  0  0  0  0  0  0  0  0
   -1.8416   -2.5180   -0.1013 C   0  0  0  1  0  0  0  0  0  0  0  0
   -1.5595   -3.3172    0.9904 C   0  0  0  1  0  0  0  0  0  0  0  0
   -1.9660   -4.6425    1.0023 C   0  0  0  1  0  0  0  0  0  0  0  0
   -2.6484   -5.1660   -0.0797 C   0  0  0  1  0  0  0  0  0  0  0  0
   -2.9311   -4.3641   -1.1745 C   0  0  0  1  0  0  0  0  0  0  0  0
   -2.5261   -3.0427   -1.1864 C   0  0  0  1  0  0  0  0  0  0  0  0
   -2.9923   -6.4847    0.0446 O   0  0  0  1  0  0  0  0  0  0  0  0
   -3.6976   -6.9870   -1.1011 C   0  0  0  1  0  0  0  0  0  0  0  0
    3.1544   -1.2787    0.1867 N   0  0  0  1  0  0  0  0  0  0  0  0
    4.3795   -0.4765    0.2148 C   0  0  0  1  0  0  0  0  0  0  0  0
    5.6088   -1.3876    0.2981 C   0  0  0  1  0  0  0  0  0  0  0  0
    6.5827   -0.6328    1.1879 C   0  0  0  1  0  0  0  0  0  0  0  0
    5.6500   -0.0442    2.2521 C   0  0  0  1  0  0  0  0  0  0  0  0
    4.4104    0.4025    1.4723 C   0  0  0  1  0  0  0  0  0  0  0  0
    6.2965    1.1252    2.9349 N   0  0  0  1  0  0  0  0  0  0  0  0
    0.9179    2.4772    0.0988 H   0  0  0  1  0  0  0  0  0  0  0  0
   -2.1490    1.9441   -0.0608 H   0  0  0  1  0  0  0  0  0  0  0  0
   -1.0426   -2.9245    1.8029 H   0  0  0  1  0  0  0  0  0  0  0  0
   -1.7572   -5.2429    1.8254 H   0  0  0  1  0  0  0  0  0  0  0  0
   -3.4481   -4.7568   -1.9869 H   0  0  0  1  0  0  0  0  0  0  0  0
   -2.7347   -2.4423   -2.0096 H   0  0  0  1  0  0  0  0  0  0  0  0
   -3.8990   -8.0293   -0.9678 H   0  0  0  1  0  0  0  0  0  0  0  0
   -3.0990   -6.8488   -1.9771 H   0  0  0  1  0  0  0  0  0  0  0  0
   -4.6206   -6.4570   -1.2119 H   0  0  0  1  0  0  0  0  0  0  0  0
    3.1904   -2.2578    0.2104 H   0  0  0  1  0  0  0  0  0  0  0  0
    4.4282    0.1320   -0.6639 H   0  0  0  1  0  0  0  0  0  0  0  0
    5.3517   -2.3305    0.7336 H   0  0  0  1  0  0  0  0  0  0  0  0
    6.0288   -1.5455   -0.6733 H   0  0  0  1  0  0  0  0  0  0  0  0
    7.0883    0.1380    0.6447 H   0  0  0  1  0  0  0  0  0  0  0  0
    7.3026   -1.2933    1.6243 H   0  0  0  1  0  0  0  0  0  0  0  0
    5.3922   -0.7849    2.9800 H   0  0  0  1  0  0  0  0  0  0  0  0
    3.5265    0.2512    2.0562 H   0  0  0  1  0  0  0  0  0  0  0  0
    4.4890    1.4355    1.2046 H   0  0  0  1  0  0  0  0  0  0  0  0
    6.5070    1.8157    2.2721 H   0  0  0  1  0  0  0  0  0  0  0  0
    7.1221    0.8315    3.3737 H   0  0  0  1  0  0  0  0  0  0  0  0
  1  2  4  0  0  0  0
  1  6  4  0  0  0  0
  1 18  1  0  0  0  0
  2  3  4  0  0  0  0
  3  4  4  0  0  0  0
  3 25  1  0  0  0  0
  4  5  4  0  0  0  0
  4  7  4  0  0  0  0
  5  6  4  0  0  0  0
  5  9  4  0  0  0  0
  7  8  4  0  0  0  0
  7 26  1  0  0  0  0
  8  9  4  0  0  0  0
  9 10  1  0  0  0  0
 10 11  4  0  0  0  0
 10 15  4  0  0  0  0
 11 12  4  0  0  0  0
 11 27  1  0  0  0  0
 12 13  4  0  0  0  0
 12 28  1  0  0  0  0
 13 14  4  0  0  0  0
 13 16  1  0  0  0  0
 14 15  4  0  0  0  0
 14 29  1  0  0  0  0
 15 30  1  0  0  0  0
 16 17  1  0  0  0  0
 17 31  1  0  0  0  0
 17 32  1  0  0  0  0
 17 33  1  0  0  0  0
 18 19  1  0  0  0  0
 18 34  1  0  0  0  0
 19 20  1  0  0  0  0
 19 23  1  0  0  0  0
 19 35  1  0  0  0  0
 20 21  1  0  0  0  0
 20 36  1  0  0  0  0
 20 37  1  0  0  0  0
 21 22  1  0  0  0  0
 21 38  1  0  0  0  0
 21 39  1  0  0  0  0
 22 23  1  0  0  0  0
 22 24  1  0  0  0  0
 22 40  1  0  0  0  0
 23 41  1  0  0  0  0
 23 42  1  0  0  0  0
 24 43  1  0  0  0  0
 24 44  1  0  0  0  0
M  END
> <ConfClashScore>
0 

> <ConfOneFourInteractionScore>
-0.981848 

> <ConfScore>
-0.0659356 

> <ConfScorePBest>
0.00424631 

> <ConfTolerance>
0.308606 

$$$$
c22.sdf
 OpenBabel04162418103D

 44 47  0  0  0  0  0  0  0  0999 V2000
    1.9452   -0.6102    0.1255 C   0  0  0  1  0  0  0  0  0  0  0  0
    2.0363    0.7233    0.1481 N   0  0  0  1  0  0  0  0  0  0  0  0
    0.8946    1.4375    0.0881 C   0  0  0  1  0  0  0  0  0  0  0  0
   -0.3452    0.7386    0.0095 C   0  0  0  1  0  0  0  0  0  0  0  0
   -0.2529   -0.6478    0.0020 C   0  0  0  1  0  0  0  0  0  0  0  0
    0.8779   -1.3912    0.0538 N   0  0  0  1  0  0  0  0  0  0  0  0
   -1.7304    0.9921   -0.0538 C   0  0  0  1  0  0  0  0  0  0  0  0
   -2.4282   -0.1191   -0.1029 N   0  0  0  1  0  0  0  0  0  0  0  0
   -1.5125   -1.1342   -0.0681 N   0  0  0  1  0  0  0  0  0  0  0  0
   -1.8419   -2.5192   -0.1014 C   0  0  0  1  0  0  0  0  0  0  0  0
   -2.7340   -2.9949   -1.0437 C   0  0  0  1  0  0  0  0  0  0  0  0
   -3.0505   -4.3440   -1.0795 C   0  0  0  1  0  0  0  0  0  0  0  0
   -2.4781   -5.2126   -0.1694 C   0  0  0  1  0  0  0  0  0  0  0  0
   -1.5833   -4.7354    0.7757 C   0  0  0  1  0  0  0  0  0  0  0  0
   -1.2677   -3.3901    0.8114 C   0  0  0  1  0  0  0  0  0  0  0  0
   -2.6845   -6.5472   -0.0689 O   0  0  0  1  0  0  0  0  0  0  0  0
   -3.5124   -7.1604   -1.0693 C   0  0  0  1  0  0  0  0  0  0  0  0
    3.1379   -1.2696    0.1857 N   0  0  0  1  0  0  0  0  0  0  0  0
    3.2060   -2.7278    0.3254 C   0  0  0  1  0  0  0  0  0  0  0  0
    4.6873   -3.2000    0.3240 C   0  0  0  1  0  0  0  0  0  0  0  0
    4.8899   -4.0133   -0.9665 C   0  0  0  1  0  0  0  0  0  0  0  0
    3.7140   -3.6444   -1.8915 C   0  0  0  1  0  0  0  0  0  0  0  0
    2.5218   -3.4222   -0.9001 C   0  0  0  1  0  0  0  0  0  0  0  0
    3.4158   -4.7551   -2.8429 N   0  0  0  1  0  0  0  0  0  0  0  0
    0.9179    2.4772    0.0988 H   0  0  0  1  0  0  0  0  0  0  0  0
   -2.1490    1.9441   -0.0607 H   0  0  0  1  0  0  0  0  0  0  0  0
   -3.1678   -2.3407   -1.7259 H   0  0  0  1  0  0  0  0  0  0  0  0
   -3.7187   -4.7026   -1.7911 H   0  0  0  1  0  0  0  0  0  0  0  0
   -1.1495   -5.3895    1.4580 H   0  0  0  1  0  0  0  0  0  0  0  0
   -0.5995   -3.0315    1.5231 H   0  0  0  1  0  0  0  0  0  0  0  0
   -2.9970   -7.1628   -2.0070 H   0  0  0  1  0  0  0  0  0  0  0  0
   -4.4239   -6.6082   -1.1651 H   0  0  0  1  0  0  0  0  0  0  0  0
   -3.7331   -8.1670   -0.7813 H   0  0  0  1  0  0  0  0  0  0  0  0
    3.9707   -0.7556    0.1342 H   0  0  0  1  0  0  0  0  0  0  0  0
    2.7243   -3.0224    1.2344 H   0  0  0  1  0  0  0  0  0  0  0  0
    5.3437   -2.3550    0.3343 H   0  0  0  1  0  0  0  0  0  0  0  0
    4.8800   -3.8124    1.1800 H   0  0  0  1  0  0  0  0  0  0  0  0
    4.8782   -5.0613   -0.7508 H   0  0  0  1  0  0  0  0  0  0  0  0
    5.8202   -3.7537   -1.4270 H   0  0  0  1  0  0  0  0  0  0  0  0
    3.9257   -2.7508   -2.4406 H   0  0  0  1  0  0  0  0  0  0  0  0
    1.7752   -2.7896   -1.3326 H   0  0  0  1  0  0  0  0  0  0  0  0
    2.0795   -4.3542   -0.6161 H   0  0  0  1  0  0  0  0  0  0  0  0
    3.3248   -5.5954   -2.3468 H   0  0  0  1  0  0  0  0  0  0  0  0
    4.1472   -4.8358   -3.4901 H   0  0  0  1  0  0  0  0  0  0  0  0
  1  2  4  0  0  0  0
  1  6  4  0  0  0  0
  1 18  1  0  0  0  0
  2  3  4  0  0  0  0
  3  4  4  0  0  0  0
  3 25  1  0  0  0  0
  4  5  4  0  0  0  0
  4  7  4  0  0  0  0
  5  6  4  0  0  0  0
  5  9  4  0  0  0  0
  7  8  4  0  0  0  0
  7 26  1  0  0  0  0
  8  9  4  0  0  0  0
  9 10  1  0  0  0  0
 10 11  4  0  0  0  0
 10 15  4  0  0  0  0
 11 12  4  0  0  0  0
 11 27  1  0  0  0  0
 12 13  4  0  0  0  0
 12 28  1  0  0  0  0
 13 14  4  0  0  0  0
 13 16  1  0  0  0  0
 14 15  4  0  0  0  0
 14 29  1  0  0  0  0
 15 30  1  0  0  0  0
 16 17  1  0  0  0  0
 17 31  1  0  0  0  0
 17 32  1  0  0  0  0
 17 33  1  0  0  0  0
 18 19  1  0  0  0  0
 18 34  1  0  0  0  0
 19 20  1  0  0  0  0
 19 23  1  0  0  0  0
 19 35  1  0  0  0  0
 20 21  1  0  0  0  0
 20 36  1  0  0  0  0
 20 37  1  0  0  0  0
 21 22  1  0  0  0  0
 21 38  1  0  0  0  0
 21 39  1  0  0  0  0
 22 23  1  0  0  0  0
 22 24  1  0  0  0  0
 22 40  1  0  0  0  0
 23 41  1  0  0  0  0
 23 42  1  0  0  0  0
 24 43  1  0  0  0  0
 24 44  1  0  0  0  0
M  END
> <ConfClashScore>
0 

> <ConfOneFourInteractionScore>
-0.981848 

> <ConfScore>
-0.0659356 

> <ConfScorePBest>
0.00423299 

> <ConfTolerance>
0.256408 

$$$$
c22.sdf
 OpenBabel04162418103D

 44 47  0  0  0  0  0  0  0  0999 V2000
    1.9452   -0.6102    0.1255 C   0  0  0  1  0  0  0  0  0  0  0  0
    2.0363    0.7233    0.1481 N   0  0  0  1  0  0  0  0  0  0  0  0
    0.8946    1.4376    0.0881 C   0  0  0  1  0  0  0  0  0  0  0  0
   -0.3452    0.7385    0.0096 C   0  0  0  1  0  0  0  0  0  0  0  0
   -0.2528   -0.6477    0.0019 C   0  0  0  1  0  0  0  0  0  0  0  0
    0.8779   -1.3913    0.0539 N   0  0  0  1  0  0  0  0  0  0  0  0
   -1.7304    0.9921   -0.0538 C   0  0  0  1  0  0  0  0  0  0  0  0
   -2.4282   -0.1191   -0.1028 N   0  0  0  1  0  0  0  0  0  0  0  0
   -1.5125   -1.1341   -0.0681 N   0  0  0  1  0  0  0  0  0  0  0  0
   -1.8419   -2.5192   -0.1013 C   0  0  0  1  0  0  0  0  0  0  0  0
   -3.0978   -2.9363    0.2974 C   0  0  0  1  0  0  0  0  0  0  0  0
   -3.4565   -4.2695    0.1746 C   0  0  0  1  0  0  0  0  0  0  0  0
   -2.5566   -5.1829   -0.3413 C   0  0  0  1  0  0  0  0  0  0  0  0
   -1.2969   -4.7645   -0.7410 C   0  0  0  1  0  0  0  0  0  0  0  0
   -0.9391   -3.4350   -0.6187 C   0  0  0  1  0  0  0  0  0  0  0  0
   -3.0152   -6.4518   -0.4078 O   0  0  0  1  0  0  0  0  0  0  0  0
   -2.1125   -7.5126   -0.7575 C   0  0  0  1  0  0  0  0  0  0  0  0
    3.1148   -1.2568    0.1844 N   0  0  0  1  0  0  0  0  0  0  0  0
    4.4464   -0.6519    0.1277 C   0  0  0  1  0  0  0  0  0  0  0  0
    5.5467   -1.6936    0.3681 C   0  0  0  1  0  0  0  0  0  0  0  0
    5.5434   -1.9186    1.8750 C   0  0  0  1  0  0  0  0  0  0  0  0
    5.0714   -0.5928    2.4831 C   0  0  0  1  0  0  0  0  0  0  0  0
    4.6769    0.3056    1.3001 C   0  0  0  1  0  0  0  0  0  0  0  0
    6.1663    0.0341    3.2613 N   0  0  0  1  0  0  0  0  0  0  0  0
    0.9178    2.4772    0.0988 H   0  0  0  1  0  0  0  0  0  0  0  0
   -2.1490    1.9441   -0.0607 H   0  0  0  1  0  0  0  0  0  0  0  0
   -3.7737   -2.2498    0.6893 H   0  0  0  1  0  0  0  0  0  0  0  0
   -4.4031   -4.5828    0.4709 H   0  0  0  1  0  0  0  0  0  0  0  0
   -0.6211   -5.4509   -1.1330 H   0  0  0  1  0  0  0  0  0  0  0  0
    0.0073   -3.1219   -0.9150 H   0  0  0  1  0  0  0  0  0  0  0  0
   -1.2080   -7.4120   -0.1947 H   0  0  0  1  0  0  0  0  0  0  0  0
   -1.8895   -7.4608   -1.8027 H   0  0  0  1  0  0  0  0  0  0  0  0
   -2.5673   -8.4554   -0.5356 H   0  0  0  1  0  0  0  0  0  0  0  0
    3.0762   -2.2319    0.2745 H   0  0  0  1  0  0  0  0  0  0  0  0
    4.5744   -0.1573   -0.8124 H   0  0  0  1  0  0  0  0  0  0  0  0
    6.4961   -1.3212    0.0444 H   0  0  0  1  0  0  0  0  0  0  0  0
    5.3245   -2.6033   -0.1497 H   0  0  0  1  0  0  0  0  0  0  0  0
    6.5274   -2.1592    2.2198 H   0  0  0  1  0  0  0  0  0  0  0  0
    4.8709   -2.7096    2.1339 H   0  0  0  1  0  0  0  0  0  0  0  0
    4.2283   -0.7569    3.1211 H   0  0  0  1  0  0  0  0  0  0  0  0
    3.7818    0.8477    1.5231 H   0  0  0  1  0  0  0  0  0  0  0  0
    5.4641    0.9938    1.0731 H   0  0  0  1  0  0  0  0  0  0  0  0
    5.8880    0.9257    3.5580 H   0  0  0  1  0  0  0  0  0  0  0  0
    6.9643    0.1121    2.6976 H   0  0  0  1  0  0  0  0  0  0  0  0
  1  2  4  0  0  0  0
  1  6  4  0  0  0  0
  1 18  1  0  0  0  0
  2  3  4  0  0  0  0
  3  4  4  0  0  0  0
  3 25  1  0  0  0  0
  4  5  4  0  0  0  0
  4  7  4  0  0  0  0
  5  6  4  0  0  0  0
  5  9  4  0  0  0  0
  7  8  4  0  0  0  0
  7 26  1  0  0  0  0
  8  9  4  0  0  0  0
  9 10  1  0  0  0  0
 10 11  4  0  0  0  0
 10 15  4  0  0  0  0
 11 12  4  0  0  0  0
 11 27  1  0  0  0  0
 12 13  4  0  0  0  0
 12 28  1  0  0  0  0
 13 14  4  0  0  0  0
 13 16  1  0  0  0  0
 14 15  4  0  0  0  0
 14 29  1  0  0  0  0
 15 30  1  0  0  0  0
 16 17  1  0  0  0  0
 17 31  1  0  0  0  0
 17 32  1  0  0  0  0
 17 33  1  0  0  0  0
 18 19  1  0  0  0  0
 18 34  1  0  0  0  0
 19 20  1  0  0  0  0
 19 23  1  0  0  0  0
 19 35  1  0  0  0  0
 20 21  1  0  0  0  0
 20 36  1  0  0  0  0
 20 37  1  0  0  0  0
 21 22  1  0  0  0  0
 21 38  1  0  0  0  0
 21 39  1  0  0  0  0
 22 23  1  0  0  0  0
 22 24  1  0  0  0  0
 22 40  1  0  0  0  0
 23 41  1  0  0  0  0
 23 42  1  0  0  0  0
 24 43  1  0  0  0  0
 24 44  1  0  0  0  0
M  END
> <ConfClashScore>
0 

> <ConfOneFourInteractionScore>
-0.985399 

> <ConfScore>
-0.0642809 

> <ConfScorePBest>
0.00421966 

> <ConfTolerance>
0.197269 

$$$$
c22.sdf
 OpenBabel04162418103D

 44 47  0  0  0  0  0  0  0  0999 V2000
    1.9452   -0.6102    0.1255 C   0  0  0  1  0  0  0  0  0  0  0  0
    2.0363    0.7233    0.1481 N   0  0  0  1  0  0  0  0  0  0  0  0
    0.8945    1.4375    0.0881 C   0  0  0  1  0  0  0  0  0  0  0  0
   -0.3452    0.7386    0.0096 C   0  0  0  1  0  0  0  0  0  0  0  0
   -0.2528   -0.6477    0.0020 C   0  0  0  1  0  0  0  0  0  0  0  0
    0.8780   -1.3913    0.0539 N   0  0  0  1  0  0  0  0  0  0  0  0
   -1.7303    0.9920   -0.0538 C   0  0  0  1  0  0  0  0  0  0  0  0
   -2.4281   -0.1191   -0.1028 N   0  0  0  1  0  0  0  0  0  0  0  0
   -1.5125   -1.1341   -0.0681 N   0  0  0  1  0  0  0  0  0  0  0  0
   -1.8396   -2.5099   -0.1011 C   0  0  0  1  0  0  0  0  0  0  0  0
   -0.9248   -3.3720   -0.6754 C   0  0  0  1  0  0  0  0  0  0  0  0
   -1.1927   -4.7311   -0.7293 C   0  0  0  1  0  0  0  0  0  0  0  0
   -2.3767   -5.2233   -0.2135 C   0  0  0  1  0  0  0  0  0  0  0  0
   -3.2941   -4.3583    0.3625 C   0  0  0  1  0  0  0  0  0  0  0  0
   -3.0272   -3.0033    0.4163 C   0  0  0  1  0  0  0  0  0  0  0  0
   -2.7490   -6.5253   -0.2137 O   0  0  0  1  0  0  0  0  0  0  0  0
   -1.7971   -7.4799   -0.7090 C   0  0  0  1  0  0  0  0  0  0  0  0
    3.1323   -1.2664    0.1855 N   0  0  0  1  0  0  0  0  0  0  0  0
    3.2036   -2.7306    0.1900 C   0  0  0  1  0  0  0  0  0  0  0  0
    4.6640   -3.1866    0.1726 C   0  0  0  1  0  0  0  0  0  0  0  0
    4.8838   -3.8393   -1.1854 C   0  0  0  1  0  0  0  0  0  0  0  0
    3.7606   -3.3475   -2.0880 C   0  0  0  1  0  0  0  0  0  0  0  0
    2.5353   -3.3054   -1.1001 C   0  0  0  1  0  0  0  0  0  0  0  0
    3.5133   -4.3069   -3.2258 N   0  0  0  1  0  0  0  0  0  0  0  0
    0.9179    2.4773    0.0987 H   0  0  0  1  0  0  0  0  0  0  0  0
   -2.1490    1.9441   -0.0608 H   0  0  0  1  0  0  0  0  0  0  0  0
   -0.0356   -3.0012   -1.0672 H   0  0  0  1  0  0  0  0  0  0  0  0
   -0.5025   -5.3804   -1.1580 H   0  0  0  1  0  0  0  0  0  0  0  0
   -4.1833   -4.7291    0.7542 H   0  0  0  1  0  0  0  0  0  0  0  0
   -3.7173   -2.3539    0.8449 H   0  0  0  1  0  0  0  0  0  0  0  0
   -2.1623   -8.4707   -0.5366 H   0  0  0  1  0  0  0  0  0  0  0  0
   -0.8646   -7.3500   -0.2005 H   0  0  0  1  0  0  0  0  0  0  0  0
   -1.6554   -7.3299   -1.7590 H   0  0  0  1  0  0  0  0  0  0  0  0
    3.9628   -0.7479    0.2266 H   0  0  0  1  0  0  0  0  0  0  0  0
    2.7100   -3.1095    1.0604 H   0  0  0  1  0  0  0  0  0  0  0  0
    4.8424   -3.8920    0.9571 H   0  0  0  1  0  0  0  0  0  0  0  0
    5.3169   -2.3473    0.2915 H   0  0  0  1  0  0  0  0  0  0  0  0
    4.8448   -4.9046   -1.0940 H   0  0  0  1  0  0  0  0  0  0  0  0
    5.8330   -3.5495   -1.5853 H   0  0  0  1  0  0  0  0  0  0  0  0
    3.9758   -2.3756   -2.4807 H   0  0  0  1  0  0  0  0  0  0  0  0
    2.1344   -4.2830   -0.9314 H   0  0  0  1  0  0  0  0  0  0  0  0
    1.7624   -2.6599   -1.4618 H   0  0  0  1  0  0  0  0  0  0  0  0
    2.8567   -3.9208   -3.8425 H   0  0  0  1  0  0  0  0  0  0  0  0
    3.1692   -5.1529   -2.8703 H   0  0  0  1  0  0  0  0  0  0  0  0
  1  2  4  0  0  0  0
  1  6  4  0  0  0  0
  1 18  1  0  0  0  0
  2  3  4  0  0  0  0
  3  4  4  0  0  0  0
  3 25  1  0  0  0  0
  4  5  4  0  0  0  0
  4  7  4  0  0  0  0
  5  6  4  0  0  0  0
  5  9  4  0  0  0  0
  7  8  4  0  0  0  0
  7 26  1  0  0  0  0
  8  9  4  0  0  0  0
  9 10  1  0  0  0  0
 10 11  4  0  0  0  0
 10 15  4  0  0  0  0
 11 12  4  0  0  0  0
 11 27  1  0  0  0  0
 12 13  4  0  0  0  0
 12 28  1  0  0  0  0
 13 14  4  0  0  0  0
 13 16  1  0  0  0  0
 14 15  4  0  0  0  0
 14 29  1  0  0  0  0
 15 30  1  0  0  0  0
 16 17  1  0  0  0  0
 17 31  1  0  0  0  0
 17 32  1  0  0  0  0
 17 33  1  0  0  0  0
 18 19  1  0  0  0  0
 18 34  1  0  0  0  0
 19 20  1  0  0  0  0
 19 23  1  0  0  0  0
 19 35  1  0  0  0  0
 20 21  1  0  0  0  0
 20 36  1  0  0  0  0
 20 37  1  0  0  0  0
 21 22  1  0  0  0  0
 21 38  1  0  0  0  0
 21 39  1  0  0  0  0
 22 23  1  0  0  0  0
 22 24  1  0  0  0  0
 22 40  1  0  0  0  0
 23 41  1  0  0  0  0
 23 42  1  0  0  0  0
 24 43  1  0  0  0  0
 24 44  1  0  0  0  0
M  END
> <ConfClashScore>
0 

> <ConfOneFourInteractionScore>
-0.981848 

> <ConfScore>
-0.0642809 

> <ConfScorePBest>
0.00420633 

> <ConfTolerance>
0.197024 

$$$$
c22.sdf
 OpenBabel04162418103D

 44 47  0  0  0  0  0  0  0  0999 V2000
    1.9452   -0.6102    0.1256 C   0  0  0  1  0  0  0  0  0  0  0  0
    2.0363    0.7233    0.1482 N   0  0  0  1  0  0  0  0  0  0  0  0
    0.8946    1.4376    0.0881 C   0  0  0  1  0  0  0  0  0  0  0  0
   -0.3452    0.7386    0.0095 C   0  0  0  1  0  0  0  0  0  0  0  0
   -0.2528   -0.6477    0.0020 C   0  0  0  1  0  0  0  0  0  0  0  0
    0.8780   -1.3913    0.0539 N   0  0  0  1  0  0  0  0  0  0  0  0
   -1.7303    0.9921   -0.0538 C   0  0  0  1  0  0  0  0  0  0  0  0
   -2.4281   -0.1191   -0.1028 N   0  0  0  1  0  0  0  0  0  0  0  0
   -1.5126   -1.1342   -0.0681 N   0  0  0  1  0  0  0  0  0  0  0  0
   -1.8397   -2.5099   -0.1010 C   0  0  0  1  0  0  0  0  0  0  0  0
   -2.9382   -2.9757    0.5963 C   0  0  0  1  0  0  0  0  0  0  0  0
   -3.2618   -4.3231    0.5596 C   0  0  0  1  0  0  0  0  0  0  0  0
   -2.4831   -5.2016   -0.1699 C   0  0  0  1  0  0  0  0  0  0  0  0
   -1.3813   -4.7340   -0.8693 C   0  0  0  1  0  0  0  0  0  0  0  0
   -1.0584   -3.3907   -0.8328 C   0  0  0  1  0  0  0  0  0  0  0  0
   -2.7375   -6.5309   -0.1261 O   0  0  0  1  0  0  0  0  0  0  0  0
   -1.9014   -7.3856   -0.9216 C   0  0  0  1  0  0  0  0  0  0  0  0
    3.1545   -1.2788    0.1866 N   0  0  0  1  0  0  0  0  0  0  0  0
    3.1246   -2.7387    0.2871 C   0  0  0  1  0  0  0  0  0  0  0  0
    4.5385   -3.3294    0.2257 C   0  0  0  1  0  0  0  0  0  0  0  0
    4.4134   -4.7627   -0.2809 C   0  0  0  1  0  0  0  0  0  0  0  0
    3.0011   -4.8162   -0.9608 C   0  0  0  1  0  0  0  0  0  0  0  0
    2.4446   -3.3804   -0.9686 C   0  0  0  1  0  0  0  0  0  0  0  0
    2.1250   -5.6809   -0.2113 N   0  0  0  1  0  0  0  0  0  0  0  0
    0.9179    2.4772    0.0987 H   0  0  0  1  0  0  0  0  0  0  0  0
   -2.1490    1.9440   -0.0608 H   0  0  0  1  0  0  0  0  0  0  0  0
   -3.5220   -2.3156    1.1485 H   0  0  0  1  0  0  0  0  0  0  0  0
   -4.0908   -4.6731    1.0810 H   0  0  0  1  0  0  0  0  0  0  0  0
   -0.7974   -5.3942   -1.4215 H   0  0  0  1  0  0  0  0  0  0  0  0
   -0.2295   -3.0406   -1.3542 H   0  0  0  1  0  0  0  0  0  0  0  0
   -1.9019   -7.0428   -1.9353 H   0  0  0  1  0  0  0  0  0  0  0  0
   -2.2768   -8.3868   -0.8838 H   0  0  0  1  0  0  0  0  0  0  0  0
   -0.9026   -7.3640   -0.5385 H   0  0  0  1  0  0  0  0  0  0  0  0
    4.0039   -0.7907    0.1634 H   0  0  0  1  0  0  0  0  0  0  0  0
    2.6235   -3.0246    1.1882 H   0  0  0  1  0  0  0  0  0  0  0  0
    5.1451   -2.7566   -0.4445 H   0  0  0  1  0  0  0  0  0  0  0  0
    4.9797   -3.3235    1.2005 H   0  0  0  1  0  0  0  0  0  0  0  0
    5.1835   -4.9815   -0.9908 H   0  0  0  1  0  0  0  0  0  0  0  0
    4.4687   -5.4570    0.5313 H   0  0  0  1  0  0  0  0  0  0  0  0
    3.0903   -5.1801   -1.9630 H   0  0  0  1  0  0  0  0  0  0  0  0
    2.7228   -2.8641   -1.8636 H   0  0  0  1  0  0  0  0  0  0  0  0
    1.3789   -3.3796   -0.8725 H   0  0  0  1  0  0  0  0  0  0  0  0
    1.2434   -5.7036   -0.6387 H   0  0  0  1  0  0  0  0  0  0  0  0
    2.0354   -5.3413    0.7037 H   0  0  0  1  0  0  0  0  0  0  0  0
  1  2  4  0  0  0  0
  1  6  4  0  0  0  0
  1 18  1  0  0  0  0
  2  3  4  0  0  0  0
  3  4  4  0  0  0  0
  3 25  1  0  0  0  0
  4  5  4  0  0  0  0
  4  7  4  0  0  0  0
  5  6  4  0  0  0  0
  5  9  4  0  0  0  0
  7  8  4  0  0  0  0
  7 26  1  0  0  0  0
  8  9  4  0  0  0  0
  9 10  1  0  0  0  0
 10 11  4  0  0  0  0
 10 15  4  0  0  0  0
 11 12  4  0  0  0  0
 11 27  1  0  0  0  0
 12 13  4  0  0  0  0
 12 28  1  0  0  0  0
 13 14  4  0  0  0  0
 13 16  1  0  0  0  0
 14 15  4  0  0  0  0
 14 29  1  0  0  0  0
 15 30  1  0  0  0  0
 16 17  1  0  0  0  0
 17 31  1  0  0  0  0
 17 32  1  0  0  0  0
 17 33  1  0  0  0  0
 18 19  1  0  0  0  0
 18 34  1  0  0  0  0
 19 20  1  0  0  0  0
 19 23  1  0  0  0  0
 19 35  1  0  0  0  0
 20 21  1  0  0  0  0
 20 36  1  0  0  0  0
 20 37  1  0  0  0  0
 21 22  1  0  0  0  0
 21 38  1  0  0  0  0
 21 39  1  0  0  0  0
 22 23  1  0  0  0  0
 22 24  1  0  0  0  0
 22 40  1  0  0  0  0
 23 41  1  0  0  0  0
 23 42  1  0  0  0  0
 24 43  1  0  0  0  0
 24 44  1  0  0  0  0
M  END
> <ConfClashScore>
0 

> <ConfOneFourInteractionScore>
-0.981848 

> <ConfScore>
-0.0642809 

> <ConfScorePBest>
0.004193 

> <ConfTolerance>
0.267143 

$$$$
c22.sdf
 OpenBabel04162418103D

 44 47  0  0  0  0  0  0  0  0999 V2000
    1.9452   -0.6102    0.1254 C   0  0  0  1  0  0  0  0  0  0  0  0
    2.0363    0.7233    0.1481 N   0  0  0  1  0  0  0  0  0  0  0  0
    0.8946    1.4376    0.0881 C   0  0  0  1  0  0  0  0  0  0  0  0
   -0.3453    0.7385    0.0096 C   0  0  0  1  0  0  0  0  0  0  0  0
   -0.2529   -0.6478    0.0020 C   0  0  0  1  0  0  0  0  0  0  0  0
    0.8779   -1.3913    0.0538 N   0  0  0  1  0  0  0  0  0  0  0  0
   -1.7303    0.9921   -0.0538 C   0  0  0  1  0  0  0  0  0  0  0  0
   -2.4282   -0.1191   -0.1027 N   0  0  0  1  0  0  0  0  0  0  0  0
   -1.5125   -1.1342   -0.0681 N   0  0  0  1  0  0  0  0  0  0  0  0
   -1.8416   -2.5179   -0.1013 C   0  0  0  1  0  0  0  0  0  0  0  0
   -2.4850   -3.0499   -1.2027 C   0  0  0  1  0  0  0  0  0  0  0  0
   -2.8833   -4.3776   -1.1982 C   0  0  0  1  0  0  0  0  0  0  0  0
   -2.6417   -5.1680   -0.0904 C   0  0  0  1  0  0  0  0  0  0  0  0
   -1.9964   -4.6342    1.0142 C   0  0  0  1  0  0  0  0  0  0  0  0
   -1.5993   -3.3104    1.0099 C   0  0  0  1  0  0  0  0  0  0  0  0
   -2.9877   -6.4716    0.0313 O   0  0  0  1  0  0  0  0  0  0  0  0
   -3.7401   -7.0540   -1.0444 C   0  0  0  1  0  0  0  0  0  0  0  0
    3.1379   -1.2696    0.1856 N   0  0  0  1  0  0  0  0  0  0  0  0
    3.2120   -2.7308    0.1410 C   0  0  0  1  0  0  0  0  0  0  0  0
    4.2854   -3.2571    1.1131 C   0  0  0  1  0  0  0  0  0  0  0  0
    4.7546   -4.6057    0.5392 C   0  0  0  1  0  0  0  0  0  0  0  0
    4.3006   -4.6396   -0.9473 C   0  0  0  1  0  0  0  0  0  0  0  0
    3.7112   -3.2229   -1.2598 C   0  0  0  1  0  0  0  0  0  0  0  0
    3.2567   -5.6882   -1.1447 N   0  0  0  1  0  0  0  0  0  0  0  0
    0.9179    2.4773    0.0987 H   0  0  0  1  0  0  0  0  0  0  0  0
   -2.1490    1.9441   -0.0607 H   0  0  0  1  0  0  0  0  0  0  0  0
   -2.6703   -2.4541   -2.0348 H   0  0  0  1  0  0  0  0  0  0  0  0
   -3.3638   -4.7791   -2.0286 H   0  0  0  1  0  0  0  0  0  0  0  0
   -1.8111   -5.2299    1.8463 H   0  0  0  1  0  0  0  0  0  0  0  0
   -1.1187   -2.9088    1.8403 H   0  0  0  1  0  0  0  0  0  0  0  0
   -3.3634   -6.6948   -1.9792 H   0  0  0  1  0  0  0  0  0  0  0  0
   -4.7703   -6.7818   -0.9470 H   0  0  0  1  0  0  0  0  0  0  0  0
   -3.6473   -8.1194   -1.0084 H   0  0  0  1  0  0  0  0  0  0  0  0
    3.9664   -0.7517    0.2605 H   0  0  0  1  0  0  0  0  0  0  0  0
    2.2523   -3.1443    0.3713 H   0  0  0  1  0  0  0  0  0  0  0  0
    3.8681   -3.3937    2.0889 H   0  0  0  1  0  0  0  0  0  0  0  0
    5.1051   -2.5714    1.1680 H   0  0  0  1  0  0  0  0  0  0  0  0
    4.3065   -5.4127    1.0803 H   0  0  0  1  0  0  0  0  0  0  0  0
    5.8201   -4.6822    0.6012 H   0  0  0  1  0  0  0  0  0  0  0  0
    5.1355   -4.8423   -1.5851 H   0  0  0  1  0  0  0  0  0  0  0  0
    2.9007   -3.2886   -1.9552 H   0  0  0  1  0  0  0  0  0  0  0  0
    4.4647   -2.5708   -1.6499 H   0  0  0  1  0  0  0  0  0  0  0  0
    2.4869   -5.4958   -0.5697 H   0  0  0  1  0  0  0  0  0  0  0  0
    3.6270   -6.5652   -0.9120 H   0  0  0  1  0  0  0  0  0  0  0  0
  1  2  4  0  0  0  0
  1  6  4  0  0  0  0
  1 18  1  0  0  0  0
  2  3  4  0  0  0  0
  3  4  4  0  0  0  0
  3 25  1  0  0  0  0
  4  5  4  0  0  0  0
  4  7  4  0  0  0  0
  5  6  4  0  0  0  0
  5  9  4  0  0  0  0
  7  8  4  0  0  0  0
  7 26  1  0  0  0  0
  8  9  4  0  0  0  0
  9 10  1  0  0  0  0
 10 11  4  0  0  0  0
 10 15  4  0  0  0  0
 11 12  4  0  0  0  0
 11 27  1  0  0  0  0
 12 13  4  0  0  0  0
 12 28  1  0  0  0  0
 13 14  4  0  0  0  0
 13 16  1  0  0  0  0
 14 15  4  0  0  0  0
 14 29  1  0  0  0  0
 15 30  1  0  0  0  0
 16 17  1  0  0  0  0
 17 31  1  0  0  0  0
 17 32  1  0  0  0  0
 17 33  1  0  0  0  0
 18 19  1  0  0  0  0
 18 34  1  0  0  0  0
 19 20  1  0  0  0  0
 19 23  1  0  0  0  0
 19 35  1  0  0  0  0
 20 21  1  0  0  0  0
 20 36  1  0  0  0  0
 20 37  1  0  0  0  0
 21 22  1  0  0  0  0
 21 38  1  0  0  0  0
 21 39  1  0  0  0  0
 22 23  1  0  0  0  0
 22 24  1  0  0  0  0
 22 40  1  0  0  0  0
 23 41  1  0  0  0  0
 23 42  1  0  0  0  0
 24 43  1  0  0  0  0
 24 44  1  0  0  0  0
M  END
> <ConfClashScore>
0 

> <ConfOneFourInteractionScore>
-0.984337 

> <ConfScore>
-0.0638817 

> <ConfScorePBest>
0.00417967 

> <ConfTolerance>
0.344312 

$$$$
c22.sdf
 OpenBabel04162418103D

 44 47  0  0  0  0  0  0  0  0999 V2000
    1.9453   -0.6101    0.1254 C   0  0  0  1  0  0  0  0  0  0  0  0
    2.0362    0.7234    0.1480 N   0  0  0  1  0  0  0  0  0  0  0  0
    0.8946    1.4376    0.0881 C   0  0  0  1  0  0  0  0  0  0  0  0
   -0.3452    0.7386    0.0096 C   0  0  0  1  0  0  0  0  0  0  0  0
   -0.2529   -0.6478    0.0020 C   0  0  0  1  0  0  0  0  0  0  0  0
    0.8779   -1.3912    0.0538 N   0  0  0  1  0  0  0  0  0  0  0  0
   -1.7304    0.9921   -0.0538 C   0  0  0  1  0  0  0  0  0  0  0  0
   -2.4281   -0.1191   -0.1028 N   0  0  0  1  0  0  0  0  0  0  0  0
   -1.5126   -1.1342   -0.0681 N   0  0  0  1  0  0  0  0  0  0  0  0
   -1.8419   -2.5193   -0.1013 C   0  0  0  1  0  0  0  0  0  0  0  0
   -1.2583   -3.3900    0.7995 C   0  0  0  1  0  0  0  0  0  0  0  0
   -1.5829   -4.7373    0.7705 C   0  0  0  1  0  0  0  0  0  0  0  0
   -2.4861   -5.2109   -0.1624 C   0  0  0  1  0  0  0  0  0  0  0  0
   -3.0713   -4.3374   -1.0658 C   0  0  0  1  0  0  0  0  0  0  0  0
   -2.7476   -2.9940   -1.0371 C   0  0  0  1  0  0  0  0  0  0  0  0
   -2.7190   -6.5362   -0.0984 O   0  0  0  1  0  0  0  0  0  0  0  0
   -3.4299   -7.0882   -1.2310 C   0  0  0  1  0  0  0  0  0  0  0  0
    3.1323   -1.2664    0.1853 N   0  0  0  1  0  0  0  0  0  0  0  0
    3.2563   -2.7135    0.3669 C   0  0  0  1  0  0  0  0  0  0  0  0
    4.6418   -3.0827    0.9221 C   0  0  0  1  0  0  0  0  0  0  0  0
    5.4834   -3.6116   -0.2285 C   0  0  0  1  0  0  0  0  0  0  0  0
    4.6441   -3.3923   -1.5018 C   0  0  0  1  0  0  0  0  0  0  0  0
    3.2146   -3.4354   -0.9686 C   0  0  0  1  0  0  0  0  0  0  0  0
    4.8814   -4.4810   -2.4989 N   0  0  0  1  0  0  0  0  0  0  0  0
    0.9179    2.4773    0.0987 H   0  0  0  1  0  0  0  0  0  0  0  0
   -2.1490    1.9441   -0.0607 H   0  0  0  1  0  0  0  0  0  0  0  0
   -0.5757   -3.0344    1.4989 H   0  0  0  1  0  0  0  0  0  0  0  0
   -1.1468   -5.3919    1.4509 H   0  0  0  1  0  0  0  0  0  0  0  0
   -3.7539   -4.6929   -1.7653 H   0  0  0  1  0  0  0  0  0  0  0  0
   -3.1837   -2.3393   -1.7174 H   0  0  0  1  0  0  0  0  0  0  0  0
   -3.2519   -8.1418   -1.2854 H   0  0  0  1  0  0  0  0  0  0  0  0
   -3.0850   -6.6216   -2.1300 H   0  0  0  1  0  0  0  0  0  0  0  0
   -4.4784   -6.9093   -1.1153 H   0  0  0  1  0  0  0  0  0  0  0  0
    3.9547   -0.7401    0.1020 H   0  0  0  1  0  0  0  0  0  0  0  0
    2.4786   -3.0602    1.0148 H   0  0  0  1  0  0  0  0  0  0  0  0
    4.5420   -3.8362    1.6753 H   0  0  0  1  0  0  0  0  0  0  0  0
    5.1067   -2.2159    1.3435 H   0  0  0  1  0  0  0  0  0  0  0  0
    6.4056   -3.0726   -0.2935 H   0  0  0  1  0  0  0  0  0  0  0  0
    5.6874   -4.6531   -0.0922 H   0  0  0  1  0  0  0  0  0  0  0  0
    4.8611   -2.4448   -1.9491 H   0  0  0  1  0  0  0  0  0  0  0  0
    2.5495   -2.9367   -1.6422 H   0  0  0  1  0  0  0  0  0  0  0  0
    2.8957   -4.4482   -0.8361 H   0  0  0  1  0  0  0  0  0  0  0  0
    4.7114   -5.3506   -2.0803 H   0  0  0  1  0  0  0  0  0  0  0  0
    5.8106   -4.4436   -2.8081 H   0  0  0  1  0  0  0  0  0  0  0  0
  1  2  4  0  0  0  0
  1  6  4  0  0  0  0
  1 18  1  0  0  0  0
  2  3  4  0  0  0  0
  3  4  4  0  0  0  0
  3 25  1  0  0  0  0
  4  5  4  0  0  0  0
  4  7  4  0  0  0  0
  5  6  4  0  0  0  0
  5  9  4  0  0  0  0
  7  8  4  0  0  0  0
  7 26  1  0  0  0  0
  8  9  4  0  0  0  0
  9 10  1  0  0  0  0
 10 11  4  0  0  0  0
 10 15  4  0  0  0  0
 11 12  4  0  0  0  0
 11 27  1  0  0  0  0
 12 13  4  0  0  0  0
 12 28  1  0  0  0  0
 13 14  4  0  0  0  0
 13 16  1  0  0  0  0
 14 15  4  0  0  0  0
 14 29  1  0  0  0  0
 15 30  1  0  0  0  0
 16 17  1  0  0  0  0
 17 31  1  0  0  0  0
 17 32  1  0  0  0  0
 17 33  1  0  0  0  0
 18 19  1  0  0  0  0
 18 34  1  0  0  0  0
 19 20  1  0  0  0  0
 19 23  1  0  0  0  0
 19 35  1  0  0  0  0
 20 21  1  0  0  0  0
 20 36  1  0  0  0  0
 20 37  1  0  0  0  0
 21 22  1  0  0  0  0
 21 38  1  0  0  0  0
 21 39  1  0  0  0  0
 22 23  1  0  0  0  0
 22 24  1  0  0  0  0
 22 40  1  0  0  0  0
 23 41  1  0  0  0  0
 23 42  1  0  0  0  0
 24 43  1  0  0  0  0
 24 44  1  0  0  0  0
M  END
> <ConfClashScore>
0 

> <ConfOneFourInteractionScore>
-0.984337 

> <ConfScore>
-0.0638817 

> <ConfScorePBest>
0.00416634 

> <ConfTolerance>
0.287846 

$$$$
c22.sdf
 OpenBabel04162418103D

 44 47  0  0  0  0  0  0  0  0999 V2000
    1.9452   -0.6102    0.1255 C   0  0  0  1  0  0  0  0  0  0  0  0
    2.0363    0.7234    0.1481 N   0  0  0  1  0  0  0  0  0  0  0  0
    0.8946    1.4376    0.0881 C   0  0  0  1  0  0  0  0  0  0  0  0
   -0.3452    0.7387    0.0095 C   0  0  0  1  0  0  0  0  0  0  0  0
   -0.2528   -0.6477    0.0019 C   0  0  0  1  0  0  0  0  0  0  0  0
    0.8780   -1.3913    0.0539 N   0  0  0  1  0  0  0  0  0  0  0  0
   -1.7303    0.9921   -0.0538 C   0  0  0  1  0  0  0  0  0  0  0  0
   -2.4281   -0.1191   -0.1029 N   0  0  0  1  0  0  0  0  0  0  0  0
   -1.5125   -1.1342   -0.0681 N   0  0  0  1  0  0  0  0  0  0  0  0
   -1.8385   -2.5051   -0.1010 C   0  0  0  1  0  0  0  0  0  0  0  0
   -1.5016   -3.3708    0.9224 C   0  0  0  1  0  0  0  0  0  0  0  0
   -1.8518   -4.7095    0.8410 C   0  0  0  1  0  0  0  0  0  0  0  0
   -2.5330   -5.1798   -0.2658 C   0  0  0  1  0  0  0  0  0  0  0  0
   -2.8708   -4.3114   -1.2922 C   0  0  0  1  0  0  0  0  0  0  0  0
   -2.5217   -2.9765   -1.2112 C   0  0  0  1  0  0  0  0  0  0  0  0
   -2.9212   -6.4593   -0.4581 O   0  0  0  1  0  0  0  0  0  0  0  0
   -2.4632   -7.4869    0.4512 C   0  0  0  1  0  0  0  0  0  0  0  0
    3.1380   -1.2696    0.1857 N   0  0  0  1  0  0  0  0  0  0  0  0
    4.4172   -0.5550    0.1269 C   0  0  0  1  0  0  0  0  0  0  0  0
    4.8336   -0.3211   -1.3671 C   0  0  0  1  0  0  0  0  0  0  0  0
    6.0777   -1.1834   -1.5554 C   0  0  0  1  0  0  0  0  0  0  0  0
    6.0932   -2.2205   -0.4258 C   0  0  0  1  0  0  0  0  0  0  0  0
    5.5246   -1.4015    0.7813 C   0  0  0  1  0  0  0  0  0  0  0  0
    7.4694   -2.6959   -0.1519 N   0  0  0  1  0  0  0  0  0  0  0  0
    0.9178    2.4773    0.0987 H   0  0  0  1  0  0  0  0  0  0  0  0
   -2.1490    1.9441   -0.0608 H   0  0  0  1  0  0  0  0  0  0  0  0
   -0.9856   -3.0178    1.7534 H   0  0  0  1  0  0  0  0  0  0  0  0
   -1.6019   -5.3602    1.6129 H   0  0  0  1  0  0  0  0  0  0  0  0
   -3.3869   -4.6643   -2.1232 H   0  0  0  1  0  0  0  0  0  0  0  0
   -2.7716   -2.3259   -1.9830 H   0  0  0  1  0  0  0  0  0  0  0  0
   -3.1342   -8.3197    0.4164 H   0  0  0  1  0  0  0  0  0  0  0  0
   -2.4332   -7.0946    1.4463 H   0  0  0  1  0  0  0  0  0  0  0  0
   -1.4834   -7.8064    0.1637 H   0  0  0  1  0  0  0  0  0  0  0  0
    3.1400   -2.2459    0.2704 H   0  0  0  1  0  0  0  0  0  0  0  0
    4.3259    0.3833    0.6330 H   0  0  0  1  0  0  0  0  0  0  0  0
    4.0537   -0.6324   -2.0302 H   0  0  0  1  0  0  0  0  0  0  0  0
    5.0588    0.7105   -1.5399 H   0  0  0  1  0  0  0  0  0  0  0  0
    6.9558   -0.5742   -1.5043 H   0  0  0  1  0  0  0  0  0  0  0  0
    6.0400   -1.6769   -2.5041 H   0  0  0  1  0  0  0  0  0  0  0  0
    5.4662   -3.0561   -0.6575 H   0  0  0  1  0  0  0  0  0  0  0  0
    5.1219   -2.0498    1.5313 H   0  0  0  1  0  0  0  0  0  0  0  0
    6.2798   -0.7796    1.2148 H   0  0  0  1  0  0  0  0  0  0  0  0
    8.0555   -1.9269    0.0075 H   0  0  0  1  0  0  0  0  0  0  0  0
    7.7991   -3.2032   -0.9228 H   0  0  0  1  0  0  0  0  0  0  0  0
  1  2  4  0  0  0  0
  1  6  4  0  0  0  0
  1 18  1  0  0  0  0
  2  3  4  0  0  0  0
  3  4  4  0  0  0  0
  3 25  1  0  0  0  0
  4  5  4  0  0  0  0
  4  7  4  0  0  0  0
  5  6  4  0  0  0  0
  5  9  4  0  0  0  0
  7  8  4  0  0  0  0
  7 26  1  0  0  0  0
  8  9  4  0  0  0  0
  9 10  1  0  0  0  0
 10 11  4  0  0  0  0
 10 15  4  0  0  0  0
 11 12  4  0  0  0  0
 11 27  1  0  0  0  0
 12 13  4  0  0  0  0
 12 28  1  0  0  0  0
 13 14  4  0  0  0  0
 13 16  1  0  0  0  0
 14 15  4  0  0  0  0
 14 29  1  0  0  0  0
 15 30  1  0  0  0  0
 16 17  1  0  0  0  0
 17 31  1  0  0  0  0
 17 32  1  0  0  0  0
 17 33  1  0  0  0  0
 18 19  1  0  0  0  0
 18 34  1  0  0  0  0
 19 20  1  0  0  0  0
 19 23  1  0  0  0  0
 19 35  1  0  0  0  0
 20 21  1  0  0  0  0
 20 36  1  0  0  0  0
 20 37  1  0  0  0  0
 21 22  1  0  0  0  0
 21 38  1  0  0  0  0
 21 39  1  0  0  0  0
 22 23  1  0  0  0  0
 22 24  1  0  0  0  0
 22 40  1  0  0  0  0
 23 41  1  0  0  0  0
 23 42  1  0  0  0  0
 24 43  1  0  0  0  0
 24 44  1  0  0  0  0
M  END
> <ConfClashScore>
0 

> <ConfOneFourInteractionScore>
-0.984337 

> <ConfScore>
-0.0634236 

> <ConfScorePBest>
0.00415302 

> <ConfTolerance>
0.324701 

$$$$
c22.sdf
 OpenBabel04162418103D

 44 47  0  0  0  0  0  0  0  0999 V2000
    1.9452   -0.6102    0.1257 C   0  0  0  1  0  0  0  0  0  0  0  0
    2.0362    0.7233    0.1482 N   0  0  0  1  0  0  0  0  0  0  0  0
    0.8946    1.4376    0.0881 C   0  0  0  1  0  0  0  0  0  0  0  0
   -0.3453    0.7387    0.0096 C   0  0  0  1  0  0  0  0  0  0  0  0
   -0.2528   -0.6478    0.0021 C   0  0  0  1  0  0  0  0  0  0  0  0
    0.8779   -1.3913    0.0540 N   0  0  0  1  0  0  0  0  0  0  0  0
   -1.7304    0.9921   -0.0538 C   0  0  0  1  0  0  0  0  0  0  0  0
   -2.4281   -0.1191   -0.1029 N   0  0  0  1  0  0  0  0  0  0  0  0
   -1.5125   -1.1341   -0.0681 N   0  0  0  1  0  0  0  0  0  0  0  0
   -1.8396   -2.5099   -0.1011 C   0  0  0  1  0  0  0  0  0  0  0  0
   -0.9271   -3.4255   -0.5898 C   0  0  0  1  0  0  0  0  0  0  0  0
   -1.2456   -4.7743   -0.6171 C   0  0  0  1  0  0  0  0  0  0  0  0
   -2.4778   -5.2030   -0.1606 C   0  0  0  1  0  0  0  0  0  0  0  0
   -3.3930   -4.2844    0.3295 C   0  0  0  1  0  0  0  0  0  0  0  0
   -3.0756   -2.9395    0.3568 C   0  0  0  1  0  0  0  0  0  0  0  0
   -2.6771   -6.5366   -0.2412 O   0  0  0  1  0  0  0  0  0  0  0  0
   -3.8931   -7.1021    0.2727 C   0  0  0  1  0  0  0  0  0  0  0  0
    3.1213   -1.2604    0.1851 N   0  0  0  1  0  0  0  0  0  0  0  0
    4.4065   -0.5982    0.3254 C   0  0  0  1  0  0  0  0  0  0  0  0
    5.4363   -1.2188   -0.6224 C   0  0  0  1  0  0  0  0  0  0  0  0
    6.7509   -0.8516    0.0781 C   0  0  0  1  0  0  0  0  0  0  0  0
    6.4748   -1.0745    1.5598 C   0  0  0  1  0  0  0  0  0  0  0  0
    4.9739   -0.8170    1.7369 C   0  0  0  1  0  0  0  0  0  0  0  0
    7.2638   -0.1279    2.3822 N   0  0  0  1  0  0  0  0  0  0  0  0
    0.9178    2.4773    0.0987 H   0  0  0  1  0  0  0  0  0  0  0  0
   -2.1490    1.9440   -0.0609 H   0  0  0  1  0  0  0  0  0  0  0  0
   -0.0015   -3.1026   -0.9370 H   0  0  0  1  0  0  0  0  0  0  0  0
   -0.5574   -5.4638   -0.9811 H   0  0  0  1  0  0  0  0  0  0  0  0
   -4.3187   -4.6073    0.6767 H   0  0  0  1  0  0  0  0  0  0  0  0
   -3.7637   -2.2500    0.7208 H   0  0  0  1  0  0  0  0  0  0  0  0
   -3.8892   -8.1606    0.1153 H   0  0  0  1  0  0  0  0  0  0  0  0
   -4.7299   -6.6694   -0.2348 H   0  0  0  1  0  0  0  0  0  0  0  0
   -3.9662   -6.8979    1.3205 H   0  0  0  1  0  0  0  0  0  0  0  0
    3.1104   -2.2388    0.1304 H   0  0  0  1  0  0  0  0  0  0  0  0
    4.2937    0.4468    0.1245 H   0  0  0  1  0  0  0  0  0  0  0  0
    5.3794   -0.7864   -1.5995 H   0  0  0  1  0  0  0  0  0  0  0  0
    5.3136   -2.2794   -0.6933 H   0  0  0  1  0  0  0  0  0  0  0  0
    7.5463   -1.4841   -0.2568 H   0  0  0  1  0  0  0  0  0  0  0  0
    7.0051    0.1709   -0.1086 H   0  0  0  1  0  0  0  0  0  0  0  0
    6.7178   -2.0785    1.8389 H   0  0  0  1  0  0  0  0  0  0  0  0
    4.5048   -1.6609    2.1982 H   0  0  0  1  0  0  0  0  0  0  0  0
    4.8156    0.0532    2.3391 H   0  0  0  1  0  0  0  0  0  0  0  0
    7.1384   -0.3362    3.3316 H   0  0  0  1  0  0  0  0  0  0  0  0
    6.9616    0.7876    2.2063 H   0  0  0  1  0  0  0  0  0  0  0  0
  1  2  4  0  0  0  0
  1  6  4  0  0  0  0
  1 18  1  0  0  0  0
  2  3  4  0  0  0  0
  3  4  4  0  0  0  0
  3 25  1  0  0  0  0
  4  5  4  0  0  0  0
  4  7  4  0  0  0  0
  5  6  4  0  0  0  0
  5  9  4  0  0  0  0
  7  8  4  0  0  0  0
  7 26  1  0  0  0  0
  8  9  4  0  0  0  0
  9 10  1  0  0  0  0
 10 11  4  0  0  0  0
 10 15  4  0  0  0  0
 11 12  4  0  0  0  0
 11 27  1  0  0  0  0
 12 13  4  0  0  0  0
 12 28  1  0  0  0  0
 13 14  4  0  0  0  0
 13 16  1  0  0  0  0
 14 15  4  0  0  0  0
 14 29  1  0  0  0  0
 15 30  1  0  0  0  0
 16 17  1  0  0  0  0
 17 31  1  0  0  0  0
 17 32  1  0  0  0  0
 17 33  1  0  0  0  0
 18 19  1  0  0  0  0
 18 34  1  0  0  0  0
 19 20  1  0  0  0  0
 19 23  1  0  0  0  0
 19 35  1  0  0  0  0
 20 21  1  0  0  0  0
 20 36  1  0  0  0  0
 20 37  1  0  0  0  0
 21 22  1  0  0  0  0
 21 38  1  0  0  0  0
 21 39  1  0  0  0  0
 22 23  1  0  0  0  0
 22 24  1  0  0  0  0
 22 40  1  0  0  0  0
 23 41  1  0  0  0  0
 23 42  1  0  0  0  0
 24 43  1  0  0  0  0
 24 44  1  0  0  0  0
M  END
> <ConfClashScore>
0 

> <ConfOneFourInteractionScore>
-0.984337 

> <ConfScore>
-0.0631516 

> <ConfScorePBest>
0.00413969 

> <ConfTolerance>
0.244008 

$$$$
c22.sdf
 OpenBabel04162418103D

 44 47  0  0  0  0  0  0  0  0999 V2000
    1.9452   -0.6102    0.1256 C   0  0  0  1  0  0  0  0  0  0  0  0
    2.0363    0.7233    0.1481 N   0  0  0  1  0  0  0  0  0  0  0  0
    0.8946    1.4376    0.0881 C   0  0  0  1  0  0  0  0  0  0  0  0
   -0.3453    0.7386    0.0096 C   0  0  0  1  0  0  0  0  0  0  0  0
   -0.2528   -0.6477    0.0020 C   0  0  0  1  0  0  0  0  0  0  0  0
    0.8780   -1.3913    0.0539 N   0  0  0  1  0  0  0  0  0  0  0  0
   -1.7303    0.9921   -0.0538 C   0  0  0  1  0  0  0  0  0  0  0  0
   -2.4281   -0.1191   -0.1028 N   0  0  0  1  0  0  0  0  0  0  0  0
   -1.5126   -1.1342   -0.0681 N   0  0  0  1  0  0  0  0  0  0  0  0
   -1.8419   -2.5193   -0.1013 C   0  0  0  1  0  0  0  0  0  0  0  0
   -0.9245   -3.4363   -0.5784 C   0  0  0  1  0  0  0  0  0  0  0  0
   -1.2431   -4.7851   -0.6058 C   0  0  0  1  0  0  0  0  0  0  0  0
   -2.4801   -5.2123   -0.1610 C   0  0  0  1  0  0  0  0  0  0  0  0
   -3.4000   -4.2923    0.3175 C   0  0  0  1  0  0  0  0  0  0  0  0
   -3.0824   -2.9475    0.3447 C   0  0  0  1  0  0  0  0  0  0  0  0
   -2.9021   -6.4915   -0.1445 O   0  0  0  1  0  0  0  0  0  0  0  0
   -2.0206   -7.4355   -0.7959 C   0  0  0  1  0  0  0  0  0  0  0  0
    3.1213   -1.2604    0.1849 N   0  0  0  1  0  0  0  0  0  0  0  0
    4.4271   -0.5885    0.2365 C   0  0  0  1  0  0  0  0  0  0  0  0
    5.5374   -1.5493   -0.1698 C   0  0  0  1  0  0  0  0  0  0  0  0
    6.7605   -1.0941    0.6367 C   0  0  0  1  0  0  0  0  0  0  0  0
    6.1275   -0.7872    1.9965 C   0  0  0  1  0  0  0  0  0  0  0  0
    4.7579   -0.1692    1.6737 C   0  0  0  1  0  0  0  0  0  0  0  0
    6.9712    0.1799    2.7604 N   0  0  0  1  0  0  0  0  0  0  0  0
    0.9178    2.4773    0.0988 H   0  0  0  1  0  0  0  0  0  0  0  0
   -2.1490    1.9441   -0.0607 H   0  0  0  1  0  0  0  0  0  0  0  0
    0.0048   -3.1144   -0.9168 H   0  0  0  1  0  0  0  0  0  0  0  0
   -0.5514   -5.4756   -0.9609 H   0  0  0  1  0  0  0  0  0  0  0  0
   -4.3293   -4.6141    0.6559 H   0  0  0  1  0  0  0  0  0  0  0  0
   -3.7742   -2.2569    0.6999 H   0  0  0  1  0  0  0  0  0  0  0  0
   -1.0094   -7.0958   -0.7130 H   0  0  0  1  0  0  0  0  0  0  0  0
   -2.2859   -7.5161   -1.8294 H   0  0  0  1  0  0  0  0  0  0  0  0
   -2.1145   -8.3928   -0.3273 H   0  0  0  1  0  0  0  0  0  0  0  0
    3.1064   -2.2402    0.1941 H   0  0  0  1  0  0  0  0  0  0  0  0
    4.4154    0.2647   -0.4091 H   0  0  0  1  0  0  0  0  0  0  0  0
    5.7308   -1.4800   -1.2199 H   0  0  0  1  0  0  0  0  0  0  0  0
    5.2749   -2.5563    0.0793 H   0  0  0  1  0  0  0  0  0  0  0  0
    7.4914   -1.8718    0.7118 H   0  0  0  1  0  0  0  0  0  0  0  0
    7.2094   -0.2223    0.2083 H   0  0  0  1  0  0  0  0  0  0  0  0
    6.0089   -1.6852    2.5662 H   0  0  0  1  0  0  0  0  0  0  0  0
    4.8058    0.8972    1.7470 H   0  0  0  1  0  0  0  0  0  0  0  0
    4.0152   -0.5406    2.3485 H   0  0  0  1  0  0  0  0  0  0  0  0
    6.4621    0.5275    3.5223 H   0  0  0  1  0  0  0  0  0  0  0  0
    7.2291    0.9219    2.1745 H   0  0  0  1  0  0  0  0  0  0  0  0
  1  2  4  0  0  0  0
  1  6  4  0  0  0  0
  1 18  1  0  0  0  0
  2  3  4  0  0  0  0
  3  4  4  0  0  0  0
  3 25  1  0  0  0  0
  4  5  4  0  0  0  0
  4  7  4  0  0  0  0
  5  6  4  0  0  0  0
  5  9  4  0  0  0  0
  7  8  4  0  0  0  0
  7 26  1  0  0  0  0
  8  9  4  0  0  0  0
  9 10  1  0  0  0  0
 10 11  4  0  0  0  0
 10 15  4  0  0  0  0
 11 12  4  0  0  0  0
 11 27  1  0  0  0  0
 12 13  4  0  0  0  0
 12 28  1  0  0  0  0
 13 14  4  0  0  0  0
 13 16  1  0  0  0  0
 14 15  4  0  0  0  0
 14 29  1  0  0  0  0
 15 30  1  0  0  0  0
 16 17  1  0  0  0  0
 17 31  1  0  0  0  0
 17 32  1  0  0  0  0
 17 33  1  0  0  0  0
 18 19  1  0  0  0  0
 18 34  1  0  0  0  0
 19 20  1  0  0  0  0
 19 23  1  0  0  0  0
 19 35  1  0  0  0  0
 20 21  1  0  0  0  0
 20 36  1  0  0  0  0
 20 37  1  0  0  0  0
 21 22  1  0  0  0  0
 21 38  1  0  0  0  0
 21 39  1  0  0  0  0
 22 23  1  0  0  0  0
 22 24  1  0  0  0  0
 22 40  1  0  0  0  0
 23 41  1  0  0  0  0
 23 42  1  0  0  0  0
 24 43  1  0  0  0  0
 24 44  1  0  0  0  0
M  END
> <ConfClashScore>
0 

> <ConfOneFourInteractionScore>
-0.984337 

> <ConfScore>
-0.0622271 

> <ConfScorePBest>
0.00412636 

> <ConfTolerance>
0.308944 

$$$$
c22.sdf
 OpenBabel04162418103D

 44 47  0  0  0  0  0  0  0  0999 V2000
    1.9453   -0.6102    0.1256 C   0  0  0  1  0  0  0  0  0  0  0  0
    2.0363    0.7234    0.1482 N   0  0  0  1  0  0  0  0  0  0  0  0
    0.8945    1.4375    0.0881 C   0  0  0  1  0  0  0  0  0  0  0  0
   -0.3452    0.7386    0.0096 C   0  0  0  1  0  0  0  0  0  0  0  0
   -0.2528   -0.6478    0.0021 C   0  0  0  1  0  0  0  0  0  0  0  0
    0.8779   -1.3913    0.0540 N   0  0  0  1  0  0  0  0  0  0  0  0
   -1.7303    0.9921   -0.0538 C   0  0  0  1  0  0  0  0  0  0  0  0
   -2.4281   -0.1191   -0.1028 N   0  0  0  1  0  0  0  0  0  0  0  0
   -1.5125   -1.1341   -0.0681 N   0  0  0  1  0  0  0  0  0  0  0  0
   -1.8396   -2.5099   -0.1010 C   0  0  0  1  0  0  0  0  0  0  0  0
   -3.0719   -2.9382    0.3553 C   0  0  0  1  0  0  0  0  0  0  0  0
   -3.3944   -4.2858    0.3180 C   0  0  0  1  0  0  0  0  0  0  0  0
   -2.4819   -5.2017   -0.1706 C   0  0  0  1  0  0  0  0  0  0  0  0
   -1.2460   -4.7720   -0.6282 C   0  0  0  1  0  0  0  0  0  0  0  0
   -0.9243   -3.4283   -0.5910 C   0  0  0  1  0  0  0  0  0  0  0  0
   -2.8568   -6.5030   -0.1747 O   0  0  0  1  0  0  0  0  0  0  0  0
   -1.9688   -7.4398   -0.8042 C   0  0  0  1  0  0  0  0  0  0  0  0
    3.1257   -1.2628    0.1852 N   0  0  0  1  0  0  0  0  0  0  0  0
    3.2608   -2.7044    0.0684 C   0  0  0  1  0  0  0  0  0  0  0  0
    4.5991   -3.1671    0.6560 C   0  0  0  1  0  0  0  0  0  0  0  0
    5.4246   -3.7017   -0.5250 C   0  0  0  1  0  0  0  0  0  0  0  0
    4.7852   -3.0871   -1.7730 C   0  0  0  1  0  0  0  0  0  0  0  0
    3.2981   -3.1191   -1.3973 C   0  0  0  1  0  0  0  0  0  0  0  0
    5.0547   -3.8966   -2.9691 N   0  0  0  1  0  0  0  0  0  0  0  0
    0.9179    2.4772    0.0987 H   0  0  0  1  0  0  0  0  0  0  0  0
   -2.1490    1.9440   -0.0608 H   0  0  0  1  0  0  0  0  0  0  0  0
   -3.7570   -2.2495    0.7266 H   0  0  0  1  0  0  0  0  0  0  0  0
   -4.3232   -4.6077    0.6577 H   0  0  0  1  0  0  0  0  0  0  0  0
   -0.5609   -5.4606   -0.9995 H   0  0  0  1  0  0  0  0  0  0  0  0
    0.0045   -3.1064   -0.9307 H   0  0  0  1  0  0  0  0  0  0  0  0
   -2.2254   -7.5355   -1.8385 H   0  0  0  1  0  0  0  0  0  0  0  0
   -2.0578   -8.3924   -0.3252 H   0  0  0  1  0  0  0  0  0  0  0  0
   -0.9615   -7.0893   -0.7179 H   0  0  0  1  0  0  0  0  0  0  0  0
    3.9396   -0.7327    0.3151 H   0  0  0  1  0  0  0  0  0  0  0  0
    2.4460   -3.1814    0.5718 H   0  0  0  1  0  0  0  0  0  0  0  0
    4.4395   -3.9412    1.3773 H   0  0  0  1  0  0  0  0  0  0  0  0
    5.1042   -2.3456    1.1195 H   0  0  0  1  0  0  0  0  0  0  0  0
    5.3738   -4.7698   -0.5650 H   0  0  0  1  0  0  0  0  0  0  0  0
    6.4461   -3.3957   -0.4375 H   0  0  0  1  0  0  0  0  0  0  0  0
    5.1265   -2.0860   -1.9350 H   0  0  0  1  0  0  0  0  0  0  0  0
    2.7421   -2.4303   -1.9985 H   0  0  0  1  0  0  0  0  0  0  0  0
    2.8988   -4.1041   -1.5209 H   0  0  0  1  0  0  0  0  0  0  0  0
    4.5676   -3.5235   -3.7332 H   0  0  0  1  0  0  0  0  0  0  0  0
    4.7605   -4.8182   -2.8126 H   0  0  0  1  0  0  0  0  0  0  0  0
  1  2  4  0  0  0  0
  1  6  4  0  0  0  0
  1 18  1  0  0  0  0
  2  3  4  0  0  0  0
  3  4  4  0  0  0  0
  3 25  1  0  0  0  0
  4  5  4  0  0  0  0
  4  7  4  0  0  0  0
  5  6  4  0  0  0  0
  5  9  4  0  0  0  0
  7  8  4  0  0  0  0
  7 26  1  0  0  0  0
  8  9  4  0  0  0  0
  9 10  1  0  0  0  0
 10 11  4  0  0  0  0
 10 15  4  0  0  0  0
 11 12  4  0  0  0  0
 11 27  1  0  0  0  0
 12 13  4  0  0  0  0
 12 28  1  0  0  0  0
 13 14  4  0  0  0  0
 13 16  1  0  0  0  0
 14 15  4  0  0  0  0
 14 29  1  0  0  0  0
 15 30  1  0  0  0  0
 16 17  1  0  0  0  0
 17 31  1  0  0  0  0
 17 32  1  0  0  0  0
 17 33  1  0  0  0  0
 18 19  1  0  0  0  0
 18 34  1  0  0  0  0
 19 20  1  0  0  0  0
 19 23  1  0  0  0  0
 19 35  1  0  0  0  0
 20 21  1  0  0  0  0
 20 36  1  0  0  0  0
 20 37  1  0  0  0  0
 21 22  1  0  0  0  0
 21 38  1  0  0  0  0
 21 39  1  0  0  0  0
 22 23  1  0  0  0  0
 22 24  1  0  0  0  0
 22 40  1  0  0  0  0
 23 41  1  0  0  0  0
 23 42  1  0  0  0  0
 24 43  1  0  0  0  0
 24 44  1  0  0  0  0
M  END
> <ConfClashScore>
0 

> <ConfOneFourInteractionScore>
-0.984337 

> <ConfScore>
-0.0622271 

> <ConfScorePBest>
0.00411303 

> <ConfTolerance>
0.235717 

$$$$
c22.sdf
 OpenBabel04162418103D

 44 47  0  0  0  0  0  0  0  0999 V2000
    1.9452   -0.6102    0.1255 C   0  0  0  1  0  0  0  0  0  0  0  0
    2.0362    0.7233    0.1481 N   0  0  0  1  0  0  0  0  0  0  0  0
    0.8945    1.4375    0.0881 C   0  0  0  1  0  0  0  0  0  0  0  0
   -0.3453    0.7386    0.0095 C   0  0  0  1  0  0  0  0  0  0  0  0
   -0.2528   -0.6478    0.0020 C   0  0  0  1  0  0  0  0  0  0  0  0
    0.8780   -1.3913    0.0539 N   0  0  0  1  0  0  0  0  0  0  0  0
   -1.7303    0.9921   -0.0538 C   0  0  0  1  0  0  0  0  0  0  0  0
   -2.4282   -0.1192   -0.1029 N   0  0  0  1  0  0  0  0  0  0  0  0
   -1.5125   -1.1341   -0.0681 N   0  0  0  1  0  0  0  0  0  0  0  0
   -1.8397   -2.5099   -0.1011 C   0  0  0  1  0  0  0  0  0  0  0  0
   -0.9303   -3.4780   -0.4834 C   0  0  0  1  0  0  0  0  0  0  0  0
   -1.3026   -4.8132   -0.4925 C   0  0  0  1  0  0  0  0  0  0  0  0
   -2.5844   -5.1761   -0.1245 C   0  0  0  1  0  0  0  0  0  0  0  0
   -3.4963   -4.2049    0.2590 C   0  0  0  1  0  0  0  0  0  0  0  0
   -3.1254   -2.8735    0.2681 C   0  0  0  1  0  0  0  0  0  0  0  0
   -3.0599   -6.4363   -0.0993 O   0  0  0  1  0  0  0  0  0  0  0  0
   -2.0937   -7.4617   -0.4270 C   0  0  0  1  0  0  0  0  0  0  0  0
    3.1379   -1.2696    0.1857 N   0  0  0  1  0  0  0  0  0  0  0  0
    4.4061   -0.5538    0.3532 C   0  0  0  1  0  0  0  0  0  0  0  0
    5.1212   -0.4069   -0.9951 C   0  0  0  1  0  0  0  0  0  0  0  0
    6.3989   -1.2552   -0.8978 C   0  0  0  1  0  0  0  0  0  0  0  0
    6.1436   -2.2365    0.2494 C   0  0  0  1  0  0  0  0  0  0  0  0
    5.3591   -1.3559    1.2306 C   0  0  0  1  0  0  0  0  0  0  0  0
    7.4115   -2.7143    0.8454 N   0  0  0  1  0  0  0  0  0  0  0  0
    0.9179    2.4772    0.0987 H   0  0  0  1  0  0  0  0  0  0  0  0
   -2.1490    1.9441   -0.0609 H   0  0  0  1  0  0  0  0  0  0  0  0
    0.0330   -3.2047   -0.7642 H   0  0  0  1  0  0  0  0  0  0  0  0
   -0.6172   -5.5421   -0.7763 H   0  0  0  1  0  0  0  0  0  0  0  0
   -4.4597   -4.4781    0.5398 H   0  0  0  1  0  0  0  0  0  0  0  0
   -3.8107   -2.1446    0.5519 H   0  0  0  1  0  0  0  0  0  0  0  0
   -1.5202   -7.7034    0.4434 H   0  0  0  1  0  0  0  0  0  0  0  0
   -1.4412   -7.1039   -1.1958 H   0  0  0  1  0  0  0  0  0  0  0  0
   -2.6051   -8.3364   -0.7710 H   0  0  0  1  0  0  0  0  0  0  0  0
    3.1471   -2.2470    0.1152 H   0  0  0  1  0  0  0  0  0  0  0  0
    4.2194    0.4074    0.7846 H   0  0  0  1  0  0  0  0  0  0  0  0
    5.3696    0.6185   -1.1730 H   0  0  0  1  0  0  0  0  0  0  0  0
    4.4971   -0.7659   -1.7866 H   0  0  0  1  0  0  0  0  0  0  0  0
    6.5687   -1.7838   -1.8127 H   0  0  0  1  0  0  0  0  0  0  0  0
    7.2443   -0.6363   -0.6809 H   0  0  0  1  0  0  0  0  0  0  0  0
    5.5630   -3.0748   -0.0746 H   0  0  0  1  0  0  0  0  0  0  0  0
    4.8140   -1.9594    1.9261 H   0  0  0  1  0  0  0  0  0  0  0  0
    6.0195   -0.7046    1.7640 H   0  0  0  1  0  0  0  0  0  0  0  0
    7.9358   -3.1858    0.1647 H   0  0  0  1  0  0  0  0  0  0  0  0
    7.2143   -3.3247    1.5862 H   0  0  0  1  0  0  0  0  0  0  0  0
  1  2  4  0  0  0  0
  1  6  4  0  0  0  0
  1 18  1  0  0  0  0
  2  3  4  0  0  0  0
  3  4  4  0  0  0  0
  3 25  1  0  0  0  0
  4  5  4  0  0  0  0
  4  7  4  0  0  0  0
  5  6  4  0  0  0  0
  5  9  4  0  0  0  0
  7  8  4  0  0  0  0
  7 26  1  0  0  0  0
  8  9  4  0  0  0  0
  9 10  1  0  0  0  0
 10 11  4  0  0  0  0
 10 15  4  0  0  0  0
 11 12  4  0  0  0  0
 11 27  1  0  0  0  0
 12 13  4  0  0  0  0
 12 28  1  0  0  0  0
 13 14  4  0  0  0  0
 13 16  1  0  0  0  0
 14 15  4  0  0  0  0
 14 29  1  0  0  0  0
 15 30  1  0  0  0  0
 16 17  1  0  0  0  0
 17 31  1  0  0  0  0
 17 32  1  0  0  0  0
 17 33  1  0  0  0  0
 18 19  1  0  0  0  0
 18 34  1  0  0  0  0
 19 20  1  0  0  0  0
 19 23  1  0  0  0  0
 19 35  1  0  0  0  0
 20 21  1  0  0  0  0
 20 36  1  0  0  0  0
 20 37  1  0  0  0  0
 21 22  1  0  0  0  0
 21 38  1  0  0  0  0
 21 39  1  0  0  0  0
 22 23  1  0  0  0  0
 22 24  1  0  0  0  0
 22 40  1  0  0  0  0
 23 41  1  0  0  0  0
 23 42  1  0  0  0  0
 24 43  1  0  0  0  0
 24 44  1  0  0  0  0
M  END
> <ConfClashScore>
0 

> <ConfOneFourInteractionScore>
-0.984337 

> <ConfScore>
-0.0618878 

> <ConfScorePBest>
0.0040997 

> <ConfTolerance>
0.316161 

$$$$
c22.sdf
 OpenBabel04162418103D

 44 47  0  0  0  0  0  0  0  0999 V2000
    1.9453   -0.6102    0.1256 C   0  0  0  1  0  0  0  0  0  0  0  0
    2.0363    0.7233    0.1482 N   0  0  0  1  0  0  0  0  0  0  0  0
    0.8946    1.4375    0.0881 C   0  0  0  1  0  0  0  0  0  0  0  0
   -0.3452    0.7386    0.0096 C   0  0  0  1  0  0  0  0  0  0  0  0
   -0.2528   -0.6478    0.0020 C   0  0  0  1  0  0  0  0  0  0  0  0
    0.8779   -1.3913    0.0539 N   0  0  0  1  0  0  0  0  0  0  0  0
   -1.7304    0.9921   -0.0538 C   0  0  0  1  0  0  0  0  0  0  0  0
   -2.4282   -0.1191   -0.1029 N   0  0  0  1  0  0  0  0  0  0  0  0
   -1.5125   -1.1341   -0.0681 N   0  0  0  1  0  0  0  0  0  0  0  0
   -1.8415   -2.5178   -0.1014 C   0  0  0  1  0  0  0  0  0  0  0  0
   -2.2923   -3.0989    1.0688 C   0  0  0  1  0  0  0  0  0  0  0  0
   -2.5440   -4.4613    1.1137 C   0  0  0  1  0  0  0  0  0  0  0  0
   -2.3391   -5.2395   -0.0100 C   0  0  0  1  0  0  0  0  0  0  0  0
   -1.8870   -4.6566   -1.1835 C   0  0  0  1  0  0  0  0  0  0  0  0
   -1.6360   -3.2982   -1.2285 C   0  0  0  1  0  0  0  0  0  0  0  0
   -2.5448   -6.5760   -0.0845 O   0  0  0  1  0  0  0  0  0  0  0  0
   -2.7809   -7.2733    1.1487 C   0  0  0  1  0  0  0  0  0  0  0  0
    3.1213   -1.2604    0.1849 N   0  0  0  1  0  0  0  0  0  0  0  0
    4.4205   -0.5909    0.3070 C   0  0  0  1  0  0  0  0  0  0  0  0
    5.4441   -1.2428   -0.6297 C   0  0  0  1  0  0  0  0  0  0  0  0
    6.4749   -1.8907    0.2862 C   0  0  0  1  0  0  0  0  0  0  0  0
    6.4714   -1.0229    1.5514 C   0  0  0  1  0  0  0  0  0  0  0  0
    4.9741   -0.7582    1.7309 C   0  0  0  1  0  0  0  0  0  0  0  0
    7.2296    0.2472    1.3448 N   0  0  0  1  0  0  0  0  0  0  0  0
    0.9179    2.4772    0.0988 H   0  0  0  1  0  0  0  0  0  0  0  0
   -2.1490    1.9441   -0.0608 H   0  0  0  1  0  0  0  0  0  0  0  0
   -2.4427   -2.5141    1.9156 H   0  0  0  1  0  0  0  0  0  0  0  0
   -2.8871   -4.8979    1.9931 H   0  0  0  1  0  0  0  0  0  0  0  0
   -1.7367   -5.2414   -2.0303 H   0  0  0  1  0  0  0  0  0  0  0  0
   -1.2930   -2.8615   -2.1078 H   0  0  0  1  0  0  0  0  0  0  0  0
   -1.8988   -7.2384    1.7533 H   0  0  0  1  0  0  0  0  0  0  0  0
   -3.0297   -8.2927    0.9397 H   0  0  0  1  0  0  0  0  0  0  0  0
   -3.5902   -6.8082    1.6719 H   0  0  0  1  0  0  0  0  0  0  0  0
    3.1094   -2.2395    0.1443 H   0  0  0  1  0  0  0  0  0  0  0  0
    4.3108    0.4472    0.0715 H   0  0  0  1  0  0  0  0  0  0  0  0
    4.9725   -1.9812   -1.2440 H   0  0  0  1  0  0  0  0  0  0  0  0
    5.9068   -0.5043   -1.2507 H   0  0  0  1  0  0  0  0  0  0  0  0
    7.4420   -1.8864   -0.1714 H   0  0  0  1  0  0  0  0  0  0  0  0
    6.1940   -2.8968    0.5182 H   0  0  0  1  0  0  0  0  0  0  0  0
    6.8788   -1.5499    2.3887 H   0  0  0  1  0  0  0  0  0  0  0  0
    4.8166    0.1331    2.3016 H   0  0  0  1  0  0  0  0  0  0  0  0
    4.5034   -1.5844    2.2215 H   0  0  0  1  0  0  0  0  0  0  0  0
    6.7987    0.7746    0.6401 H   0  0  0  1  0  0  0  0  0  0  0  0
    8.1497    0.0385    1.0798 H   0  0  0  1  0  0  0  0  0  0  0  0
  1  2  4  0  0  0  0
  1  6  4  0  0  0  0
  1 18  1  0  0  0  0
  2  3  4  0  0  0  0
  3  4  4  0  0  0  0
  3 25  1  0  0  0  0
  4  5  4  0  0  0  0
  4  7  4  0  0  0  0
  5  6  4  0  0  0  0
  5  9  4  0  0  0  0
  7  8  4  0  0  0  0
  7 26  1  0  0  0  0
  8  9  4  0  0  0  0
  9 10  1  0  0  0  0
 10 11  4  0  0  0  0
 10 15  4  0  0  0  0
 11 12  4  0  0  0  0
 11 27  1  0  0  0  0
 12 13  4  0  0  0  0
 12 28  1  0  0  0  0
 13 14  4  0  0  0  0
 13 16  1  0  0  0  0
 14 15  4  0  0  0  0
 14 29  1  0  0  0  0
 15 30  1  0  0  0  0
 16 17  1  0  0  0  0
 17 31  1  0  0  0  0
 17 32  1  0  0  0  0
 17 33  1  0  0  0  0
 18 19  1  0  0  0  0
 18 34  1  0  0  0  0
 19 20  1  0  0  0  0
 19 23  1  0  0  0  0
 19 35  1  0  0  0  0
 20 21  1  0  0  0  0
 20 36  1  0  0  0  0
 20 37  1  0  0  0  0
 21 22  1  0  0  0  0
 21 38  1  0  0  0  0
 21 39  1  0  0  0  0
 22 23  1  0  0  0  0
 22 24  1  0  0  0  0
 22 40  1  0  0  0  0
 23 41  1  0  0  0  0
 23 42  1  0  0  0  0
 24 43  1  0  0  0  0
 24 44  1  0  0  0  0
M  END
> <ConfClashScore>
0 

> <ConfOneFourInteractionScore>
-0.984337 

> <ConfScore>
-0.0616673 

> <ConfScorePBest>
0.00408638 

> <ConfTolerance>
0.306933 

$$$$
c22.sdf
 OpenBabel04162418103D

 44 47  0  0  0  0  0  0  0  0999 V2000
    1.9452   -0.6103    0.1256 C   0  0  0  1  0  0  0  0  0  0  0  0
    2.0363    0.7233    0.1481 N   0  0  0  1  0  0  0  0  0  0  0  0
    0.8946    1.4376    0.0881 C   0  0  0  1  0  0  0  0  0  0  0  0
   -0.3452    0.7386    0.0097 C   0  0  0  1  0  0  0  0  0  0  0  0
   -0.2528   -0.6478    0.0020 C   0  0  0  1  0  0  0  0  0  0  0  0
    0.8779   -1.3913    0.0539 N   0  0  0  1  0  0  0  0  0  0  0  0
   -1.7304    0.9921   -0.0538 C   0  0  0  1  0  0  0  0  0  0  0  0
   -2.4281   -0.1191   -0.1028 N   0  0  0  1  0  0  0  0  0  0  0  0
   -1.5125   -1.1341   -0.0681 N   0  0  0  1  0  0  0  0  0  0  0  0
   -1.8385   -2.5051   -0.1009 C   0  0  0  1  0  0  0  0  0  0  0  0
   -1.0000   -3.3460   -0.8082 C   0  0  0  1  0  0  0  0  0  0  0  0
   -1.2709   -4.7041   -0.8687 C   0  0  0  1  0  0  0  0  0  0  0  0
   -2.3822   -5.2167   -0.2263 C   0  0  0  1  0  0  0  0  0  0  0  0
   -3.2230   -4.3731    0.4830 C   0  0  0  1  0  0  0  0  0  0  0  0
   -2.9531   -3.0190    0.5434 C   0  0  0  1  0  0  0  0  0  0  0  0
   -2.7483   -6.5131   -0.2191 O   0  0  0  1  0  0  0  0  0  0  0  0
   -1.8734   -7.4004   -0.9539 C   0  0  0  1  0  0  0  0  0  0  0  0
    3.1380   -1.2696    0.1858 N   0  0  0  1  0  0  0  0  0  0  0  0
    4.4275   -0.5413    0.2986 C   0  0  0  1  0  0  0  0  0  0  0  0
    5.5727   -1.5217    0.4979 C   0  0  0  1  0  0  0  0  0  0  0  0
    6.1323   -1.3168    1.9151 C   0  0  0  1  0  0  0  0  0  0  0  0
    5.0293   -0.5419    2.6147 C   0  0  0  1  0  0  0  0  0  0  0  0
    4.4242    0.3637    1.5455 C   0  0  0  1  0  0  0  0  0  0  0  0
    5.5935    0.2751    3.7327 N   0  0  0  1  0  0  0  0  0  0  0  0
    0.9179    2.4772    0.0988 H   0  0  0  1  0  0  0  0  0  0  0  0
   -2.1490    1.9440   -0.0607 H   0  0  0  1  0  0  0  0  0  0  0  0
   -0.1661   -2.9598   -1.2950 H   0  0  0  1  0  0  0  0  0  0  0  0
   -0.6378   -5.3375   -1.3975 H   0  0  0  1  0  0  0  0  0  0  0  0
   -4.0570   -4.7593    0.9698 H   0  0  0  1  0  0  0  0  0  0  0  0
   -3.5862   -2.3856    1.0722 H   0  0  0  1  0  0  0  0  0  0  0  0
   -0.8663   -7.2685   -0.6171 H   0  0  0  1  0  0  0  0  0  0  0  0
   -1.9323   -7.1748   -1.9982 H   0  0  0  1  0  0  0  0  0  0  0  0
   -2.1741   -8.4140   -0.7897 H   0  0  0  1  0  0  0  0  0  0  0  0
    3.1441   -2.2490    0.1537 H   0  0  0  1  0  0  0  0  0  0  0  0
    4.5866    0.0422   -0.5841 H   0  0  0  1  0  0  0  0  0  0  0  0
    6.3391   -1.3364   -0.2254 H   0  0  0  1  0  0  0  0  0  0  0  0
    5.2150   -2.5244    0.3903 H   0  0  0  1  0  0  0  0  0  0  0  0
    6.3073   -2.2555    2.3979 H   0  0  0  1  0  0  0  0  0  0  0  0
    7.0414   -0.7528    1.8909 H   0  0  0  1  0  0  0  0  0  0  0  0
    4.2890   -1.2115    3.0000 H   0  0  0  1  0  0  0  0  0  0  0  0
    5.0257    1.2352    1.3917 H   0  0  0  1  0  0  0  0  0  0  0  0
    3.4292    0.6580    1.8066 H   0  0  0  1  0  0  0  0  0  0  0  0
    6.2321    0.9255    3.3726 H   0  0  0  1  0  0  0  0  0  0  0  0
    6.0510   -0.3137    4.3687 H   0  0  0  1  0  0  0  0  0  0  0  0
  1  2  4  0  0  0  0
  1  6  4  0  0  0  0
  1 18  1  0  0  0  0
  2  3  4  0  0  0  0
  3  4  4  0  0  0  0
  3 25  1  0  0  0  0
  4  5  4  0  0  0  0
  4  7  4  0  0  0  0
  5  6  4  0  0  0  0
  5  9  4  0  0  0  0
  7  8  4  0  0  0  0
  7 26  1  0  0  0  0
  8  9  4  0  0  0  0
  9 10  1  0  0  0  0
 10 11  4  0  0  0  0
 10 15  4  0  0  0  0
 11 12  4  0  0  0  0
 11 27  1  0  0  0  0
 12 13  4  0  0  0  0
 12 28  1  0  0  0  0
 13 14  4  0  0  0  0
 13 16  1  0  0  0  0
 14 15  4  0  0  0  0
 14 29  1  0  0  0  0
 15 30  1  0  0  0  0
 16 17  1  0  0  0  0
 17 31  1  0  0  0  0
 17 32  1  0  0  0  0
 17 33  1  0  0  0  0
 18 19  1  0  0  0  0
 18 34  1  0  0  0  0
 19 20  1  0  0  0  0
 19 23  1  0  0  0  0
 19 35  1  0  0  0  0
 20 21  1  0  0  0  0
 20 36  1  0  0  0  0
 20 37  1  0  0  0  0
 21 22  1  0  0  0  0
 21 38  1  0  0  0  0
 21 39  1  0  0  0  0
 22 23  1  0  0  0  0
 22 24  1  0  0  0  0
 22 40  1  0  0  0  0
 23 41  1  0  0  0  0
 23 42  1  0  0  0  0
 24 43  1  0  0  0  0
 24 44  1  0  0  0  0
M  END
> <ConfClashScore>
0 

> <ConfOneFourInteractionScore>
-0.985399 

> <ConfScore>
-0.0612785 

> <ConfScorePBest>
0.00407305 

> <ConfTolerance>
0.297341 

$$$$
c22.sdf
 OpenBabel04162418103D

 44 47  0  0  0  0  0  0  0  0999 V2000
    1.9452   -0.6103    0.1255 C   0  0  0  1  0  0  0  0  0  0  0  0
    2.0363    0.7233    0.1482 N   0  0  0  1  0  0  0  0  0  0  0  0
    0.8946    1.4376    0.0881 C   0  0  0  1  0  0  0  0  0  0  0  0
   -0.3453    0.7387    0.0096 C   0  0  0  1  0  0  0  0  0  0  0  0
   -0.2529   -0.6477    0.0020 C   0  0  0  1  0  0  0  0  0  0  0  0
    0.8779   -1.3913    0.0539 N   0  0  0  1  0  0  0  0  0  0  0  0
   -1.7303    0.9921   -0.0538 C   0  0  0  1  0  0  0  0  0  0  0  0
   -2.4282   -0.1190   -0.1029 N   0  0  0  1  0  0  0  0  0  0  0  0
   -1.5125   -1.1342   -0.0681 N   0  0  0  1  0  0  0  0  0  0  0  0
   -1.8397   -2.5098   -0.1011 C   0  0  0  1  0  0  0  0  0  0  0  0
   -1.7077   -3.2790    1.0395 C   0  0  0  1  0  0  0  0  0  0  0  0
   -2.0334   -4.6260    1.0085 C   0  0  0  1  0  0  0  0  0  0  0  0
   -2.4850   -5.2011   -0.1643 C   0  0  0  1  0  0  0  0  0  0  0  0
   -2.6173   -4.4295   -1.3083 C   0  0  0  1  0  0  0  0  0  0  0  0
   -2.2927   -3.0864   -1.2775 C   0  0  0  1  0  0  0  0  0  0  0  0
   -2.8147   -6.5110   -0.2628 O   0  0  0  1  0  0  0  0  0  0  0  0
   -3.5540   -6.9159   -1.4256 C   0  0  0  1  0  0  0  0  0  0  0  0
    3.1545   -1.2788    0.1866 N   0  0  0  1  0  0  0  0  0  0  0  0
    4.3795   -0.4807    0.1476 C   0  0  0  1  0  0  0  0  0  0  0  0
    5.6012   -1.3442   -0.1920 C   0  0  0  1  0  0  0  0  0  0  0  0
    5.9324   -2.0722    1.1049 C   0  0  0  1  0  0  0  0  0  0  0  0
    5.4708   -1.1347    2.2268 C   0  0  0  1  0  0  0  0  0  0  0  0
    4.7543    0.0380    1.5385 C   0  0  0  1  0  0  0  0  0  0  0  0
    6.6368   -0.6429    2.9972 N   0  0  0  1  0  0  0  0  0  0  0  0
    0.9179    2.4772    0.0988 H   0  0  0  1  0  0  0  0  0  0  0  0
   -2.1490    1.9441   -0.0608 H   0  0  0  1  0  0  0  0  0  0  0  0
   -1.3641   -2.8472    1.9211 H   0  0  0  1  0  0  0  0  0  0  0  0
   -1.9379   -5.2039    1.8678 H   0  0  0  1  0  0  0  0  0  0  0  0
   -2.9610   -4.8613   -2.1898 H   0  0  0  1  0  0  0  0  0  0  0  0
   -2.3881   -2.5085   -2.1369 H   0  0  0  1  0  0  0  0  0  0  0  0
   -4.2744   -6.1636   -1.6707 H   0  0  0  1  0  0  0  0  0  0  0  0
   -4.0567   -7.8388   -1.2248 H   0  0  0  1  0  0  0  0  0  0  0  0
   -2.8817   -7.0468   -2.2476 H   0  0  0  1  0  0  0  0  0  0  0  0
    3.1893   -2.2558    0.2538 H   0  0  0  1  0  0  0  0  0  0  0  0
    4.2610    0.3216   -0.5504 H   0  0  0  1  0  0  0  0  0  0  0  0
    5.3655   -2.0430   -0.9672 H   0  0  0  1  0  0  0  0  0  0  0  0
    6.4222   -0.7314   -0.5009 H   0  0  0  1  0  0  0  0  0  0  0  0
    6.9851   -2.2506    1.1757 H   0  0  0  1  0  0  0  0  0  0  0  0
    5.4082   -3.0034    1.1559 H   0  0  0  1  0  0  0  0  0  0  0  0
    4.7984   -1.6457    2.8837 H   0  0  0  1  0  0  0  0  0  0  0  0
    5.4070    0.8823    1.4606 H   0  0  0  1  0  0  0  0  0  0  0  0
    3.8769    0.3141    2.0849 H   0  0  0  1  0  0  0  0  0  0  0  0
    7.2010   -0.0884    2.4186 H   0  0  0  1  0  0  0  0  0  0  0  0
    7.1566   -1.4061    3.3255 H   0  0  0  1  0  0  0  0  0  0  0  0
  1  2  4  0  0  0  0
  1  6  4  0  0  0  0
  1 18  1  0  0  0  0
  2  3  4  0  0  0  0
  3  4  4  0  0  0  0
  3 25  1  0  0  0  0
  4  5  4  0  0  0  0
  4  7  4  0  0  0  0
  5  6  4  0  0  0  0
  5  9  4  0  0  0  0
  7  8  4  0  0  0  0
  7 26  1  0  0  0  0
  8  9  4  0  0  0  0
  9 10  1  0  0  0  0
 10 11  4  0  0  0  0
 10 15  4  0  0  0  0
 11 12  4  0  0  0  0
 11 27  1  0  0  0  0
 12 13  4  0  0  0  0
 12 28  1  0  0  0  0
 13 14  4  0  0  0  0
 13 16  1  0  0  0  0
 14 15  4  0  0  0  0
 14 29  1  0  0  0  0
 15 30  1  0  0  0  0
 16 17  1  0  0  0  0
 17 31  1  0  0  0  0
 17 32  1  0  0  0  0
 17 33  1  0  0  0  0
 18 19  1  0  0  0  0
 18 34  1  0  0  0  0
 19 20  1  0  0  0  0
 19 23  1  0  0  0  0
 19 35  1  0  0  0  0
 20 21  1  0  0  0  0
 20 36  1  0  0  0  0
 20 37  1  0  0  0  0
 21 22  1  0  0  0  0
 21 38  1  0  0  0  0
 21 39  1  0  0  0  0
 22 23  1  0  0  0  0
 22 24  1  0  0  0  0
 22 40  1  0  0  0  0
 23 41  1  0  0  0  0
 23 42  1  0  0  0  0
 24 43  1  0  0  0  0
 24 44  1  0  0  0  0
M  END
> <ConfClashScore>
0 

> <ConfOneFourInteractionScore>
-0.984337 

> <ConfScore>
-0.0610598 

> <ConfScorePBest>
0.00405972 

> <ConfTolerance>
0.272282 

$$$$
c22.sdf
 OpenBabel04162418103D

 44 47  0  0  0  0  0  0  0  0999 V2000
    1.9453   -0.6102    0.1255 C   0  0  0  1  0  0  0  0  0  0  0  0
    2.0364    0.7234    0.1481 N   0  0  0  1  0  0  0  0  0  0  0  0
    0.8946    1.4376    0.0881 C   0  0  0  1  0  0  0  0  0  0  0  0
   -0.3452    0.7386    0.0096 C   0  0  0  1  0  0  0  0  0  0  0  0
   -0.2527   -0.6478    0.0020 C   0  0  0  1  0  0  0  0  0  0  0  0
    0.8780   -1.3912    0.0538 N   0  0  0  1  0  0  0  0  0  0  0  0
   -1.7303    0.9921   -0.0538 C   0  0  0  1  0  0  0  0  0  0  0  0
   -2.4281   -0.1191   -0.1029 N   0  0  0  1  0  0  0  0  0  0  0  0
   -1.5125   -1.1342   -0.0681 N   0  0  0  1  0  0  0  0  0  0  0  0
   -1.8396   -2.5099   -0.1011 C   0  0  0  1  0  0  0  0  0  0  0  0
   -3.0418   -2.9470    0.4222 C   0  0  0  1  0  0  0  0  0  0  0  0
   -3.3646   -4.2945    0.3849 C   0  0  0  1  0  0  0  0  0  0  0  0
   -2.4821   -5.2017   -0.1706 C   0  0  0  1  0  0  0  0  0  0  0  0
   -1.2764   -4.7631   -0.6953 C   0  0  0  1  0  0  0  0  0  0  0  0
   -0.9543   -3.4195   -0.6582 C   0  0  0  1  0  0  0  0  0  0  0  0
   -2.8392   -6.5029   -0.2864 O   0  0  0  1  0  0  0  0  0  0  0  0
   -4.0578   -6.9087    0.3561 C   0  0  0  1  0  0  0  0  0  0  0  0
    3.1148   -1.2569    0.1845 N   0  0  0  1  0  0  0  0  0  0  0  0
    3.3037   -2.7058    0.3083 C   0  0  0  1  0  0  0  0  0  0  0  0
    2.6646   -3.2160    1.6051 C   0  0  0  1  0  0  0  0  0  0  0  0
    3.8263   -3.6926    2.4680 C   0  0  0  1  0  0  0  0  0  0  0  0
    4.8965   -4.1431    1.4652 C   0  0  0  1  0  0  0  0  0  0  0  0
    4.8003   -3.0412    0.4066 C   0  0  0  1  0  0  0  0  0  0  0  0
    4.5804   -5.4647    0.8974 N   0  0  0  1  0  0  0  0  0  0  0  0
    0.9180    2.4773    0.0988 H   0  0  0  1  0  0  0  0  0  0  0  0
   -2.1490    1.9441   -0.0608 H   0  0  0  1  0  0  0  0  0  0  0  0
   -3.7041   -2.2650    0.8438 H   0  0  0  1  0  0  0  0  0  0  0  0
   -4.2711   -4.6229    0.7751 H   0  0  0  1  0  0  0  0  0  0  0  0
   -0.6140   -5.4452   -1.1169 H   0  0  0  1  0  0  0  0  0  0  0  0
   -0.0480   -3.0910   -1.0483 H   0  0  0  1  0  0  0  0  0  0  0  0
   -4.8454   -6.2373    0.0845 H   0  0  0  1  0  0  0  0  0  0  0  0
   -3.9242   -6.8906    1.4176 H   0  0  0  1  0  0  0  0  0  0  0  0
   -4.3116   -7.9005    0.0449 H   0  0  0  1  0  0  0  0  0  0  0  0
    3.9255   -0.7079    0.1407 H   0  0  0  1  0  0  0  0  0  0  0  0
    2.8686   -3.1963   -0.5373 H   0  0  0  1  0  0  0  0  0  0  0  0
    1.9947   -4.0245    1.3994 H   0  0  0  1  0  0  0  0  0  0  0  0
    2.1328   -2.4275    2.0957 H   0  0  0  1  0  0  0  0  0  0  0  0
    4.1942   -2.8952    3.0794 H   0  0  0  1  0  0  0  0  0  0  0  0
    3.5243   -4.5093    3.0897 H   0  0  0  1  0  0  0  0  0  0  0  0
    5.8672   -4.1704    1.9146 H   0  0  0  1  0  0  0  0  0  0  0  0
    5.3585   -2.1801    0.7098 H   0  0  0  1  0  0  0  0  0  0  0  0
    5.1685   -3.3923   -0.5347 H   0  0  0  1  0  0  0  0  0  0  0  0
    5.1748   -5.6459    0.1396 H   0  0  0  1  0  0  0  0  0  0  0  0
    3.6494   -5.4743    0.5915 H   0  0  0  1  0  0  0  0  0  0  0  0
  1  2  4  0  0  0  0
  1  6  4  0  0  0  0
  1 18  1  0  0  0  0
  2  3  4  0  0  0  0
  3  4  4  0  0  0  0
  3 25  1  0  0  0  0
  4  5  4  0  0  0  0
  4  7  4  0  0  0  0
  5  6  4  0  0  0  0
  5  9  4  0  0  0  0
  7  8  4  0  0  0  0
  7 26  1  0  0  0  0
  8  9  4  0  0  0  0
  9 10  1  0  0  0  0
 10 11  4  0  0  0  0
 10 15  4  0  0  0  0
 11 12  4  0  0  0  0
 11 27  1  0  0  0  0
 12 13  4  0  0  0  0
 12 28  1  0  0  0  0
 13 14  4  0  0  0  0
 13 16  1  0  0  0  0
 14 15  4  0  0  0  0
 14 29  1  0  0  0  0
 15 30  1  0  0  0  0
 16 17  1  0  0  0  0
 17 31  1  0  0  0  0
 17 32  1  0  0  0  0
 17 33  1  0  0  0  0
 18 19  1  0  0  0  0
 18 34  1  0  0  0  0
 19 20  1  0  0  0  0
 19 23  1  0  0  0  0
 19 35  1  0  0  0  0
 20 21  1  0  0  0  0
 20 36  1  0  0  0  0
 20 37  1  0  0  0  0
 21 22  1  0  0  0  0
 21 38  1  0  0  0  0
 21 39  1  0  0  0  0
 22 23  1  0  0  0  0
 22 24  1  0  0  0  0
 22 40  1  0  0  0  0
 23 41  1  0  0  0  0
 23 42  1  0  0  0  0
 24 43  1  0  0  0  0
 24 44  1  0  0  0  0
M  END
> <ConfClashScore>
0 

> <ConfOneFourInteractionScore>
-0.985399 

> <ConfScore>
-0.0608833 

> <ConfScorePBest>
0.00404639 

> <ConfTolerance>
0.318194 

$$$$
c22.sdf
 OpenBabel04162418103D

 44 47  0  0  0  0  0  0  0  0999 V2000
    1.9452   -0.6101    0.1255 C   0  0  0  1  0  0  0  0  0  0  0  0
    2.0363    0.7234    0.1481 N   0  0  0  1  0  0  0  0  0  0  0  0
    0.8946    1.4375    0.0881 C   0  0  0  1  0  0  0  0  0  0  0  0
   -0.3452    0.7386    0.0096 C   0  0  0  1  0  0  0  0  0  0  0  0
   -0.2528   -0.6478    0.0019 C   0  0  0  1  0  0  0  0  0  0  0  0
    0.8780   -1.3912    0.0538 N   0  0  0  1  0  0  0  0  0  0  0  0
   -1.7304    0.9921   -0.0538 C   0  0  0  1  0  0  0  0  0  0  0  0
   -2.4281   -0.1191   -0.1029 N   0  0  0  1  0  0  0  0  0  0  0  0
   -1.5125   -1.1341   -0.0681 N   0  0  0  1  0  0  0  0  0  0  0  0
   -1.8415   -2.5178   -0.1014 C   0  0  0  1  0  0  0  0  0  0  0  0
   -0.9244   -3.4348   -0.5791 C   0  0  0  1  0  0  0  0  0  0  0  0
   -1.2430   -4.7836   -0.6065 C   0  0  0  1  0  0  0  0  0  0  0  0
   -2.4796   -5.2110   -0.1610 C   0  0  0  1  0  0  0  0  0  0  0  0
   -3.3994   -4.2911    0.3181 C   0  0  0  1  0  0  0  0  0  0  0  0
   -3.0818   -2.9462    0.3454 C   0  0  0  1  0  0  0  0  0  0  0  0
   -2.7911   -6.5213   -0.1926 O   0  0  0  1  0  0  0  0  0  0  0  0
   -4.1662   -6.8316    0.1322 C   0  0  0  1  0  0  0  0  0  0  0  0
    3.1380   -1.2695    0.1857 N   0  0  0  1  0  0  0  0  0  0  0  0
    3.2061   -2.7274    0.2982 C   0  0  0  1  0  0  0  0  0  0  0  0
    2.4346   -3.1966    1.5335 C   0  0  0  1  0  0  0  0  0  0  0  0
    3.4794   -3.7340    2.5019 C   0  0  0  1  0  0  0  0  0  0  0  0
    4.8164   -3.1548    2.0600 C   0  0  0  1  0  0  0  0  0  0  0  0
    4.6881   -3.1830    0.4911 C   0  0  0  1  0  0  0  0  0  0  0  0
    5.9536   -4.0023    2.5254 N   0  0  0  1  0  0  0  0  0  0  0  0
    0.9179    2.4773    0.0988 H   0  0  0  1  0  0  0  0  0  0  0  0
   -2.1490    1.9441   -0.0607 H   0  0  0  1  0  0  0  0  0  0  0  0
    0.0046   -3.1129   -0.9181 H   0  0  0  1  0  0  0  0  0  0  0  0
   -0.5514   -5.4741   -0.9623 H   0  0  0  1  0  0  0  0  0  0  0  0
   -4.3284   -4.6130    0.6570 H   0  0  0  1  0  0  0  0  0  0  0  0
   -3.7734   -2.2557    0.7012 H   0  0  0  1  0  0  0  0  0  0  0  0
   -4.3385   -7.8784   -0.0066 H   0  0  0  1  0  0  0  0  0  0  0  0
   -4.8180   -6.2750   -0.5084 H   0  0  0  1  0  0  0  0  0  0  0  0
   -4.3592   -6.5707    1.1517 H   0  0  0  1  0  0  0  0  0  0  0  0
    3.9707   -0.7539    0.1526 H   0  0  0  1  0  0  0  0  0  0  0  0
    2.7955   -3.1733   -0.5836 H   0  0  0  1  0  0  0  0  0  0  0  0
    1.7421   -3.9679    1.2683 H   0  0  0  1  0  0  0  0  0  0  0  0
    1.9055   -2.3777    1.9745 H   0  0  0  1  0  0  0  0  0  0  0  0
    3.2533   -3.4220    3.5001 H   0  0  0  1  0  0  0  0  0  0  0  0
    3.5075   -4.8027    2.4594 H   0  0  0  1  0  0  0  0  0  0  0  0
    4.9446   -2.1556    2.4208 H   0  0  0  1  0  0  0  0  0  0  0  0
    4.8492   -4.1670    0.1025 H   0  0  0  1  0  0  0  0  0  0  0  0
    5.3711   -2.5006    0.0298 H   0  0  0  1  0  0  0  0  0  0  0  0
    6.7788   -3.7145    2.0821 H   0  0  0  1  0  0  0  0  0  0  0  0
    5.7740   -4.9398    2.3040 H   0  0  0  1  0  0  0  0  0  0  0  0
  1  2  4  0  0  0  0
  1  6  4  0  0  0  0
  1 18  1  0  0  0  0
  2  3  4  0  0  0  0
  3  4  4  0  0  0  0
  3 25  1  0  0  0  0
  4  5  4  0  0  0  0
  4  7  4  0  0  0  0
  5  6  4  0  0  0  0
  5  9  4  0  0  0  0
  7  8  4  0  0  0  0
  7 26  1  0  0  0  0
  8  9  4  0  0  0  0
  9 10  1  0  0  0  0
 10 11  4  0  0  0  0
 10 15  4  0  0  0  0
 11 12  4  0  0  0  0
 11 27  1  0  0  0  0
 12 13  4  0  0  0  0
 12 28  1  0  0  0  0
 13 14  4  0  0  0  0
 13 16  1  0  0  0  0
 14 15  4  0  0  0  0
 14 29  1  0  0  0  0
 15 30  1  0  0  0  0
 16 17  1  0  0  0  0
 17 31  1  0  0  0  0
 17 32  1  0  0  0  0
 17 33  1  0  0  0  0
 18 19  1  0  0  0  0
 18 34  1  0  0  0  0
 19 20  1  0  0  0  0
 19 23  1  0  0  0  0
 19 35  1  0  0  0  0
 20 21  1  0  0  0  0
 20 36  1  0  0  0  0
 20 37  1  0  0  0  0
 21 22  1  0  0  0  0
 21 38  1  0  0  0  0
 21 39  1  0  0  0  0
 22 23  1  0  0  0  0
 22 24  1  0  0  0  0
 22 40  1  0  0  0  0
 23 41  1  0  0  0  0
 23 42  1  0  0  0  0
 24 43  1  0  0  0  0
 24 44  1  0  0  0  0
M  END
> <ConfClashScore>
0 

> <ConfOneFourInteractionScore>
-0.985399 

> <ConfScore>
-0.0608833 

> <ConfScorePBest>
0.00403306 

> <ConfTolerance>
0.223773 

$$$$
c22.sdf
 OpenBabel04162418103D

 44 47  0  0  0  0  0  0  0  0999 V2000
    1.9452   -0.6101    0.1255 C   0  0  0  1  0  0  0  0  0  0  0  0
    2.0363    0.7234    0.1481 N   0  0  0  1  0  0  0  0  0  0  0  0
    0.8946    1.4376    0.0881 C   0  0  0  1  0  0  0  0  0  0  0  0
   -0.3453    0.7386    0.0096 C   0  0  0  1  0  0  0  0  0  0  0  0
   -0.2528   -0.6477    0.0020 C   0  0  0  1  0  0  0  0  0  0  0  0
    0.8780   -1.3912    0.0538 N   0  0  0  1  0  0  0  0  0  0  0  0
   -1.7303    0.9921   -0.0538 C   0  0  0  1  0  0  0  0  0  0  0  0
   -2.4281   -0.1191   -0.1028 N   0  0  0  1  0  0  0  0  0  0  0  0
   -1.5126   -1.1342   -0.0681 N   0  0  0  1  0  0  0  0  0  0  0  0
   -1.8385   -2.5051   -0.1010 C   0  0  0  1  0  0  0  0  0  0  0  0
   -1.1043   -3.3179   -0.9438 C   0  0  0  1  0  0  0  0  0  0  0  0
   -1.3794   -4.6747   -1.0112 C   0  0  0  1  0  0  0  0  0  0  0  0
   -2.3914   -5.2141   -0.2396 C   0  0  0  1  0  0  0  0  0  0  0  0
   -3.1277   -4.3987    0.6057 C   0  0  0  1  0  0  0  0  0  0  0  0
   -2.8535   -3.0457    0.6730 C   0  0  0  1  0  0  0  0  0  0  0  0
   -2.6121   -6.5417   -0.3558 O   0  0  0  1  0  0  0  0  0  0  0  0
   -3.7752   -7.1213    0.2555 C   0  0  0  1  0  0  0  0  0  0  0  0
    3.1213   -1.2604    0.1848 N   0  0  0  1  0  0  0  0  0  0  0  0
    3.3157   -2.7106    0.1486 C   0  0  0  1  0  0  0  0  0  0  0  0
    4.4641   -3.1212    1.0777 C   0  0  0  1  0  0  0  0  0  0  0  0
    5.5809   -3.6577    0.1685 C   0  0  0  1  0  0  0  0  0  0  0  0
    5.2762   -3.0897   -1.2202 C   0  0  0  1  0  0  0  0  0  0  0  0
    3.7437   -3.1565   -1.2440 C   0  0  0  1  0  0  0  0  0  0  0  0
    5.8793   -3.9350   -2.3034 N   0  0  0  1  0  0  0  0  0  0  0  0
    0.9179    2.4773    0.0988 H   0  0  0  1  0  0  0  0  0  0  0  0
   -2.1490    1.9441   -0.0608 H   0  0  0  1  0  0  0  0  0  0  0  0
   -0.3455   -2.9115   -1.5275 H   0  0  0  1  0  0  0  0  0  0  0  0
   -0.8243   -5.2871   -1.6425 H   0  0  0  1  0  0  0  0  0  0  0  0
   -3.8866   -4.8051    1.1893 H   0  0  0  1  0  0  0  0  0  0  0  0
   -3.4086   -2.4333    1.3043 H   0  0  0  1  0  0  0  0  0  0  0  0
   -4.6547   -6.7566   -0.2329 H   0  0  0  1  0  0  0  0  0  0  0  0
   -3.8051   -6.8527    1.2908 H   0  0  0  1  0  0  0  0  0  0  0  0
   -3.7327   -8.1866    0.1640 H   0  0  0  1  0  0  0  0  0  0  0  0
    3.9278   -0.7085    0.2596 H   0  0  0  1  0  0  0  0  0  0  0  0
    2.4085   -3.1999    0.4360 H   0  0  0  1  0  0  0  0  0  0  0  0
    4.1388   -3.8835    1.7546 H   0  0  0  1  0  0  0  0  0  0  0  0
    4.8122   -2.2754    1.6330 H   0  0  0  1  0  0  0  0  0  0  0  0
    5.5662   -4.7274    0.1477 H   0  0  0  1  0  0  0  0  0  0  0  0
    6.5371   -3.3203    0.5102 H   0  0  0  1  0  0  0  0  0  0  0  0
    5.6256   -2.0830   -1.3166 H   0  0  0  1  0  0  0  0  0  0  0  0
    3.4126   -4.1552   -1.4388 H   0  0  0  1  0  0  0  0  0  0  0  0
    3.3489   -2.4976   -1.9890 H   0  0  0  1  0  0  0  0  0  0  0  0
    6.8362   -4.0558   -2.1296 H   0  0  0  1  0  0  0  0  0  0  0  0
    5.7582   -3.4917   -3.1690 H   0  0  0  1  0  0  0  0  0  0  0  0
  1  2  4  0  0  0  0
  1  6  4  0  0  0  0
  1 18  1  0  0  0  0
  2  3  4  0  0  0  0
  3  4  4  0  0  0  0
  3 25  1  0  0  0  0
  4  5  4  0  0  0  0
  4  7  4  0  0  0  0
  5  6  4  0  0  0  0
  5  9  4  0  0  0  0
  7  8  4  0  0  0  0
  7 26  1  0  0  0  0
  8  9  4  0  0  0  0
  9 10  1  0  0  0  0
 10 11  4  0  0  0  0
 10 15  4  0  0  0  0
 11 12  4  0  0  0  0
 11 27  1  0  0  0  0
 12 13  4  0  0  0  0
 12 28  1  0  0  0  0
 13 14  4  0  0  0  0
 13 16  1  0  0  0  0
 14 15  4  0  0  0  0
 14 29  1  0  0  0  0
 15 30  1  0  0  0  0
 16 17  1  0  0  0  0
 17 31  1  0  0  0  0
 17 32  1  0  0  0  0
 17 33  1  0  0  0  0
 18 19  1  0  0  0  0
 18 34  1  0  0  0  0
 19 20  1  0  0  0  0
 19 23  1  0  0  0  0
 19 35  1  0  0  0  0
 20 21  1  0  0  0  0
 20 36  1  0  0  0  0
 20 37  1  0  0  0  0
 21 22  1  0  0  0  0
 21 38  1  0  0  0  0
 21 39  1  0  0  0  0
 22 23  1  0  0  0  0
 22 24  1  0  0  0  0
 22 40  1  0  0  0  0
 23 41  1  0  0  0  0
 23 42  1  0  0  0  0
 24 43  1  0  0  0  0
 24 44  1  0  0  0  0
M  END
> <ConfClashScore>
0 

> <ConfOneFourInteractionScore>
-0.984337 

> <ConfScore>
-0.0595693 

> <ConfScorePBest>
0.00401973 

> <ConfTolerance>
0.264762 

$$$$
c22.sdf
 OpenBabel04162418103D

 44 47  0  0  0  0  0  0  0  0999 V2000
    1.9453   -0.6102    0.1256 C   0  0  0  1  0  0  0  0  0  0  0  0
    2.0363    0.7233    0.1482 N   0  0  0  1  0  0  0  0  0  0  0  0
    0.8946    1.4376    0.0881 C   0  0  0  1  0  0  0  0  0  0  0  0
   -0.3453    0.7386    0.0096 C   0  0  0  1  0  0  0  0  0  0  0  0
   -0.2528   -0.6478    0.0020 C   0  0  0  1  0  0  0  0  0  0  0  0
    0.8779   -1.3913    0.0540 N   0  0  0  1  0  0  0  0  0  0  0  0
   -1.7303    0.9921   -0.0538 C   0  0  0  1  0  0  0  0  0  0  0  0
   -2.4282   -0.1191   -0.1029 N   0  0  0  1  0  0  0  0  0  0  0  0
   -1.5126   -1.1342   -0.0681 N   0  0  0  1  0  0  0  0  0  0  0  0
   -1.8397   -2.5099   -0.1011 C   0  0  0  1  0  0  0  0  0  0  0  0
   -1.4002   -3.3489    0.9055 C   0  0  0  1  0  0  0  0  0  0  0  0
   -1.7253   -4.6960    0.8759 C   0  0  0  1  0  0  0  0  0  0  0  0
   -2.4844   -5.2014   -0.1627 C   0  0  0  1  0  0  0  0  0  0  0  0
   -2.9250   -4.3597   -1.1722 C   0  0  0  1  0  0  0  0  0  0  0  0
   -2.6009   -3.0164   -1.1429 C   0  0  0  1  0  0  0  0  0  0  0  0
   -2.7181   -6.5326   -0.2470 O   0  0  0  1  0  0  0  0  0  0  0  0
   -2.1362   -7.3664    0.7674 C   0  0  0  1  0  0  0  0  0  0  0  0
    3.1380   -1.2697    0.1859 N   0  0  0  1  0  0  0  0  0  0  0  0
    3.2054   -2.7116    0.3452 C   0  0  0  1  0  0  0  0  0  0  0  0
    2.8823   -3.1329    1.7846 C   0  0  0  1  0  0  0  0  0  0  0  0
    4.1525   -2.8312    2.5700 C   0  0  0  1  0  0  0  0  0  0  0  0
    5.2989   -2.9843    1.5636 C   0  0  0  1  0  0  0  0  0  0  0  0
    4.6402   -3.2249    0.1961 C   0  0  0  1  0  0  0  0  0  0  0  0
    6.1491   -4.1300    1.9291 N   0  0  0  1  0  0  0  0  0  0  0  0
    0.9179    2.4773    0.0987 H   0  0  0  1  0  0  0  0  0  0  0  0
   -2.1490    1.9440   -0.0609 H   0  0  0  1  0  0  0  0  0  0  0  0
   -0.8257   -2.9696    1.6850 H   0  0  0  1  0  0  0  0  0  0  0  0
   -1.3981   -5.3267    1.6354 H   0  0  0  1  0  0  0  0  0  0  0  0
   -3.4996   -4.7391   -1.9517 H   0  0  0  1  0  0  0  0  0  0  0  0
   -2.9283   -2.3858   -1.9024 H   0  0  0  1  0  0  0  0  0  0  0  0
   -1.0791   -7.4290    0.6152 H   0  0  0  1  0  0  0  0  0  0  0  0
   -2.5630   -8.3460    0.7115 H   0  0  0  1  0  0  0  0  0  0  0  0
   -2.3333   -6.9453    1.7311 H   0  0  0  1  0  0  0  0  0  0  0  0
    3.9706   -0.7571    0.1199 H   0  0  0  1  0  0  0  0  0  0  0  0
    2.5474   -3.1797   -0.3567 H   0  0  0  1  0  0  0  0  0  0  0  0
    2.6501   -4.1764    1.8291 H   0  0  0  1  0  0  0  0  0  0  0  0
    2.0587   -2.5671    2.1674 H   0  0  0  1  0  0  0  0  0  0  0  0
    4.1251   -1.8341    2.9573 H   0  0  0  1  0  0  0  0  0  0  0  0
    4.2674   -3.5246    3.3767 H   0  0  0  1  0  0  0  0  0  0  0  0
    5.8913   -2.0937    1.5382 H   0  0  0  1  0  0  0  0  0  0  0  0
    4.6424   -4.2679   -0.0430 H   0  0  0  1  0  0  0  0  0  0  0  0
    5.1551   -2.6821   -0.5689 H   0  0  0  1  0  0  0  0  0  0  0  0
    6.5449   -3.9751    2.8122 H   0  0  0  1  0  0  0  0  0  0  0  0
    6.8625   -4.2321    1.2650 H   0  0  0  1  0  0  0  0  0  0  0  0
  1  2  4  0  0  0  0
  1  6  4  0  0  0  0
  1 18  1  0  0  0  0
  2  3  4  0  0  0  0
  3  4  4  0  0  0  0
  3 25  1  0  0  0  0
  4  5  4  0  0  0  0
  4  7  4  0  0  0  0
  5  6  4  0  0  0  0
  5  9  4  0  0  0  0
  7  8  4  0  0  0  0
  7 26  1  0  0  0  0
  8  9  4  0  0  0  0
  9 10  1  0  0  0  0
 10 11  4  0  0  0  0
 10 15  4  0  0  0  0
 11 12  4  0  0  0  0
 11 27  1  0  0  0  0
 12 13  4  0  0  0  0
 12 28  1  0  0  0  0
 13 14  4  0  0  0  0
 13 16  1  0  0  0  0
 14 15  4  0  0  0  0
 14 29  1  0  0  0  0
 15 30  1  0  0  0  0
 16 17  1  0  0  0  0
 17 31  1  0  0  0  0
 17 32  1  0  0  0  0
 17 33  1  0  0  0  0
 18 19  1  0  0  0  0
 18 34  1  0  0  0  0
 19 20  1  0  0  0  0
 19 23  1  0  0  0  0
 19 35  1  0  0  0  0
 20 21  1  0  0  0  0
 20 36  1  0  0  0  0
 20 37  1  0  0  0  0
 21 22  1  0  0  0  0
 21 38  1  0  0  0  0
 21 39  1  0  0  0  0
 22 23  1  0  0  0  0
 22 24  1  0  0  0  0
 22 40  1  0  0  0  0
 23 41  1  0  0  0  0
 23 42  1  0  0  0  0
 24 43  1  0  0  0  0
 24 44  1  0  0  0  0
M  END
> <ConfClashScore>
0 

> <ConfOneFourInteractionScore>
-0.984337 

> <ConfScore>
-0.0593944 

> <ConfScorePBest>
0.00400641 

> <ConfTolerance>
0.293056 

$$$$
c22.sdf
 OpenBabel04162418103D

 44 47  0  0  0  0  0  0  0  0999 V2000
    1.9452   -0.6102    0.1256 C   0  0  0  1  0  0  0  0  0  0  0  0
    2.0362    0.7233    0.1482 N   0  0  0  1  0  0  0  0  0  0  0  0
    0.8946    1.4376    0.0881 C   0  0  0  1  0  0  0  0  0  0  0  0
   -0.3453    0.7386    0.0096 C   0  0  0  1  0  0  0  0  0  0  0  0
   -0.2528   -0.6478    0.0020 C   0  0  0  1  0  0  0  0  0  0  0  0
    0.8779   -1.3913    0.0539 N   0  0  0  1  0  0  0  0  0  0  0  0
   -1.7303    0.9921   -0.0538 C   0  0  0  1  0  0  0  0  0  0  0  0
   -2.4281   -0.1191   -0.1028 N   0  0  0  1  0  0  0  0  0  0  0  0
   -1.5125   -1.1342   -0.0681 N   0  0  0  1  0  0  0  0  0  0  0  0
   -1.8419   -2.5192   -0.1013 C   0  0  0  1  0  0  0  0  0  0  0  0
   -0.9264   -3.4358   -0.5831 C   0  0  0  1  0  0  0  0  0  0  0  0
   -1.2450   -4.7845   -0.6104 C   0  0  0  1  0  0  0  0  0  0  0  0
   -2.4800   -5.2123   -0.1609 C   0  0  0  1  0  0  0  0  0  0  0  0
   -3.3981   -4.2930    0.3223 C   0  0  0  1  0  0  0  0  0  0  0  0
   -3.0806   -2.9480    0.3496 C   0  0  0  1  0  0  0  0  0  0  0  0
   -2.7535   -6.5375   -0.1051 O   0  0  0  1  0  0  0  0  0  0  0  0
   -1.7875   -7.4316   -0.6793 C   0  0  0  1  0  0  0  0  0  0  0  0
    3.1214   -1.2603    0.1851 N   0  0  0  1  0  0  0  0  0  0  0  0
    4.4264   -0.5917    0.1754 C   0  0  0  1  0  0  0  0  0  0  0  0
    4.5820    0.3153   -1.0482 C   0  0  0  1  0  0  0  0  0  0  0  0
    6.0979    0.4399   -1.2679 C   0  0  0  1  0  0  0  0  0  0  0  0
    6.7357   -0.7458   -0.5348 C   0  0  0  1  0  0  0  0  0  0  0  0
    5.5682   -1.5928   -0.0439 C   0  0  0  1  0  0  0  0  0  0  0  0
    7.5550   -0.2678    0.6178 N   0  0  0  1  0  0  0  0  0  0  0  0
    0.9178    2.4773    0.0989 H   0  0  0  1  0  0  0  0  0  0  0  0
   -2.1490    1.9440   -0.0608 H   0  0  0  1  0  0  0  0  0  0  0  0
    0.0014   -3.1135   -0.9251 H   0  0  0  1  0  0  0  0  0  0  0  0
   -0.5547   -5.4746   -0.9692 H   0  0  0  1  0  0  0  0  0  0  0  0
   -4.3259   -4.6152    0.6643 H   0  0  0  1  0  0  0  0  0  0  0  0
   -3.7709   -2.2579    0.7084 H   0  0  0  1  0  0  0  0  0  0  0  0
   -1.7212   -7.2571   -1.7329 H   0  0  0  1  0  0  0  0  0  0  0  0
   -2.0895   -8.4430   -0.5039 H   0  0  0  1  0  0  0  0  0  0  0  0
   -0.8320   -7.2609   -0.2290 H   0  0  0  1  0  0  0  0  0  0  0  0
    3.1050   -2.2388    0.2379 H   0  0  0  1  0  0  0  0  0  0  0  0
    4.5546   -0.0453    1.0863 H   0  0  0  1  0  0  0  0  0  0  0  0
    4.1500    1.2760   -0.8602 H   0  0  0  1  0  0  0  0  0  0  0  0
    4.1141   -0.1255   -1.9036 H   0  0  0  1  0  0  0  0  0  0  0  0
    6.4566    1.3629   -0.8623 H   0  0  0  1  0  0  0  0  0  0  0  0
    6.3260    0.3962   -2.3124 H   0  0  0  1  0  0  0  0  0  0  0  0
    7.3531   -1.3103   -1.2021 H   0  0  0  1  0  0  0  0  0  0  0  0
    5.2954   -2.3212   -0.7786 H   0  0  0  1  0  0  0  0  0  0  0  0
    5.8187   -2.0859    0.8720 H   0  0  0  1  0  0  0  0  0  0  0  0
    8.2286    0.3685    0.2987 H   0  0  0  1  0  0  0  0  0  0  0  0
    8.0012   -1.0313    1.0400 H   0  0  0  1  0  0  0  0  0  0  0  0
  1  2  4  0  0  0  0
  1  6  4  0  0  0  0
  1 18  1  0  0  0  0
  2  3  4  0  0  0  0
  3  4  4  0  0  0  0
  3 25  1  0  0  0  0
  4  5  4  0  0  0  0
  4  7  4  0  0  0  0
  5  6  4  0  0  0  0
  5  9  4  0  0  0  0
  7  8  4  0  0  0  0
  7 26  1  0  0  0  0
  8  9  4  0  0  0  0
  9 10  1  0  0  0  0
 10 11  4  0  0  0  0
 10 15  4  0  0  0  0
 11 12  4  0  0  0  0
 11 27  1  0  0  0  0
 12 13  4  0  0  0  0
 12 28  1  0  0  0  0
 13 14  4  0  0  0  0
 13 16  1  0  0  0  0
 14 15  4  0  0  0  0
 14 29  1  0  0  0  0
 15 30  1  0  0  0  0
 16 17  1  0  0  0  0
 17 31  1  0  0  0  0
 17 32  1  0  0  0  0
 17 33  1  0  0  0  0
 18 19  1  0  0  0  0
 18 34  1  0  0  0  0
 19 20  1  0  0  0  0
 19 23  1  0  0  0  0
 19 35  1  0  0  0  0
 20 21  1  0  0  0  0
 20 36  1  0  0  0  0
 20 37  1  0  0  0  0
 21 22  1  0  0  0  0
 21 38  1  0  0  0  0
 21 39  1  0  0  0  0
 22 23  1  0  0  0  0
 22 24  1  0  0  0  0
 22 40  1  0  0  0  0
 23 41  1  0  0  0  0
 23 42  1  0  0  0  0
 24 43  1  0  0  0  0
 24 44  1  0  0  0  0
M  END
> <ConfClashScore>
0 

> <ConfOneFourInteractionScore>
-0.985399 

> <ConfScore>
-0.0582314 

> <ConfScorePBest>
0.00399308 

> <ConfTolerance>
0.240036 

$$$$
c22.sdf
 OpenBabel04162418103D

 44 47  0  0  0  0  0  0  0  0999 V2000
    1.9452   -0.6102    0.1256 C   0  0  0  1  0  0  0  0  0  0  0  0
    2.0363    0.7233    0.1481 N   0  0  0  1  0  0  0  0  0  0  0  0
    0.8946    1.4376    0.0881 C   0  0  0  1  0  0  0  0  0  0  0  0
   -0.3453    0.7386    0.0096 C   0  0  0  1  0  0  0  0  0  0  0  0
   -0.2529   -0.6478    0.0020 C   0  0  0  1  0  0  0  0  0  0  0  0
    0.8779   -1.3913    0.0539 N   0  0  0  1  0  0  0  0  0  0  0  0
   -1.7304    0.9921   -0.0538 C   0  0  0  1  0  0  0  0  0  0  0  0
   -2.4281   -0.1191   -0.1028 N   0  0  0  1  0  0  0  0  0  0  0  0
   -1.5125   -1.1342   -0.0681 N   0  0  0  1  0  0  0  0  0  0  0  0
   -1.8385   -2.5051   -0.1011 C   0  0  0  1  0  0  0  0  0  0  0  0
   -3.0190   -2.9980    0.4221 C   0  0  0  1  0  0  0  0  0  0  0  0
   -3.2917   -4.3556    0.3581 C   0  0  0  1  0  0  0  0  0  0  0  0
   -2.3809   -5.2170   -0.2238 C   0  0  0  1  0  0  0  0  0  0  0  0
   -1.1968   -4.7224   -0.7484 C   0  0  0  1  0  0  0  0  0  0  0  0
   -0.9248   -3.3688   -0.6848 C   0  0  0  1  0  0  0  0  0  0  0  0
   -2.4939   -6.5596   -0.3598 O   0  0  0  1  0  0  0  0  0  0  0  0
   -3.5954   -7.1962    0.3065 C   0  0  0  1  0  0  0  0  0  0  0  0
    3.1323   -1.2665    0.1855 N   0  0  0  1  0  0  0  0  0  0  0  0
    3.2567   -2.7179    0.2358 C   0  0  0  1  0  0  0  0  0  0  0  0
    2.4509   -3.3115    1.4397 C   0  0  0  1  0  0  0  0  0  0  0  0
    3.3968   -3.0548    2.6193 C   0  0  0  1  0  0  0  0  0  0  0  0
    4.8221   -3.2519    2.1132 C   0  0  0  1  0  0  0  0  0  0  0  0
    4.7032   -3.1399    0.5534 C   0  0  0  1  0  0  0  0  0  0  0  0
    5.3467   -4.6092    2.5120 N   0  0  0  1  0  0  0  0  0  0  0  0
    0.9178    2.4772    0.0988 H   0  0  0  1  0  0  0  0  0  0  0  0
   -2.1490    1.9441   -0.0608 H   0  0  0  1  0  0  0  0  0  0  0  0
   -3.7027   -2.3505    0.8635 H   0  0  0  1  0  0  0  0  0  0  0  0
   -4.1818   -4.7261    0.7480 H   0  0  0  1  0  0  0  0  0  0  0  0
   -0.5133   -5.3699   -1.1899 H   0  0  0  1  0  0  0  0  0  0  0  0
   -0.0347   -2.9983   -1.0747 H   0  0  0  1  0  0  0  0  0  0  0  0
   -3.6293   -6.8756    1.3267 H   0  0  0  1  0  0  0  0  0  0  0  0
   -3.4681   -8.2580    0.2705 H   0  0  0  1  0  0  0  0  0  0  0  0
   -4.5095   -6.9293   -0.1816 H   0  0  0  1  0  0  0  0  0  0  0  0
    3.9541   -0.7327    0.1953 H   0  0  0  1  0  0  0  0  0  0  0  0
    2.9277   -3.1370   -0.6921 H   0  0  0  1  0  0  0  0  0  0  0  0
    2.2705   -4.3578    1.3077 H   0  0  0  1  0  0  0  0  0  0  0  0
    1.5191   -2.8023    1.5717 H   0  0  0  1  0  0  0  0  0  0  0  0
    3.1908   -3.7457    3.4099 H   0  0  0  1  0  0  0  0  0  0  0  0
    3.2712   -2.0543    2.9774 H   0  0  0  1  0  0  0  0  0  0  0  0
    5.4689   -2.4916    2.4987 H   0  0  0  1  0  0  0  0  0  0  0  0
    5.3884   -2.4050    0.1853 H   0  0  0  1  0  0  0  0  0  0  0  0
    4.9167   -4.0856    0.1007 H   0  0  0  1  0  0  0  0  0  0  0  0
    4.8792   -5.3033    2.0021 H   0  0  0  1  0  0  0  0  0  0  0  0
    5.1945   -4.7494    3.4699 H   0  0  0  1  0  0  0  0  0  0  0  0
  1  2  4  0  0  0  0
  1  6  4  0  0  0  0
  1 18  1  0  0  0  0
  2  3  4  0  0  0  0
  3  4  4  0  0  0  0
  3 25  1  0  0  0  0
  4  5  4  0  0  0  0
  4  7  4  0  0  0  0
  5  6  4  0  0  0  0
  5  9  4  0  0  0  0
  7  8  4  0  0  0  0
  7 26  1  0  0  0  0
  8  9  4  0  0  0  0
  9 10  1  0  0  0  0
 10 11  4  0  0  0  0
 10 15  4  0  0  0  0
 11 12  4  0  0  0  0
 11 27  1  0  0  0  0
 12 13  4  0  0  0  0
 12 28  1  0  0  0  0
 13 14  4  0  0  0  0
 13 16  1  0  0  0  0
 14 15  4  0  0  0  0
 14 29  1  0  0  0  0
 15 30  1  0  0  0  0
 16 17  1  0  0  0  0
 17 31  1  0  0  0  0
 17 32  1  0  0  0  0
 17 33  1  0  0  0  0
 18 19  1  0  0  0  0
 18 34  1  0  0  0  0
 19 20  1  0  0  0  0
 19 23  1  0  0  0  0
 19 35  1  0  0  0  0
 20 21  1  0  0  0  0
 20 36  1  0  0  0  0
 20 37  1  0  0  0  0
 21 22  1  0  0  0  0
 21 38  1  0  0  0  0
 21 39  1  0  0  0  0
 22 23  1  0  0  0  0
 22 24  1  0  0  0  0
 22 40  1  0  0  0  0
 23 41  1  0  0  0  0
 23 42  1  0  0  0  0
 24 43  1  0  0  0  0
 24 44  1  0  0  0  0
M  END
> <ConfClashScore>
0 

> <ConfOneFourInteractionScore>
-0.985399 

> <ConfScore>
-0.0578808 

> <ConfScorePBest>
0.00397975 

> <ConfTolerance>
0.338678 

$$$$
c22.sdf
 OpenBabel04162418103D

 44 47  0  0  0  0  0  0  0  0999 V2000
    1.9452   -0.6103    0.1256 C   0  0  0  1  0  0  0  0  0  0  0  0
    2.0363    0.7233    0.1482 N   0  0  0  1  0  0  0  0  0  0  0  0
    0.8946    1.4375    0.0881 C   0  0  0  1  0  0  0  0  0  0  0  0
   -0.3452    0.7385    0.0096 C   0  0  0  1  0  0  0  0  0  0  0  0
   -0.2528   -0.6478    0.0020 C   0  0  0  1  0  0  0  0  0  0  0  0
    0.8780   -1.3913    0.0539 N   0  0  0  1  0  0  0  0  0  0  0  0
   -1.7304    0.9921   -0.0538 C   0  0  0  1  0  0  0  0  0  0  0  0
   -2.4281   -0.1191   -0.1029 N   0  0  0  1  0  0  0  0  0  0  0  0
   -1.5125   -1.1341   -0.0681 N   0  0  0  1  0  0  0  0  0  0  0  0
   -1.8396   -2.5099   -0.1011 C   0  0  0  1  0  0  0  0  0  0  0  0
   -3.0710   -2.9385    0.3574 C   0  0  0  1  0  0  0  0  0  0  0  0
   -3.3936   -4.2861    0.3201 C   0  0  0  1  0  0  0  0  0  0  0  0
   -2.4820   -5.2018   -0.1707 C   0  0  0  1  0  0  0  0  0  0  0  0
   -1.2469   -4.7717   -0.6304 C   0  0  0  1  0  0  0  0  0  0  0  0
   -0.9252   -3.4281   -0.5933 C   0  0  0  1  0  0  0  0  0  0  0  0
   -2.6815   -6.5355   -0.2515 O   0  0  0  1  0  0  0  0  0  0  0  0
   -3.8336   -7.1174    0.3780 C   0  0  0  1  0  0  0  0  0  0  0  0
    3.1380   -1.2696    0.1858 N   0  0  0  1  0  0  0  0  0  0  0  0
    3.2159   -2.7341    0.0948 C   0  0  0  1  0  0  0  0  0  0  0  0
    2.6296   -3.3961    1.3343 C   0  0  0  1  0  0  0  0  0  0  0  0
    3.2664   -4.7759    1.4293 C   0  0  0  1  0  0  0  0  0  0  0  0
    4.5272   -4.7191    0.5644 C   0  0  0  1  0  0  0  0  0  0  0  0
    4.7100   -3.2294    0.1294 C   0  0  0  1  0  0  0  0  0  0  0  0
    4.3657   -5.5857   -0.6333 N   0  0  0  1  0  0  0  0  0  0  0  0
    0.9179    2.4772    0.0988 H   0  0  0  1  0  0  0  0  0  0  0  0
   -2.1489    1.9440   -0.0608 H   0  0  0  1  0  0  0  0  0  0  0  0
   -3.7555   -2.2500    0.7304 H   0  0  0  1  0  0  0  0  0  0  0  0
   -4.3217   -4.6082    0.6613 H   0  0  0  1  0  0  0  0  0  0  0  0
   -0.5625   -5.4601   -1.0035 H   0  0  0  1  0  0  0  0  0  0  0  0
    0.0029   -3.1059   -0.9346 H   0  0  0  1  0  0  0  0  0  0  0  0
   -3.8828   -6.7981    1.3981 H   0  0  0  1  0  0  0  0  0  0  0  0
   -3.7588   -8.1841    0.3417 H   0  0  0  1  0  0  0  0  0  0  0  0
   -4.7176   -6.8037   -0.1367 H   0  0  0  1  0  0  0  0  0  0  0  0
    3.9640   -0.7533    0.2925 H   0  0  0  1  0  0  0  0  0  0  0  0
    2.7184   -3.0638   -0.7932 H   0  0  0  1  0  0  0  0  0  0  0  0
    1.5675   -3.4851    1.2383 H   0  0  0  1  0  0  0  0  0  0  0  0
    2.8625   -2.8208    2.2058 H   0  0  0  1  0  0  0  0  0  0  0  0
    2.5946   -5.5216    1.0584 H   0  0  0  1  0  0  0  0  0  0  0  0
    3.5217   -4.9983    2.4444 H   0  0  0  1  0  0  0  0  0  0  0  0
    5.3759   -5.0446    1.1289 H   0  0  0  1  0  0  0  0  0  0  0  0
    5.1695   -3.1562   -0.8341 H   0  0  0  1  0  0  0  0  0  0  0  0
    5.2882   -2.6810    0.8435 H   0  0  0  1  0  0  0  0  0  0  0  0
    3.6727   -5.2116   -1.2166 H   0  0  0  1  0  0  0  0  0  0  0  0
    4.1034   -6.4868   -0.3512 H   0  0  0  1  0  0  0  0  0  0  0  0
  1  2  4  0  0  0  0
  1  6  4  0  0  0  0
  1 18  1  0  0  0  0
  2  3  4  0  0  0  0
  3  4  4  0  0  0  0
  3 25  1  0  0  0  0
  4  5  4  0  0  0  0
  4  7  4  0  0  0  0
  5  6  4  0  0  0  0
  5  9  4  0  0  0  0
  7  8  4  0  0  0  0
  7 26  1  0  0  0  0
  8  9  4  0  0  0  0
  9 10  1  0  0  0  0
 10 11  4  0  0  0  0
 10 15  4  0  0  0  0
 11 12  4  0  0  0  0
 11 27  1  0  0  0  0
 12 13  4  0  0  0  0
 12 28  1  0  0  0  0
 13 14  4  0  0  0  0
 13 16  1  0  0  0  0
 14 15  4  0  0  0  0
 14 29  1  0  0  0  0
 15 30  1  0  0  0  0
 16 17  1  0  0  0  0
 17 31  1  0  0  0  0
 17 32  1  0  0  0  0
 17 33  1  0  0  0  0
 18 19  1  0  0  0  0
 18 34  1  0  0  0  0
 19 20  1  0  0  0  0
 19 23  1  0  0  0  0
 19 35  1  0  0  0  0
 20 21  1  0  0  0  0
 20 36  1  0  0  0  0
 20 37  1  0  0  0  0
 21 22  1  0  0  0  0
 21 38  1  0  0  0  0
 21 39  1  0  0  0  0
 22 23  1  0  0  0  0
 22 24  1  0  0  0  0
 22 40  1  0  0  0  0
 23 41  1  0  0  0  0
 23 42  1  0  0  0  0
 24 43  1  0  0  0  0
 24 44  1  0  0  0  0
M  END
> <ConfClashScore>
0 

> <ConfOneFourInteractionScore>
-0.981848 

> <ConfScore>
-0.0578808 

> <ConfScorePBest>
0.00396642 

> <ConfTolerance>
0.378792 

$$$$
c22.sdf
 OpenBabel04162418103D

 44 47  0  0  0  0  0  0  0  0999 V2000
    1.9452   -0.6103    0.1254 C   0  0  0  1  0  0  0  0  0  0  0  0
    2.0363    0.7233    0.1480 N   0  0  0  1  0  0  0  0  0  0  0  0
    0.8946    1.4375    0.0881 C   0  0  0  1  0  0  0  0  0  0  0  0
   -0.3453    0.7386    0.0095 C   0  0  0  1  0  0  0  0  0  0  0  0
   -0.2528   -0.6478    0.0020 C   0  0  0  1  0  0  0  0  0  0  0  0
    0.8779   -1.3913    0.0538 N   0  0  0  1  0  0  0  0  0  0  0  0
   -1.7303    0.9921   -0.0538 C   0  0  0  1  0  0  0  0  0  0  0  0
   -2.4281   -0.1191   -0.1028 N   0  0  0  1  0  0  0  0  0  0  0  0
   -1.5125   -1.1341   -0.0681 N   0  0  0  1  0  0  0  0  0  0  0  0
   -1.8416   -2.5178   -0.1013 C   0  0  0  1  0  0  0  0  0  0  0  0
   -2.2177   -3.1667    1.0597 C   0  0  0  1  0  0  0  0  0  0  0  0
   -2.5434   -4.5136    1.0262 C   0  0  0  1  0  0  0  0  0  0  0  0
   -2.4870   -5.2091   -0.1669 C   0  0  0  1  0  0  0  0  0  0  0  0
   -2.1098   -4.5581   -1.3312 C   0  0  0  1  0  0  0  0  0  0  0  0
   -1.7850   -3.2152   -1.2980 C   0  0  0  1  0  0  0  0  0  0  0  0
   -2.7763   -6.5230   -0.3212 O   0  0  0  1  0  0  0  0  0  0  0  0
   -3.0618   -7.2761    0.8678 C   0  0  0  1  0  0  0  0  0  0  0  0
    3.1162   -1.2576    0.1845 N   0  0  0  1  0  0  0  0  0  0  0  0
    3.3066   -2.7080    0.2184 C   0  0  0  1  0  0  0  0  0  0  0  0
    3.0566   -3.2741    1.6222 C   0  0  0  1  0  0  0  0  0  0  0  0
    4.3180   -2.9345    2.4062 C   0  0  0  1  0  0  0  0  0  0  0  0
    5.4464   -2.9064    1.3686 C   0  0  0  1  0  0  0  0  0  0  0  0
    4.7741   -3.0854   -0.0017 C   0  0  0  1  0  0  0  0  0  0  0  0
    6.4098   -4.0193    1.6217 N   0  0  0  1  0  0  0  0  0  0  0  0
    0.9179    2.4772    0.0987 H   0  0  0  1  0  0  0  0  0  0  0  0
   -2.1490    1.9441   -0.0607 H   0  0  0  1  0  0  0  0  0  0  0  0
   -2.2562   -2.6444    1.9581 H   0  0  0  1  0  0  0  0  0  0  0  0
   -2.8303   -5.0010    1.8990 H   0  0  0  1  0  0  0  0  0  0  0  0
   -2.0712   -5.0804   -2.2297 H   0  0  0  1  0  0  0  0  0  0  0  0
   -1.4980   -2.7278   -2.1708 H   0  0  0  1  0  0  0  0  0  0  0  0
   -2.2490   -7.1777    1.5567 H   0  0  0  1  0  0  0  0  0  0  0  0
   -3.1911   -8.3075    0.6140 H   0  0  0  1  0  0  0  0  0  0  0  0
   -3.9581   -6.9042    1.3186 H   0  0  0  1  0  0  0  0  0  0  0  0
    3.9255   -0.7054    0.2072 H   0  0  0  1  0  0  0  0  0  0  0  0
    2.6707   -3.1687   -0.5084 H   0  0  0  1  0  0  0  0  0  0  0  0
    2.1998   -2.8132    2.0677 H   0  0  0  1  0  0  0  0  0  0  0  0
    2.9115   -4.3335    1.5814 H   0  0  0  1  0  0  0  0  0  0  0  0
    4.2197   -1.9792    2.8782 H   0  0  0  1  0  0  0  0  0  0  0  0
    4.5102   -3.6812    3.1480 H   0  0  0  1  0  0  0  0  0  0  0  0
    5.9634   -1.9704    1.4085 H   0  0  0  1  0  0  0  0  0  0  0  0
    4.8550   -4.1008   -0.3293 H   0  0  0  1  0  0  0  0  0  0  0  0
    5.2228   -2.4392   -0.7269 H   0  0  0  1  0  0  0  0  0  0  0  0
    7.2119   -3.8884    1.0739 H   0  0  0  1  0  0  0  0  0  0  0  0
    5.9905   -4.8735    1.3877 H   0  0  0  1  0  0  0  0  0  0  0  0
  1  2  4  0  0  0  0
  1  6  4  0  0  0  0
  1 18  1  0  0  0  0
  2  3  4  0  0  0  0
  3  4  4  0  0  0  0
  3 25  1  0  0  0  0
  4  5  4  0  0  0  0
  4  7  4  0  0  0  0
  5  6  4  0  0  0  0
  5  9  4  0  0  0  0
  7  8  4  0  0  0  0
  7 26  1  0  0  0  0
  8  9  4  0  0  0  0
  9 10  1  0  0  0  0
 10 11  4  0  0  0  0
 10 15  4  0  0  0  0
 11 12  4  0  0  0  0
 11 27  1  0  0  0  0
 12 13  4  0  0  0  0
 12 28  1  0  0  0  0
 13 14  4  0  0  0  0
 13 16  1  0  0  0  0
 14 15  4  0  0  0  0
 14 29  1  0  0  0  0
 15 30  1  0  0  0  0
 16 17  1  0  0  0  0
 17 31  1  0  0  0  0
 17 32  1  0  0  0  0
 17 33  1  0  0  0  0
 18 19  1  0  0  0  0
 18 34  1  0  0  0  0
 19 20  1  0  0  0  0
 19 23  1  0  0  0  0
 19 35  1  0  0  0  0
 20 21  1  0  0  0  0
 20 36  1  0  0  0  0
 20 37  1  0  0  0  0
 21 22  1  0  0  0  0
 21 38  1  0  0  0  0
 21 39  1  0  0  0  0
 22 23  1  0  0  0  0
 22 24  1  0  0  0  0
 22 40  1  0  0  0  0
 23 41  1  0  0  0  0
 23 42  1  0  0  0  0
 24 43  1  0  0  0  0
 24 44  1  0  0  0  0
M  END
> <ConfClashScore>
0 

> <ConfOneFourInteractionScore>
-0.984337 

> <ConfScore>
-0.0578341 

> <ConfScorePBest>
0.00395309 

> <ConfTolerance>
0.364598 

$$$$
c22.sdf
 OpenBabel04162418103D

 44 47  0  0  0  0  0  0  0  0999 V2000
    1.9452   -0.6102    0.1255 C   0  0  0  1  0  0  0  0  0  0  0  0
    2.0363    0.7233    0.1481 N   0  0  0  1  0  0  0  0  0  0  0  0
    0.8946    1.4376    0.0881 C   0  0  0  1  0  0  0  0  0  0  0  0
   -0.3453    0.7386    0.0096 C   0  0  0  1  0  0  0  0  0  0  0  0
   -0.2528   -0.6478    0.0020 C   0  0  0  1  0  0  0  0  0  0  0  0
    0.8779   -1.3913    0.0538 N   0  0  0  1  0  0  0  0  0  0  0  0
   -1.7303    0.9921   -0.0538 C   0  0  0  1  0  0  0  0  0  0  0  0
   -2.4281   -0.1192   -0.1028 N   0  0  0  1  0  0  0  0  0  0  0  0
   -1.5126   -1.1342   -0.0681 N   0  0  0  1  0  0  0  0  0  0  0  0
   -1.8385   -2.5051   -0.1010 C   0  0  0  1  0  0  0  0  0  0  0  0
   -1.3169   -3.4119    0.8023 C   0  0  0  1  0  0  0  0  0  0  0  0
   -1.6757   -4.7488    0.7277 C   0  0  0  1  0  0  0  0  0  0  0  0
   -2.5508   -5.1759   -0.2533 C   0  0  0  1  0  0  0  0  0  0  0  0
   -3.0738   -4.2663   -1.1591 C   0  0  0  1  0  0  0  0  0  0  0  0
   -2.7161   -2.9333   -1.0849 C   0  0  0  1  0  0  0  0  0  0  0  0
   -2.9686   -6.4522   -0.4273 O   0  0  0  1  0  0  0  0  0  0  0  0
   -2.6489   -7.3944    0.6083 C   0  0  0  1  0  0  0  0  0  0  0  0
    3.1646   -1.2844    0.1870 N   0  0  0  1  0  0  0  0  0  0  0  0
    3.0604   -2.7465    0.1825 C   0  0  0  1  0  0  0  0  0  0  0  0
    2.7067   -3.2680    1.5665 C   0  0  0  1  0  0  0  0  0  0  0  0
    3.3797   -4.6101    1.6971 C   0  0  0  1  0  0  0  0  0  0  0  0
    4.3334   -4.7600    0.5399 C   0  0  0  1  0  0  0  0  0  0  0  0
    4.4249   -3.3917   -0.1173 C   0  0  0  1  0  0  0  0  0  0  0  0
    3.8118   -5.7681   -0.4334 N   0  0  0  1  0  0  0  0  0  0  0  0
    0.9179    2.4772    0.0988 H   0  0  0  1  0  0  0  0  0  0  0  0
   -2.1489    1.9441   -0.0607 H   0  0  0  1  0  0  0  0  0  0  0  0
   -0.6554   -3.0913    1.5378 H   0  0  0  1  0  0  0  0  0  0  0  0
   -1.2864   -5.4304    1.4098 H   0  0  0  1  0  0  0  0  0  0  0  0
   -3.7354   -4.5869   -1.8948 H   0  0  0  1  0  0  0  0  0  0  0  0
   -3.1054   -2.2516   -1.7670 H   0  0  0  1  0  0  0  0  0  0  0  0
   -2.8288   -8.3882    0.2549 H   0  0  0  1  0  0  0  0  0  0  0  0
   -3.2616   -7.2042    1.4647 H   0  0  0  1  0  0  0  0  0  0  0  0
   -1.6182   -7.2927    0.8769 H   0  0  0  1  0  0  0  0  0  0  0  0
    4.0247   -0.8166    0.2298 H   0  0  0  1  0  0  0  0  0  0  0  0
    2.3292   -3.0503   -0.5371 H   0  0  0  1  0  0  0  0  0  0  0  0
    1.6463   -3.3745    1.6625 H   0  0  0  1  0  0  0  0  0  0  0  0
    3.0678   -2.5978    2.3184 H   0  0  0  1  0  0  0  0  0  0  0  0
    2.6469   -5.3893    1.6684 H   0  0  0  1  0  0  0  0  0  0  0  0
    3.9174   -4.6594    2.6209 H   0  0  0  1  0  0  0  0  0  0  0  0
    5.2964   -5.0674    0.8910 H   0  0  0  1  0  0  0  0  0  0  0  0
    4.5782   -3.4855   -1.1721 H   0  0  0  1  0  0  0  0  0  0  0  0
    5.2199   -2.8166    0.3094 H   0  0  0  1  0  0  0  0  0  0  0  0
    2.8845   -5.5506   -0.6641 H   0  0  0  1  0  0  0  0  0  0  0  0
    3.8473   -6.6603   -0.0298 H   0  0  0  1  0  0  0  0  0  0  0  0
  1  2  4  0  0  0  0
  1  6  4  0  0  0  0
  1 18  1  0  0  0  0
  2  3  4  0  0  0  0
  3  4  4  0  0  0  0
  3 25  1  0  0  0  0
  4  5  4  0  0  0  0
  4  7  4  0  0  0  0
  5  6  4  0  0  0  0
  5  9  4  0  0  0  0
  7  8  4  0  0  0  0
  7 26  1  0  0  0  0
  8  9  4  0  0  0  0
  9 10  1  0  0  0  0
 10 11  4  0  0  0  0
 10 15  4  0  0  0  0
 11 12  4  0  0  0  0
 11 27  1  0  0  0  0
 12 13  4  0  0  0  0
 12 28  1  0  0  0  0
 13 14  4  0  0  0  0
 13 16  1  0  0  0  0
 14 15  4  0  0  0  0
 14 29  1  0  0  0  0
 15 30  1  0  0  0  0
 16 17  1  0  0  0  0
 17 31  1  0  0  0  0
 17 32  1  0  0  0  0
 17 33  1  0  0  0  0
 18 19  1  0  0  0  0
 18 34  1  0  0  0  0
 19 20  1  0  0  0  0
 19 23  1  0  0  0  0
 19 35  1  0  0  0  0
 20 21  1  0  0  0  0
 20 36  1  0  0  0  0
 20 37  1  0  0  0  0
 21 22  1  0  0  0  0
 21 38  1  0  0  0  0
 21 39  1  0  0  0  0
 22 23  1  0  0  0  0
 22 24  1  0  0  0  0
 22 40  1  0  0  0  0
 23 41  1  0  0  0  0
 23 42  1  0  0  0  0
 24 43  1  0  0  0  0
 24 44  1  0  0  0  0
M  END
> <ConfClashScore>
0 

> <ConfOneFourInteractionScore>
-0.984337 

> <ConfScore>
-0.057526 

> <ConfScorePBest>
0.00393977 

> <ConfTolerance>
0.294557 

$$$$
c22.sdf
 OpenBabel04162418103D

 44 47  0  0  0  0  0  0  0  0999 V2000
    1.9452   -0.6103    0.1257 C   0  0  0  1  0  0  0  0  0  0  0  0
    2.0363    0.7233    0.1482 N   0  0  0  1  0  0  0  0  0  0  0  0
    0.8945    1.4375    0.0881 C   0  0  0  1  0  0  0  0  0  0  0  0
   -0.3453    0.7386    0.0096 C   0  0  0  1  0  0  0  0  0  0  0  0
   -0.2528   -0.6478    0.0020 C   0  0  0  1  0  0  0  0  0  0  0  0
    0.8779   -1.3913    0.0540 N   0  0  0  1  0  0  0  0  0  0  0  0
   -1.7303    0.9921   -0.0538 C   0  0  0  1  0  0  0  0  0  0  0  0
   -2.4281   -0.1191   -0.1030 N   0  0  0  1  0  0  0  0  0  0  0  0
   -1.5125   -1.1341   -0.0681 N   0  0  0  1  0  0  0  0  0  0  0  0
   -1.8396   -2.5099   -0.1011 C   0  0  0  1  0  0  0  0  0  0  0  0
   -2.9462   -2.9737    0.5850 C   0  0  0  1  0  0  0  0  0  0  0  0
   -3.2697   -4.3210    0.5483 C   0  0  0  1  0  0  0  0  0  0  0  0
   -2.4830   -5.2015   -0.1700 C   0  0  0  1  0  0  0  0  0  0  0  0
   -1.3732   -4.7362   -0.8581 C   0  0  0  1  0  0  0  0  0  0  0  0
   -1.0505   -3.3928   -0.8216 C   0  0  0  1  0  0  0  0  0  0  0  0
   -2.7409   -6.5290   -0.2422 O   0  0  0  1  0  0  0  0  0  0  0  0
   -3.8820   -7.0159    0.4812 C   0  0  0  1  0  0  0  0  0  0  0  0
    3.1148   -1.2568    0.1847 N   0  0  0  1  0  0  0  0  0  0  0  0
    3.3034   -2.7044    0.2910 C   0  0  0  1  0  0  0  0  0  0  0  0
    4.1270   -3.0654    1.5164 C   0  0  0  1  0  0  0  0  0  0  0  0
    5.5756   -2.7880    1.1008 C   0  0  0  1  0  0  0  0  0  0  0  0
    5.6096   -2.8866   -0.4302 C   0  0  0  1  0  0  0  0  0  0  0  0
    4.1789   -3.2371   -0.8485 C   0  0  0  1  0  0  0  0  0  0  0  0
    6.5428   -3.9404   -0.8570 N   0  0  0  1  0  0  0  0  0  0  0  0
    0.9179    2.4773    0.0987 H   0  0  0  1  0  0  0  0  0  0  0  0
   -2.1490    1.9441   -0.0608 H   0  0  0  1  0  0  0  0  0  0  0  0
   -3.5359   -2.3117    1.1288 H   0  0  0  1  0  0  0  0  0  0  0  0
   -4.1047   -4.6694    1.0613 H   0  0  0  1  0  0  0  0  0  0  0  0
   -0.7834   -5.3980   -1.4019 H   0  0  0  1  0  0  0  0  0  0  0  0
   -0.2155   -3.0444   -1.3345 H   0  0  0  1  0  0  0  0  0  0  0  0
   -3.7778   -6.7732    1.5181 H   0  0  0  1  0  0  0  0  0  0  0  0
   -3.9487   -8.0779    0.3687 H   0  0  0  1  0  0  0  0  0  0  0  0
   -4.7698   -6.5594    0.0958 H   0  0  0  1  0  0  0  0  0  0  0  0
    3.9254   -0.7070    0.1537 H   0  0  0  1  0  0  0  0  0  0  0  0
    2.3494   -3.1887    0.3074 H   0  0  0  1  0  0  0  0  0  0  0  0
    3.9970   -4.0971    1.7687 H   0  0  0  1  0  0  0  0  0  0  0  0
    3.8499   -2.4559    2.3511 H   0  0  0  1  0  0  0  0  0  0  0  0
    5.8704   -1.8089    1.4157 H   0  0  0  1  0  0  0  0  0  0  0  0
    6.2308   -3.5148    1.5335 H   0  0  0  1  0  0  0  0  0  0  0  0
    5.9061   -1.9520   -0.8587 H   0  0  0  1  0  0  0  0  0  0  0  0
    4.0636   -4.2960   -0.9502 H   0  0  0  1  0  0  0  0  0  0  0  0
    3.9277   -2.7600   -1.7727 H   0  0  0  1  0  0  0  0  0  0  0  0
    6.5871   -3.9615   -1.8358 H   0  0  0  1  0  0  0  0  0  0  0  0
    6.2294   -4.8078   -0.5257 H   0  0  0  1  0  0  0  0  0  0  0  0
  1  2  4  0  0  0  0
  1  6  4  0  0  0  0
  1 18  1  0  0  0  0
  2  3  4  0  0  0  0
  3  4  4  0  0  0  0
  3 25  1  0  0  0  0
  4  5  4  0  0  0  0
  4  7  4  0  0  0  0
  5  6  4  0  0  0  0
  5  9  4  0  0  0  0
  7  8  4  0  0  0  0
  7 26  1  0  0  0  0
  8  9  4  0  0  0  0
  9 10  1  0  0  0  0
 10 11  4  0  0  0  0
 10 15  4  0  0  0  0
 11 12  4  0  0  0  0
 11 27  1  0  0  0  0
 12 13  4  0  0  0  0
 12 28  1  0  0  0  0
 13 14  4  0  0  0  0
 13 16  1  0  0  0  0
 14 15  4  0  0  0  0
 14 29  1  0  0  0  0
 15 30  1  0  0  0  0
 16 17  1  0  0  0  0
 17 31  1  0  0  0  0
 17 32  1  0  0  0  0
 17 33  1  0  0  0  0
 18 19  1  0  0  0  0
 18 34  1  0  0  0  0
 19 20  1  0  0  0  0
 19 23  1  0  0  0  0
 19 35  1  0  0  0  0
 20 21  1  0  0  0  0
 20 36  1  0  0  0  0
 20 37  1  0  0  0  0
 21 22  1  0  0  0  0
 21 38  1  0  0  0  0
 21 39  1  0  0  0  0
 22 23  1  0  0  0  0
 22 24  1  0  0  0  0
 22 40  1  0  0  0  0
 23 41  1  0  0  0  0
 23 42  1  0  0  0  0
 24 43  1  0  0  0  0
 24 44  1  0  0  0  0
M  END
> <ConfClashScore>
0 

> <ConfOneFourInteractionScore>
-0.984337 

> <ConfScore>
-0.0573275 

> <ConfScorePBest>
0.00392644 

> <ConfTolerance>
0.409135 

$$$$
c22.sdf
 OpenBabel04162418103D

 44 47  0  0  0  0  0  0  0  0999 V2000
    1.9452   -0.6102    0.1256 C   0  0  0  1  0  0  0  0  0  0  0  0
    2.0363    0.7234    0.1482 N   0  0  0  1  0  0  0  0  0  0  0  0
    0.8946    1.4376    0.0881 C   0  0  0  1  0  0  0  0  0  0  0  0
   -0.3452    0.7387    0.0096 C   0  0  0  1  0  0  0  0  0  0  0  0
   -0.2528   -0.6477    0.0020 C   0  0  0  1  0  0  0  0  0  0  0  0
    0.8780   -1.3912    0.0538 N   0  0  0  1  0  0  0  0  0  0  0  0
   -1.7303    0.9921   -0.0538 C   0  0  0  1  0  0  0  0  0  0  0  0
   -2.4281   -0.1191   -0.1029 N   0  0  0  1  0  0  0  0  0  0  0  0
   -1.5125   -1.1342   -0.0681 N   0  0  0  1  0  0  0  0  0  0  0  0
   -1.8397   -2.5099   -0.1011 C   0  0  0  1  0  0  0  0  0  0  0  0
   -2.5917   -3.0659    0.9164 C   0  0  0  1  0  0  0  0  0  0  0  0
   -2.9167   -4.4129    0.8813 C   0  0  0  1  0  0  0  0  0  0  0  0
   -2.4844   -5.2012   -0.1685 C   0  0  0  1  0  0  0  0  0  0  0  0
   -1.7301   -4.6433   -1.1890 C   0  0  0  1  0  0  0  0  0  0  0  0
   -1.4059   -3.3003   -1.1541 C   0  0  0  1  0  0  0  0  0  0  0  0
   -2.8562   -6.4938   -0.0923 O   0  0  0  1  0  0  0  0  0  0  0  0
   -2.3368   -7.3430   -1.1420 C   0  0  0  1  0  0  0  0  0  0  0  0
    3.1543   -1.2786    0.1866 N   0  0  0  1  0  0  0  0  0  0  0  0
    3.1871   -2.7404    0.0819 C   0  0  0  1  0  0  0  0  0  0  0  0
    3.1001   -3.4039    1.4624 C   0  0  0  1  0  0  0  0  0  0  0  0
    4.4988   -3.2598    2.0492 C   0  0  0  1  0  0  0  0  0  0  0  0
    5.4461   -3.2475    0.8439 C   0  0  0  1  0  0  0  0  0  0  0  0
    4.5510   -3.2365   -0.4054 C   0  0  0  1  0  0  0  0  0  0  0  0
    6.3090   -4.4665    0.8513 N   0  0  0  1  0  0  0  0  0  0  0  0
    0.9179    2.4772    0.0989 H   0  0  0  1  0  0  0  0  0  0  0  0
   -2.1490    1.9441   -0.0608 H   0  0  0  1  0  0  0  0  0  0  0  0
   -2.9137   -2.4737    1.7084 H   0  0  0  1  0  0  0  0  0  0  0  0
   -3.4860   -4.8305    1.6449 H   0  0  0  1  0  0  0  0  0  0  0  0
   -1.4082   -5.2355   -1.9810 H   0  0  0  1  0  0  0  0  0  0  0  0
   -0.8367   -2.8826   -1.9177 H   0  0  0  1  0  0  0  0  0  0  0  0
   -1.2673   -7.3151   -1.1276 H   0  0  0  1  0  0  0  0  0  0  0  0
   -2.6897   -6.9941   -2.0901 H   0  0  0  1  0  0  0  0  0  0  0  0
   -2.6694   -8.3478   -0.9849 H   0  0  0  1  0  0  0  0  0  0  0  0
    3.9878   -0.7759    0.2997 H   0  0  0  1  0  0  0  0  0  0  0  0
    2.3980   -3.0702   -0.5612 H   0  0  0  1  0  0  0  0  0  0  0  0
    2.8348   -4.4363    1.3688 H   0  0  0  1  0  0  0  0  0  0  0  0
    2.3801   -2.9044    2.0765 H   0  0  0  1  0  0  0  0  0  0  0  0
    4.5815   -2.3459    2.5997 H   0  0  0  1  0  0  0  0  0  0  0  0
    4.7219   -4.0855    2.6922 H   0  0  0  1  0  0  0  0  0  0  0  0
    6.0627   -2.3734    0.8658 H   0  0  0  1  0  0  0  0  0  0  0  0
    4.9485   -2.5739   -1.1457 H   0  0  0  1  0  0  0  0  0  0  0  0
    4.4672   -4.2212   -0.8155 H   0  0  0  1  0  0  0  0  0  0  0  0
    5.7625   -5.2529    1.0593 H   0  0  0  1  0  0  0  0  0  0  0  0
    7.0090   -4.3667    1.5300 H   0  0  0  1  0  0  0  0  0  0  0  0
  1  2  4  0  0  0  0
  1  6  4  0  0  0  0
  1 18  1  0  0  0  0
  2  3  4  0  0  0  0
  3  4  4  0  0  0  0
  3 25  1  0  0  0  0
  4  5  4  0  0  0  0
  4  7  4  0  0  0  0
  5  6  4  0  0  0  0
  5  9  4  0  0  0  0
  7  8  4  0  0  0  0
  7 26  1  0  0  0  0
  8  9  4  0  0  0  0
  9 10  1  0  0  0  0
 10 11  4  0  0  0  0
 10 15  4  0  0  0  0
 11 12  4  0  0  0  0
 11 27  1  0  0  0  0
 12 13  4  0  0  0  0
 12 28  1  0  0  0  0
 13 14  4  0  0  0  0
 13 16  1  0  0  0  0
 14 15  4  0  0  0  0
 14 29  1  0  0  0  0
 15 30  1  0  0  0  0
 16 17  1  0  0  0  0
 17 31  1  0  0  0  0
 17 32  1  0  0  0  0
 17 33  1  0  0  0  0
 18 19  1  0  0  0  0
 18 34  1  0  0  0  0
 19 20  1  0  0  0  0
 19 23  1  0  0  0  0
 19 35  1  0  0  0  0
 20 21  1  0  0  0  0
 20 36  1  0  0  0  0
 20 37  1  0  0  0  0
 21 22  1  0  0  0  0
 21 38  1  0  0  0  0
 21 39  1  0  0  0  0
 22 23  1  0  0  0  0
 22 24  1  0  0  0  0
 22 40  1  0  0  0  0
 23 41  1  0  0  0  0
 23 42  1  0  0  0  0
 24 43  1  0  0  0  0
 24 44  1  0  0  0  0
M  END
> <ConfClashScore>
0 

> <ConfOneFourInteractionScore>
-0.984337 

> <ConfScore>
-0.0572708 

> <ConfScorePBest>
0.00391311 

> <ConfTolerance>
0.238649 

$$$$
c22.sdf
 OpenBabel04162418103D

 44 47  0  0  0  0  0  0  0  0999 V2000
    1.9452   -0.6102    0.1256 C   0  0  0  1  0  0  0  0  0  0  0  0
    2.0363    0.7233    0.1482 N   0  0  0  1  0  0  0  0  0  0  0  0
    0.8946    1.4375    0.0881 C   0  0  0  1  0  0  0  0  0  0  0  0
   -0.3452    0.7386    0.0096 C   0  0  0  1  0  0  0  0  0  0  0  0
   -0.2528   -0.6477    0.0020 C   0  0  0  1  0  0  0  0  0  0  0  0
    0.8779   -1.3913    0.0539 N   0  0  0  1  0  0  0  0  0  0  0  0
   -1.7304    0.9921   -0.0538 C   0  0  0  1  0  0  0  0  0  0  0  0
   -2.4281   -0.1190   -0.1028 N   0  0  0  1  0  0  0  0  0  0  0  0
   -1.5125   -1.1341   -0.0681 N   0  0  0  1  0  0  0  0  0  0  0  0
   -1.8419   -2.5193   -0.1013 C   0  0  0  1  0  0  0  0  0  0  0  0
   -1.2362   -3.3948    0.7799 C   0  0  0  1  0  0  0  0  0  0  0  0
   -1.5607   -4.7421    0.7511 C   0  0  0  1  0  0  0  0  0  0  0  0
   -2.4861   -5.2108   -0.1624 C   0  0  0  1  0  0  0  0  0  0  0  0
   -3.0936   -4.3325   -1.0462 C   0  0  0  1  0  0  0  0  0  0  0  0
   -2.7700   -2.9890   -1.0175 C   0  0  0  1  0  0  0  0  0  0  0  0
   -2.7993   -6.5279   -0.1940 O   0  0  0  1  0  0  0  0  0  0  0  0
   -2.2283   -7.3628    0.8256 C   0  0  0  1  0  0  0  0  0  0  0  0
    3.1213   -1.2605    0.1849 N   0  0  0  1  0  0  0  0  0  0  0  0
    4.4126   -0.5949    0.3043 C   0  0  0  1  0  0  0  0  0  0  0  0
    4.8174    0.0641   -1.0072 C   0  0  0  1  0  0  0  0  0  0  0  0
    6.3347    0.1880   -0.9783 C   0  0  0  1  0  0  0  0  0  0  0  0
    6.8186   -0.8018    0.0836 C   0  0  0  1  0  0  0  0  0  0  0  0
    5.5731   -1.6358    0.5247 C   0  0  0  1  0  0  0  0  0  0  0  0
    7.3898   -0.0574    1.2650 N   0  0  0  1  0  0  0  0  0  0  0  0
    0.9179    2.4772    0.0988 H   0  0  0  1  0  0  0  0  0  0  0  0
   -2.1489    1.9441   -0.0608 H   0  0  0  1  0  0  0  0  0  0  0  0
   -0.5369   -3.0428    1.4645 H   0  0  0  1  0  0  0  0  0  0  0  0
   -1.1079   -5.4004    1.4168 H   0  0  0  1  0  0  0  0  0  0  0  0
   -3.7929   -4.6844   -1.7308 H   0  0  0  1  0  0  0  0  0  0  0  0
   -3.2228   -2.3308   -1.6832 H   0  0  0  1  0  0  0  0  0  0  0  0
   -1.1613   -7.2914    0.7897 H   0  0  0  1  0  0  0  0  0  0  0  0
   -2.5232   -8.3782    0.6613 H   0  0  0  1  0  0  0  0  0  0  0  0
   -2.5750   -7.0409    1.7854 H   0  0  0  1  0  0  0  0  0  0  0  0
    3.1092   -2.2396    0.1455 H   0  0  0  1  0  0  0  0  0  0  0  0
    4.3746    0.1181    1.1012 H   0  0  0  1  0  0  0  0  0  0  0  0
    4.3690    1.0322   -1.0882 H   0  0  0  1  0  0  0  0  0  0  0  0
    4.5118   -0.5414   -1.8348 H   0  0  0  1  0  0  0  0  0  0  0  0
    6.7462   -0.0616   -1.9339 H   0  0  0  1  0  0  0  0  0  0  0  0
    6.6212    1.1847   -0.7153 H   0  0  0  1  0  0  0  0  0  0  0  0
    7.5666   -1.4467   -0.3279 H   0  0  0  1  0  0  0  0  0  0  0  0
    5.6437   -1.9327    1.5504 H   0  0  0  1  0  0  0  0  0  0  0  0
    5.4442   -2.5023   -0.0897 H   0  0  0  1  0  0  0  0  0  0  0  0
    6.6997    0.5204    1.6526 H   0  0  0  1  0  0  0  0  0  0  0  0
    8.1469    0.4908    0.9705 H   0  0  0  1  0  0  0  0  0  0  0  0
  1  2  4  0  0  0  0
  1  6  4  0  0  0  0
  1 18  1  0  0  0  0
  2  3  4  0  0  0  0
  3  4  4  0  0  0  0
  3 25  1  0  0  0  0
  4  5  4  0  0  0  0
  4  7  4  0  0  0  0
  5  6  4  0  0  0  0
  5  9  4  0  0  0  0
  7  8  4  0  0  0  0
  7 26  1  0  0  0  0
  8  9  4  0  0  0  0
  9 10  1  0  0  0  0
 10 11  4  0  0  0  0
 10 15  4  0  0  0  0
 11 12  4  0  0  0  0
 11 27  1  0  0  0  0
 12 13  4  0  0  0  0
 12 28  1  0  0  0  0
 13 14  4  0  0  0  0
 13 16  1  0  0  0  0
 14 15  4  0  0  0  0
 14 29  1  0  0  0  0
 15 30  1  0  0  0  0
 16 17  1  0  0  0  0
 17 31  1  0  0  0  0
 17 32  1  0  0  0  0
 17 33  1  0  0  0  0
 18 19  1  0  0  0  0
 18 34  1  0  0  0  0
 19 20  1  0  0  0  0
 19 23  1  0  0  0  0
 19 35  1  0  0  0  0
 20 21  1  0  0  0  0
 20 36  1  0  0  0  0
 20 37  1  0  0  0  0
 21 22  1  0  0  0  0
 21 38  1  0  0  0  0
 21 39  1  0  0  0  0
 22 23  1  0  0  0  0
 22 24  1  0  0  0  0
 22 40  1  0  0  0  0
 23 41  1  0  0  0  0
 23 42  1  0  0  0  0
 24 43  1  0  0  0  0
 24 44  1  0  0  0  0
M  END
> <ConfClashScore>
0 

> <ConfOneFourInteractionScore>
-0.984337 

> <ConfScore>
-0.0569451 

> <ConfScorePBest>
0.00389978 

> <ConfTolerance>
0.224386 

$$$$
c22.sdf
 OpenBabel04162418103D

 44 47  0  0  0  0  0  0  0  0999 V2000
    1.9452   -0.6101    0.1254 C   0  0  0  1  0  0  0  0  0  0  0  0
    2.0363    0.7234    0.1481 N   0  0  0  1  0  0  0  0  0  0  0  0
    0.8946    1.4376    0.0881 C   0  0  0  1  0  0  0  0  0  0  0  0
   -0.3453    0.7386    0.0096 C   0  0  0  1  0  0  0  0  0  0  0  0
   -0.2528   -0.6477    0.0020 C   0  0  0  1  0  0  0  0  0  0  0  0
    0.8779   -1.3912    0.0538 N   0  0  0  1  0  0  0  0  0  0  0  0
   -1.7304    0.9921   -0.0538 C   0  0  0  1  0  0  0  0  0  0  0  0
   -2.4281   -0.1191   -0.1028 N   0  0  0  1  0  0  0  0  0  0  0  0
   -1.5125   -1.1342   -0.0681 N   0  0  0  1  0  0  0  0  0  0  0  0
   -1.8385   -2.5051   -0.1011 C   0  0  0  1  0  0  0  0  0  0  0  0
   -2.3748   -3.0079   -1.2714 C   0  0  0  1  0  0  0  0  0  0  0  0
   -2.7083   -4.3505   -1.3600 C   0  0  0  1  0  0  0  0  0  0  0  0
   -2.5097   -5.1851   -0.2764 C   0  0  0  1  0  0  0  0  0  0  0  0
   -1.9719   -4.6805    0.8974 C   0  0  0  1  0  0  0  0  0  0  0  0
   -1.6392   -3.3419    0.9859 C   0  0  0  1  0  0  0  0  0  0  0  0
   -2.8775   -6.4726   -0.4786 O   0  0  0  1  0  0  0  0  0  0  0  0
   -2.8314   -7.3539    0.6544 C   0  0  0  1  0  0  0  0  0  0  0  0
    3.1257   -1.2628    0.1849 N   0  0  0  1  0  0  0  0  0  0  0  0
    4.4068   -0.6113    0.4838 C   0  0  0  1  0  0  0  0  0  0  0  0
    5.0899   -0.1507   -0.7998 C   0  0  0  1  0  0  0  0  0  0  0  0
    6.1667   -1.1868   -1.1445 C   0  0  0  1  0  0  0  0  0  0  0  0
    6.6984   -1.5928    0.2709 C   0  0  0  1  0  0  0  0  0  0  0  0
    5.4135   -1.6328    1.1186 C   0  0  0  1  0  0  0  0  0  0  0  0
    7.6450   -0.5908    0.7895 N   0  0  0  1  0  0  0  0  0  0  0  0
    0.9178    2.4773    0.0988 H   0  0  0  1  0  0  0  0  0  0  0  0
   -2.1490    1.9441   -0.0607 H   0  0  0  1  0  0  0  0  0  0  0  0
   -2.5280   -2.3792   -2.0855 H   0  0  0  1  0  0  0  0  0  0  0  0
   -3.1082   -4.7298   -2.2420 H   0  0  0  1  0  0  0  0  0  0  0  0
   -1.8186   -5.3093    1.7116 H   0  0  0  1  0  0  0  0  0  0  0  0
   -1.2394   -2.9626    1.8678 H   0  0  0  1  0  0  0  0  0  0  0  0
   -3.0635   -8.3504    0.3414 H   0  0  0  1  0  0  0  0  0  0  0  0
   -3.5457   -7.0340    1.3840 H   0  0  0  1  0  0  0  0  0  0  0  0
   -1.8507   -7.3338    1.0818 H   0  0  0  1  0  0  0  0  0  0  0  0
    3.1275   -2.2286    0.0188 H   0  0  0  1  0  0  0  0  0  0  0  0
    4.2418    0.2159    1.1422 H   0  0  0  1  0  0  0  0  0  0  0  0
    5.5400    0.8084   -0.6504 H   0  0  0  1  0  0  0  0  0  0  0  0
    4.3742   -0.0897   -1.5930 H   0  0  0  1  0  0  0  0  0  0  0  0
    6.9429   -0.7557   -1.7415 H   0  0  0  1  0  0  0  0  0  0  0  0
    5.7468   -2.0271   -1.6570 H   0  0  0  1  0  0  0  0  0  0  0  0
    7.1724   -2.5518    0.2442 H   0  0  0  1  0  0  0  0  0  0  0  0
    5.6316   -1.3531    2.1282 H   0  0  0  1  0  0  0  0  0  0  0  0
    4.9949   -2.6175    1.1034 H   0  0  0  1  0  0  0  0  0  0  0  0
    8.5046   -0.6833    0.3281 H   0  0  0  1  0  0  0  0  0  0  0  0
    7.7741   -0.7305    1.7510 H   0  0  0  1  0  0  0  0  0  0  0  0
  1  2  4  0  0  0  0
  1  6  4  0  0  0  0
  1 18  1  0  0  0  0
  2  3  4  0  0  0  0
  3  4  4  0  0  0  0
  3 25  1  0  0  0  0
  4  5  4  0  0  0  0
  4  7  4  0  0  0  0
  5  6  4  0  0  0  0
  5  9  4  0  0  0  0
  7  8  4  0  0  0  0
  7 26  1  0  0  0  0
  8  9  4  0  0  0  0
  9 10  1  0  0  0  0
 10 11  4  0  0  0  0
 10 15  4  0  0  0  0
 11 12  4  0  0  0  0
 11 27  1  0  0  0  0
 12 13  4  0  0  0  0
 12 28  1  0  0  0  0
 13 14  4  0  0  0  0
 13 16  1  0  0  0  0
 14 15  4  0  0  0  0
 14 29  1  0  0  0  0
 15 30  1  0  0  0  0
 16 17  1  0  0  0  0
 17 31  1  0  0  0  0
 17 32  1  0  0  0  0
 17 33  1  0  0  0  0
 18 19  1  0  0  0  0
 18 34  1  0  0  0  0
 19 20  1  0  0  0  0
 19 23  1  0  0  0  0
 19 35  1  0  0  0  0
 20 21  1  0  0  0  0
 20 36  1  0  0  0  0
 20 37  1  0  0  0  0
 21 22  1  0  0  0  0
 21 38  1  0  0  0  0
 21 39  1  0  0  0  0
 22 23  1  0  0  0  0
 22 24  1  0  0  0  0
 22 40  1  0  0  0  0
 23 41  1  0  0  0  0
 23 42  1  0  0  0  0
 24 43  1  0  0  0  0
 24 44  1  0  0  0  0
M  END
> <ConfClashScore>
0 

> <ConfOneFourInteractionScore>
-0.984337 

> <ConfScore>
-0.0566948 

> <ConfScorePBest>
0.00388645 

> <ConfTolerance>
0.323044 

$$$$
c22.sdf
 OpenBabel04162418103D

 44 47  0  0  0  0  0  0  0  0999 V2000
    1.9453   -0.6102    0.1254 C   0  0  0  1  0  0  0  0  0  0  0  0
    2.0363    0.7233    0.1480 N   0  0  0  1  0  0  0  0  0  0  0  0
    0.8946    1.4376    0.0881 C   0  0  0  1  0  0  0  0  0  0  0  0
   -0.3452    0.7386    0.0096 C   0  0  0  1  0  0  0  0  0  0  0  0
   -0.2528   -0.6478    0.0019 C   0  0  0  1  0  0  0  0  0  0  0  0
    0.8780   -1.3913    0.0537 N   0  0  0  1  0  0  0  0  0  0  0  0
   -1.7303    0.9921   -0.0538 C   0  0  0  1  0  0  0  0  0  0  0  0
   -2.4281   -0.1192   -0.1028 N   0  0  0  1  0  0  0  0  0  0  0  0
   -1.5125   -1.1341   -0.0681 N   0  0  0  1  0  0  0  0  0  0  0  0
   -1.8418   -2.5193   -0.1013 C   0  0  0  1  0  0  0  0  0  0  0  0
   -1.5457   -3.2732   -1.2212 C   0  0  0  1  0  0  0  0  0  0  0  0
   -1.8615   -4.6226   -1.2515 C   0  0  0  1  0  0  0  0  0  0  0  0
   -2.4772   -5.2129   -0.1639 C   0  0  0  1  0  0  0  0  0  0  0  0
   -2.7740   -4.4566    0.9593 C   0  0  0  1  0  0  0  0  0  0  0  0
   -2.4593   -3.1112    0.9895 C   0  0  0  1  0  0  0  0  0  0  0  0
   -2.8145   -6.5168   -0.1317 O   0  0  0  1  0  0  0  0  0  0  0  0
   -2.3393   -7.2999   -1.2514 C   0  0  0  1  0  0  0  0  0  0  0  0
    3.1380   -1.2696    0.1856 N   0  0  0  1  0  0  0  0  0  0  0  0
    4.4161   -0.5519    0.1759 C   0  0  0  1  0  0  0  0  0  0  0  0
    4.9754   -0.4919   -1.2471 C   0  0  0  1  0  0  0  0  0  0  0  0
    6.2216   -1.3668   -1.2456 C   0  0  0  1  0  0  0  0  0  0  0  0
    6.1111   -2.2741   -0.0279 C   0  0  0  1  0  0  0  0  0  0  0  0
    5.4680   -1.3156    1.0429 C   0  0  0  1  0  0  0  0  0  0  0  0
    7.4561   -2.7554    0.4134 N   0  0  0  1  0  0  0  0  0  0  0  0
    0.9179    2.4772    0.0988 H   0  0  0  1  0  0  0  0  0  0  0  0
   -2.1490    1.9440   -0.0607 H   0  0  0  1  0  0  0  0  0  0  0  0
   -1.0862   -2.8281   -2.0412 H   0  0  0  1  0  0  0  0  0  0  0  0
   -1.6351   -5.1908   -2.0926 H   0  0  0  1  0  0  0  0  0  0  0  0
   -3.2336   -4.9017    1.7792 H   0  0  0  1  0  0  0  0  0  0  0  0
   -2.6856   -2.5429    1.8306 H   0  0  0  1  0  0  0  0  0  0  0  0
   -2.1418   -8.3008   -0.9290 H   0  0  0  1  0  0  0  0  0  0  0  0
   -1.4399   -6.8648   -1.6343 H   0  0  0  1  0  0  0  0  0  0  0  0
   -3.0846   -7.3132   -2.0189 H   0  0  0  1  0  0  0  0  0  0  0  0
    3.1404   -2.2482    0.2366 H   0  0  0  1  0  0  0  0  0  0  0  0
    4.2731    0.4375    0.5573 H   0  0  0  1  0  0  0  0  0  0  0  0
    4.2573   -0.8693   -1.9449 H   0  0  0  1  0  0  0  0  0  0  0  0
    5.2287    0.5152   -1.5047 H   0  0  0  1  0  0  0  0  0  0  0  0
    6.2632   -1.9523   -2.1403 H   0  0  0  1  0  0  0  0  0  0  0  0
    7.0995   -0.7592   -1.1753 H   0  0  0  1  0  0  0  0  0  0  0  0
    5.4785   -3.1141   -0.2262 H   0  0  0  1  0  0  0  0  0  0  0  0
    6.1941   -0.6473    1.4567 H   0  0  0  1  0  0  0  0  0  0  0  0
    4.9999   -1.8669    1.8313 H   0  0  0  1  0  0  0  0  0  0  0  0
    7.3575   -3.3160    1.2112 H   0  0  0  1  0  0  0  0  0  0  0  0
    8.0254   -1.9858    0.6237 H   0  0  0  1  0  0  0  0  0  0  0  0
  1  2  4  0  0  0  0
  1  6  4  0  0  0  0
  1 18  1  0  0  0  0
  2  3  4  0  0  0  0
  3  4  4  0  0  0  0
  3 25  1  0  0  0  0
  4  5  4  0  0  0  0
  4  7  4  0  0  0  0
  5  6  4  0  0  0  0
  5  9  4  0  0  0  0
  7  8  4  0  0  0  0
  7 26  1  0  0  0  0
  8  9  4  0  0  0  0
  9 10  1  0  0  0  0
 10 11  4  0  0  0  0
 10 15  4  0  0  0  0
 11 12  4  0  0  0  0
 11 27  1  0  0  0  0
 12 13  4  0  0  0  0
 12 28  1  0  0  0  0
 13 14  4  0  0  0  0
 13 16  1  0  0  0  0
 14 15  4  0  0  0  0
 14 29  1  0  0  0  0
 15 30  1  0  0  0  0
 16 17  1  0  0  0  0
 17 31  1  0  0  0  0
 17 32  1  0  0  0  0
 17 33  1  0  0  0  0
 18 19  1  0  0  0  0
 18 34  1  0  0  0  0
 19 20  1  0  0  0  0
 19 23  1  0  0  0  0
 19 35  1  0  0  0  0
 20 21  1  0  0  0  0
 20 36  1  0  0  0  0
 20 37  1  0  0  0  0
 21 22  1  0  0  0  0
 21 38  1  0  0  0  0
 21 39  1  0  0  0  0
 22 23  1  0  0  0  0
 22 24  1  0  0  0  0
 22 40  1  0  0  0  0
 23 41  1  0  0  0  0
 23 42  1  0  0  0  0
 24 43  1  0  0  0  0
 24 44  1  0  0  0  0
M  END
> <ConfClashScore>
0 

> <ConfOneFourInteractionScore>
-0.984337 

> <ConfScore>
-0.0566785 

> <ConfScorePBest>
0.00387312 

> <ConfTolerance>
0.333826 

$$$$
c22.sdf
 OpenBabel04162418103D

 44 47  0  0  0  0  0  0  0  0999 V2000
    1.9453   -0.6102    0.1256 C   0  0  0  1  0  0  0  0  0  0  0  0
    2.0363    0.7233    0.1482 N   0  0  0  1  0  0  0  0  0  0  0  0
    0.8945    1.4376    0.0881 C   0  0  0  1  0  0  0  0  0  0  0  0
   -0.3452    0.7386    0.0096 C   0  0  0  1  0  0  0  0  0  0  0  0
   -0.2528   -0.6477    0.0020 C   0  0  0  1  0  0  0  0  0  0  0  0
    0.8780   -1.3913    0.0538 N   0  0  0  1  0  0  0  0  0  0  0  0
   -1.7303    0.9921   -0.0538 C   0  0  0  1  0  0  0  0  0  0  0  0
   -2.4282   -0.1191   -0.1028 N   0  0  0  1  0  0  0  0  0  0  0  0
   -1.5125   -1.1342   -0.0681 N   0  0  0  1  0  0  0  0  0  0  0  0
   -1.8396   -2.5098   -0.1011 C   0  0  0  1  0  0  0  0  0  0  0  0
   -1.2857   -3.3742    0.8243 C   0  0  0  1  0  0  0  0  0  0  0  0
   -1.6105   -4.7214    0.7953 C   0  0  0  1  0  0  0  0  0  0  0  0
   -2.4840   -5.2014   -0.1623 C   0  0  0  1  0  0  0  0  0  0  0  0
   -3.0394   -4.3344   -1.0904 C   0  0  0  1  0  0  0  0  0  0  0  0
   -2.7157   -2.9911   -1.0615 C   0  0  0  1  0  0  0  0  0  0  0  0
   -2.8684   -6.4996   -0.1319 O   0  0  0  1  0  0  0  0  0  0  0  0
   -2.4632   -7.2775    1.0054 C   0  0  0  1  0  0  0  0  0  0  0  0
    3.1257   -1.2629    0.1851 N   0  0  0  1  0  0  0  0  0  0  0  0
    3.2526   -2.7238    0.1923 C   0  0  0  1  0  0  0  0  0  0  0  0
    3.9249   -3.1990    1.5112 C   0  0  0  1  0  0  0  0  0  0  0  0
    5.2962   -3.7796    1.1231 C   0  0  0  1  0  0  0  0  0  0  0  0
    5.5985   -3.2488   -0.2915 C   0  0  0  1  0  0  0  0  0  0  0  0
    4.1890   -3.1921   -0.9722 C   0  0  0  1  0  0  0  0  0  0  0  0
    6.5128   -4.1820   -1.0297 N   0  0  0  1  0  0  0  0  0  0  0  0
    0.9179    2.4773    0.0988 H   0  0  0  1  0  0  0  0  0  0  0  0
   -2.1490    1.9441   -0.0607 H   0  0  0  1  0  0  0  0  0  0  0  0
   -0.6254   -3.0138    1.5425 H   0  0  0  1  0  0  0  0  0  0  0  0
   -1.1969   -5.3711    1.4941 H   0  0  0  1  0  0  0  0  0  0  0  0
   -3.6998   -4.6948   -1.8085 H   0  0  0  1  0  0  0  0  0  0  0  0
   -3.1293   -2.3413   -1.7604 H   0  0  0  1  0  0  0  0  0  0  0  0
   -2.8464   -8.2721    0.9126 H   0  0  0  1  0  0  0  0  0  0  0  0
   -2.8464   -6.8296    1.8984 H   0  0  0  1  0  0  0  0  0  0  0  0
   -1.3947   -7.3101    1.0524 H   0  0  0  1  0  0  0  0  0  0  0  0
    3.9463   -0.7286    0.2259 H   0  0  0  1  0  0  0  0  0  0  0  0
    2.2842   -3.1670    0.0898 H   0  0  0  1  0  0  0  0  0  0  0  0
    4.0499   -2.3731    2.1798 H   0  0  0  1  0  0  0  0  0  0  0  0
    3.3255   -3.9509    1.9805 H   0  0  0  1  0  0  0  0  0  0  0  0
    5.2590   -4.8489    1.1186 H   0  0  0  1  0  0  0  0  0  0  0  0
    6.0467   -3.4512    1.8114 H   0  0  0  1  0  0  0  0  0  0  0  0
    6.0410   -2.2756   -0.2478 H   0  0  0  1  0  0  0  0  0  0  0  0
    4.1798   -2.4893   -1.7790 H   0  0  0  1  0  0  0  0  0  0  0  0
    3.8984   -4.1559   -1.3349 H   0  0  0  1  0  0  0  0  0  0  0  0
    6.6631   -3.8432   -1.9368 H   0  0  0  1  0  0  0  0  0  0  0  0
    6.1029   -5.0710   -1.0770 H   0  0  0  1  0  0  0  0  0  0  0  0
  1  2  4  0  0  0  0
  1  6  4  0  0  0  0
  1 18  1  0  0  0  0
  2  3  4  0  0  0  0
  3  4  4  0  0  0  0
  3 25  1  0  0  0  0
  4  5  4  0  0  0  0
  4  7  4  0  0  0  0
  5  6  4  0  0  0  0
  5  9  4  0  0  0  0
  7  8  4  0  0  0  0
  7 26  1  0  0  0  0
  8  9  4  0  0  0  0
  9 10  1  0  0  0  0
 10 11  4  0  0  0  0
 10 15  4  0  0  0  0
 11 12  4  0  0  0  0
 11 27  1  0  0  0  0
 12 13  4  0  0  0  0
 12 28  1  0  0  0  0
 13 14  4  0  0  0  0
 13 16  1  0  0  0  0
 14 15  4  0  0  0  0
 14 29  1  0  0  0  0
 15 30  1  0  0  0  0
 16 17  1  0  0  0  0
 17 31  1  0  0  0  0
 17 32  1  0  0  0  0
 17 33  1  0  0  0  0
 18 19  1  0  0  0  0
 18 34  1  0  0  0  0
 19 20  1  0  0  0  0
 19 23  1  0  0  0  0
 19 35  1  0  0  0  0
 20 21  1  0  0  0  0
 20 36  1  0  0  0  0
 20 37  1  0  0  0  0
 21 22  1  0  0  0  0
 21 38  1  0  0  0  0
 21 39  1  0  0  0  0
 22 23  1  0  0  0  0
 22 24  1  0  0  0  0
 22 40  1  0  0  0  0
 23 41  1  0  0  0  0
 23 42  1  0  0  0  0
 24 43  1  0  0  0  0
 24 44  1  0  0  0  0
M  END
> <ConfClashScore>
0 

> <ConfOneFourInteractionScore>
-0.984337 

> <ConfScore>
-0.0563918 

> <ConfScorePBest>
0.0038598 

> <ConfTolerance>
0.295191 

$$$$
c22.sdf
 OpenBabel04162418103D

 44 47  0  0  0  0  0  0  0  0999 V2000
    1.9452   -0.6102    0.1256 C   0  0  0  1  0  0  0  0  0  0  0  0
    2.0363    0.7233    0.1481 N   0  0  0  1  0  0  0  0  0  0  0  0
    0.8946    1.4376    0.0881 C   0  0  0  1  0  0  0  0  0  0  0  0
   -0.3452    0.7386    0.0096 C   0  0  0  1  0  0  0  0  0  0  0  0
   -0.2528   -0.6477    0.0020 C   0  0  0  1  0  0  0  0  0  0  0  0
    0.8780   -1.3912    0.0538 N   0  0  0  1  0  0  0  0  0  0  0  0
   -1.7304    0.9921   -0.0538 C   0  0  0  1  0  0  0  0  0  0  0  0
   -2.4281   -0.1191   -0.1029 N   0  0  0  1  0  0  0  0  0  0  0  0
   -1.5125   -1.1341   -0.0681 N   0  0  0  1  0  0  0  0  0  0  0  0
   -1.8421   -2.5200   -0.1015 C   0  0  0  1  0  0  0  0  0  0  0  0
   -1.8825   -3.1929   -1.3079 C   0  0  0  1  0  0  0  0  0  0  0  0
   -2.2879   -4.5178   -1.3492 C   0  0  0  1  0  0  0  0  0  0  0  0
   -2.6568   -5.1644   -0.1847 C   0  0  0  1  0  0  0  0  0  0  0  0
   -2.6161   -4.4894    1.0254 C   0  0  0  1  0  0  0  0  0  0  0  0
   -2.2120   -3.1682    1.0667 C   0  0  0  1  0  0  0  0  0  0  0  0
   -3.0732   -6.4503   -0.1018 O   0  0  0  1  0  0  0  0  0  0  0  0
   -3.1643   -7.1910   -1.3289 C   0  0  0  1  0  0  0  0  0  0  0  0
    3.1379   -1.2696    0.1857 N   0  0  0  1  0  0  0  0  0  0  0  0
    4.4160   -0.5543    0.1458 C   0  0  0  1  0  0  0  0  0  0  0  0
    5.5025   -1.4320   -0.4864 C   0  0  0  1  0  0  0  0  0  0  0  0
    6.5128   -1.7361    0.6311 C   0  0  0  1  0  0  0  0  0  0  0  0
    5.7569   -1.4782    1.9373 C   0  0  0  1  0  0  0  0  0  0  0  0
    4.9060   -0.2592    1.5581 C   0  0  0  1  0  0  0  0  0  0  0  0
    6.6865   -1.1658    3.0491 N   0  0  0  1  0  0  0  0  0  0  0  0
    0.9179    2.4772    0.0988 H   0  0  0  1  0  0  0  0  0  0  0  0
   -2.1490    1.9441   -0.0608 H   0  0  0  1  0  0  0  0  0  0  0  0
   -1.6089   -2.7052   -2.1849 H   0  0  0  1  0  0  0  0  0  0  0  0
   -2.3145   -5.0253   -2.2566 H   0  0  0  1  0  0  0  0  0  0  0  0
   -2.8897   -4.9770    1.9023 H   0  0  0  1  0  0  0  0  0  0  0  0
   -2.1853   -2.6607    1.9740 H   0  0  0  1  0  0  0  0  0  0  0  0
   -3.8845   -6.7296   -1.9718 H   0  0  0  1  0  0  0  0  0  0  0  0
   -3.4669   -8.1952   -1.1175 H   0  0  0  1  0  0  0  0  0  0  0  0
   -2.2094   -7.1997   -1.8117 H   0  0  0  1  0  0  0  0  0  0  0  0
    3.1400   -2.2470    0.2574 H   0  0  0  1  0  0  0  0  0  0  0  0
    4.2998    0.3542   -0.4074 H   0  0  0  1  0  0  0  0  0  0  0  0
    5.0758   -2.3402   -0.8576 H   0  0  0  1  0  0  0  0  0  0  0  0
    5.9819   -0.9091   -1.2874 H   0  0  0  1  0  0  0  0  0  0  0  0
    6.8343   -2.7553    0.5788 H   0  0  0  1  0  0  0  0  0  0  0  0
    7.3618   -1.0893    0.5552 H   0  0  0  1  0  0  0  0  0  0  0  0
    5.1453   -2.3137    2.2071 H   0  0  0  1  0  0  0  0  0  0  0  0
    5.4967    0.6328    1.5738 H   0  0  0  1  0  0  0  0  0  0  0  0
    4.0798   -0.1523    2.2294 H   0  0  0  1  0  0  0  0  0  0  0  0
    7.1627   -0.3321    2.8530 H   0  0  0  1  0  0  0  0  0  0  0  0
    7.3331   -1.8955    3.1487 H   0  0  0  1  0  0  0  0  0  0  0  0
  1  2  4  0  0  0  0
  1  6  4  0  0  0  0
  1 18  1  0  0  0  0
  2  3  4  0  0  0  0
  3  4  4  0  0  0  0
  3 25  1  0  0  0  0
  4  5  4  0  0  0  0
  4  7  4  0  0  0  0
  5  6  4  0  0  0  0
  5  9  4  0  0  0  0
  7  8  4  0  0  0  0
  7 26  1  0  0  0  0
  8  9  4  0  0  0  0
  9 10  1  0  0  0  0
 10 11  4  0  0  0  0
 10 15  4  0  0  0  0
 11 12  4  0  0  0  0
 11 27  1  0  0  0  0
 12 13  4  0  0  0  0
 12 28  1  0  0  0  0
 13 14  4  0  0  0  0
 13 16  1  0  0  0  0
 14 15  4  0  0  0  0
 14 29  1  0  0  0  0
 15 30  1  0  0  0  0
 16 17  1  0  0  0  0
 17 31  1  0  0  0  0
 17 32  1  0  0  0  0
 17 33  1  0  0  0  0
 18 19  1  0  0  0  0
 18 34  1  0  0  0  0
 19 20  1  0  0  0  0
 19 23  1  0  0  0  0
 19 35  1  0  0  0  0
 20 21  1  0  0  0  0
 20 36  1  0  0  0  0
 20 37  1  0  0  0  0
 21 22  1  0  0  0  0
 21 38  1  0  0  0  0
 21 39  1  0  0  0  0
 22 23  1  0  0  0  0
 22 24  1  0  0  0  0
 22 40  1  0  0  0  0
 23 41  1  0  0  0  0
 23 42  1  0  0  0  0
 24 43  1  0  0  0  0
 24 44  1  0  0  0  0
M  END
> <ConfClashScore>
0 

> <ConfOneFourInteractionScore>
-0.984337 

> <ConfScore>
-0.0552243 

> <ConfScorePBest>
0.00384647 

> <ConfTolerance>
0.339162 

$$$$
c22.sdf
 OpenBabel04162418103D

 44 47  0  0  0  0  0  0  0  0999 V2000
    1.9453   -0.6102    0.1254 C   0  0  0  1  0  0  0  0  0  0  0  0
    2.0363    0.7233    0.1480 N   0  0  0  1  0  0  0  0  0  0  0  0
    0.8946    1.4376    0.0881 C   0  0  0  1  0  0  0  0  0  0  0  0
   -0.3452    0.7386    0.0096 C   0  0  0  1  0  0  0  0  0  0  0  0
   -0.2528   -0.6478    0.0019 C   0  0  0  1  0  0  0  0  0  0  0  0
    0.8780   -1.3912    0.0538 N   0  0  0  1  0  0  0  0  0  0  0  0
   -1.7304    0.9921   -0.0538 C   0  0  0  1  0  0  0  0  0  0  0  0
   -2.4281   -0.1191   -0.1028 N   0  0  0  1  0  0  0  0  0  0  0  0
   -1.5126   -1.1342   -0.0681 N   0  0  0  1  0  0  0  0  0  0  0  0
   -1.8396   -2.5099   -0.1012 C   0  0  0  1  0  0  0  0  0  0  0  0
   -2.7025   -2.9919   -1.0673 C   0  0  0  1  0  0  0  0  0  0  0  0
   -3.0188   -4.3410   -1.1030 C   0  0  0  1  0  0  0  0  0  0  0  0
   -2.4756   -5.2033   -0.1692 C   0  0  0  1  0  0  0  0  0  0  0  0
   -1.6103   -4.7197    0.7997 C   0  0  0  1  0  0  0  0  0  0  0  0
   -1.2948   -3.3745    0.8354 C   0  0  0  1  0  0  0  0  0  0  0  0
   -2.8609   -6.4949   -0.2999 O   0  0  0  1  0  0  0  0  0  0  0  0
   -2.5025   -7.3970    0.7585 C   0  0  0  1  0  0  0  0  0  0  0  0
    3.1324   -1.2664    0.1852 N   0  0  0  1  0  0  0  0  0  0  0  0
    3.2022   -2.7281    0.2182 C   0  0  0  1  0  0  0  0  0  0  0  0
    4.0519   -3.2115    1.4094 C   0  0  0  1  0  0  0  0  0  0  0  0
    4.6169   -4.5831    1.0001 C   0  0  0  1  0  0  0  0  0  0  0  0
    4.4734   -4.6811   -0.5449 C   0  0  0  1  0  0  0  0  0  0  0  0
    3.9713   -3.2795   -1.0300 C   0  0  0  1  0  0  0  0  0  0  0  0
    3.4915   -5.7290   -0.9027 N   0  0  0  1  0  0  0  0  0  0  0  0
    0.9179    2.4772    0.0988 H   0  0  0  1  0  0  0  0  0  0  0  0
   -2.1490    1.9441   -0.0607 H   0  0  0  1  0  0  0  0  0  0  0  0
   -3.1144   -2.3425   -1.7675 H   0  0  0  1  0  0  0  0  0  0  0  0
   -3.6649   -4.7045   -1.8324 H   0  0  0  1  0  0  0  0  0  0  0  0
   -1.1984   -5.3690    1.4999 H   0  0  0  1  0  0  0  0  0  0  0  0
   -0.6487   -3.0110    1.5648 H   0  0  0  1  0  0  0  0  0  0  0  0
   -2.8910   -7.0316    1.6861 H   0  0  0  1  0  0  0  0  0  0  0  0
   -1.4366   -7.4669    0.8215 H   0  0  0  1  0  0  0  0  0  0  0  0
   -2.9126   -8.3644    0.5565 H   0  0  0  1  0  0  0  0  0  0  0  0
    3.9638   -0.7482    0.2069 H   0  0  0  1  0  0  0  0  0  0  0  0
    2.2125   -3.1321    0.2662 H   0  0  0  1  0  0  0  0  0  0  0  0
    3.4442   -3.3064    2.2849 H   0  0  0  1  0  0  0  0  0  0  0  0
    4.8488   -2.5235    1.6006 H   0  0  0  1  0  0  0  0  0  0  0  0
    4.0620   -5.3665    1.4724 H   0  0  0  1  0  0  0  0  0  0  0  0
    5.6471   -4.6561    1.2801 H   0  0  0  1  0  0  0  0  0  0  0  0
    5.4188   -4.9103   -0.9909 H   0  0  0  1  0  0  0  0  0  0  0  0
    3.3181   -3.3756   -1.8720 H   0  0  0  1  0  0  0  0  0  0  0  0
    4.7933   -2.6443   -1.2863 H   0  0  0  1  0  0  0  0  0  0  0  0
    2.6070   -5.4778   -0.5637 H   0  0  0  1  0  0  0  0  0  0  0  0
    3.7640   -6.5815   -0.5037 H   0  0  0  1  0  0  0  0  0  0  0  0
  1  2  4  0  0  0  0
  1  6  4  0  0  0  0
  1 18  1  0  0  0  0
  2  3  4  0  0  0  0
  3  4  4  0  0  0  0
  3 25  1  0  0  0  0
  4  5  4  0  0  0  0
  4  7  4  0  0  0  0
  5  6  4  0  0  0  0
  5  9  4  0  0  0  0
  7  8  4  0  0  0  0
  7 26  1  0  0  0  0
  8  9  4  0  0  0  0
  9 10  1  0  0  0  0
 10 11  4  0  0  0  0
 10 15  4  0  0  0  0
 11 12  4  0  0  0  0
 11 27  1  0  0  0  0
 12 13  4  0  0  0  0
 12 28  1  0  0  0  0
 13 14  4  0  0  0  0
 13 16  1  0  0  0  0
 14 15  4  0  0  0  0
 14 29  1  0  0  0  0
 15 30  1  0  0  0  0
 16 17  1  0  0  0  0
 17 31  1  0  0  0  0
 17 32  1  0  0  0  0
 17 33  1  0  0  0  0
 18 19  1  0  0  0  0
 18 34  1  0  0  0  0
 19 20  1  0  0  0  0
 19 23  1  0  0  0  0
 19 35  1  0  0  0  0
 20 21  1  0  0  0  0
 20 36  1  0  0  0  0
 20 37  1  0  0  0  0
 21 22  1  0  0  0  0
 21 38  1  0  0  0  0
 21 39  1  0  0  0  0
 22 23  1  0  0  0  0
 22 24  1  0  0  0  0
 22 40  1  0  0  0  0
 23 41  1  0  0  0  0
 23 42  1  0  0  0  0
 24 43  1  0  0  0  0
 24 44  1  0  0  0  0
M  END
> <ConfClashScore>
0 

> <ConfOneFourInteractionScore>
-0.984337 

> <ConfScore>
-0.0533894 

> <ConfScorePBest>
0.00383314 

> <ConfTolerance>
0.280816 

$$$$
c22.sdf
 OpenBabel04162418103D

 44 47  0  0  0  0  0  0  0  0999 V2000
    1.9452   -0.6102    0.1256 C   0  0  0  1  0  0  0  0  0  0  0  0
    2.0363    0.7232    0.1482 N   0  0  0  1  0  0  0  0  0  0  0  0
    0.8946    1.4376    0.0881 C   0  0  0  1  0  0  0  0  0  0  0  0
   -0.3452    0.7386    0.0096 C   0  0  0  1  0  0  0  0  0  0  0  0
   -0.2528   -0.6477    0.0020 C   0  0  0  1  0  0  0  0  0  0  0  0
    0.8780   -1.3913    0.0539 N   0  0  0  1  0  0  0  0  0  0  0  0
   -1.7303    0.9920   -0.0538 C   0  0  0  1  0  0  0  0  0  0  0  0
   -2.4281   -0.1191   -0.1028 N   0  0  0  1  0  0  0  0  0  0  0  0
   -1.5126   -1.1341   -0.0681 N   0  0  0  1  0  0  0  0  0  0  0  0
   -1.8417   -2.5184   -0.1013 C   0  0  0  1  0  0  0  0  0  0  0  0
   -1.3907   -3.3600    0.8979 C   0  0  0  1  0  0  0  0  0  0  0  0
   -1.7158   -4.7072    0.8683 C   0  0  0  1  0  0  0  0  0  0  0  0
   -2.4864   -5.2099   -0.1631 C   0  0  0  1  0  0  0  0  0  0  0  0
   -2.9387   -4.3656   -1.1652 C   0  0  0  1  0  0  0  0  0  0  0  0
   -2.6146   -3.0223   -1.1359 C   0  0  0  1  0  0  0  0  0  0  0  0
   -2.7996   -6.5270   -0.1946 O   0  0  0  1  0  0  0  0  0  0  0  0
   -2.4423   -7.3141    0.9523 C   0  0  0  1  0  0  0  0  0  0  0  0
    3.1257   -1.2629    0.1852 N   0  0  0  1  0  0  0  0  0  0  0  0
    4.4315   -0.6116    0.0106 C   0  0  0  1  0  0  0  0  0  0  0  0
    5.3567   -1.4410   -0.9419 C   0  0  0  1  0  0  0  0  0  0  0  0
    5.8884   -2.5520   -0.0177 C   0  0  0  1  0  0  0  0  0  0  0  0
    5.9102   -1.9725    1.4396 C   0  0  0  1  0  0  0  0  0  0  0  0
    5.2321   -0.6115    1.3186 C   0  0  0  1  0  0  0  0  0  0  0  0
    7.2907   -1.8239    1.9186 N   0  0  0  1  0  0  0  0  0  0  0  0
    0.9179    2.4772    0.0988 H   0  0  0  1  0  0  0  0  0  0  0  0
   -2.1490    1.9440   -0.0608 H   0  0  0  1  0  0  0  0  0  0  0  0
   -0.8075   -2.9826    1.6719 H   0  0  0  1  0  0  0  0  0  0  0  0
   -1.3798   -5.3398    1.6224 H   0  0  0  1  0  0  0  0  0  0  0  0
   -3.5219   -4.7430   -1.9392 H   0  0  0  1  0  0  0  0  0  0  0  0
   -2.9505   -2.3897   -1.8899 H   0  0  0  1  0  0  0  0  0  0  0  0
   -2.6490   -8.3454    0.7562 H   0  0  0  1  0  0  0  0  0  0  0  0
   -3.0125   -6.9909    1.7981 H   0  0  0  1  0  0  0  0  0  0  0  0
   -1.3991   -7.1924    1.1572 H   0  0  0  1  0  0  0  0  0  0  0  0
    3.1108   -2.2280    0.3549 H   0  0  0  1  0  0  0  0  0  0  0  0
    4.2884    0.3831   -0.3568 H   0  0  0  1  0  0  0  0  0  0  0  0
    6.1565   -0.8401   -1.3218 H   0  0  0  1  0  0  0  0  0  0  0  0
    4.8001   -1.8521   -1.7580 H   0  0  0  1  0  0  0  0  0  0  0  0
    6.8769   -2.8340   -0.3147 H   0  0  0  1  0  0  0  0  0  0  0  0
    5.2448   -3.4055   -0.0629 H   0  0  0  1  0  0  0  0  0  0  0  0
    5.3668   -2.6078    2.1074 H   0  0  0  1  0  0  0  0  0  0  0  0
    5.9695    0.1635    1.2956 H   0  0  0  1  0  0  0  0  0  0  0  0
    4.5756   -0.4552    2.1490 H   0  0  0  1  0  0  0  0  0  0  0  0
    7.7549   -1.1530    1.3756 H   0  0  0  1  0  0  0  0  0  0  0  0
    7.7562   -2.6830    1.8442 H   0  0  0  1  0  0  0  0  0  0  0  0
  1  2  4  0  0  0  0
  1  6  4  0  0  0  0
  1 18  1  0  0  0  0
  2  3  4  0  0  0  0
  3  4  4  0  0  0  0
  3 25  1  0  0  0  0
  4  5  4  0  0  0  0
  4  7  4  0  0  0  0
  5  6  4  0  0  0  0
  5  9  4  0  0  0  0
  7  8  4  0  0  0  0
  7 26  1  0  0  0  0
  8  9  4  0  0  0  0
  9 10  1  0  0  0  0
 10 11  4  0  0  0  0
 10 15  4  0  0  0  0
 11 12  4  0  0  0  0
 11 27  1  0  0  0  0
 12 13  4  0  0  0  0
 12 28  1  0  0  0  0
 13 14  4  0  0  0  0
 13 16  1  0  0  0  0
 14 15  4  0  0  0  0
 14 29  1  0  0  0  0
 15 30  1  0  0  0  0
 16 17  1  0  0  0  0
 17 31  1  0  0  0  0
 17 32  1  0  0  0  0
 17 33  1  0  0  0  0
 18 19  1  0  0  0  0
 18 34  1  0  0  0  0
 19 20  1  0  0  0  0
 19 23  1  0  0  0  0
 19 35  1  0  0  0  0
 20 21  1  0  0  0  0
 20 36  1  0  0  0  0
 20 37  1  0  0  0  0
 21 22  1  0  0  0  0
 21 38  1  0  0  0  0
 21 39  1  0  0  0  0
 22 23  1  0  0  0  0
 22 24  1  0  0  0  0
 22 40  1  0  0  0  0
 23 41  1  0  0  0  0
 23 42  1  0  0  0  0
 24 43  1  0  0  0  0
 24 44  1  0  0  0  0
M  END
> <ConfClashScore>
0 

> <ConfOneFourInteractionScore>
-0.984337 

> <ConfScore>
-0.0533894 

> <ConfScorePBest>
0.00381981 

> <ConfTolerance>
0.302413 

$$$$
c22.sdf
 OpenBabel04162418103D

 44 47  0  0  0  0  0  0  0  0999 V2000
    1.9452   -0.6102    0.1255 C   0  0  0  1  0  0  0  0  0  0  0  0
    2.0363    0.7233    0.1481 N   0  0  0  1  0  0  0  0  0  0  0  0
    0.8946    1.4376    0.0881 C   0  0  0  1  0  0  0  0  0  0  0  0
   -0.3453    0.7386    0.0096 C   0  0  0  1  0  0  0  0  0  0  0  0
   -0.2529   -0.6478    0.0020 C   0  0  0  1  0  0  0  0  0  0  0  0
    0.8779   -1.3912    0.0538 N   0  0  0  1  0  0  0  0  0  0  0  0
   -1.7304    0.9921   -0.0538 C   0  0  0  1  0  0  0  0  0  0  0  0
   -2.4282   -0.1192   -0.1027 N   0  0  0  1  0  0  0  0  0  0  0  0
   -1.5125   -1.1342   -0.0681 N   0  0  0  1  0  0  0  0  0  0  0  0
   -1.8397   -2.5099   -0.1011 C   0  0  0  1  0  0  0  0  0  0  0  0
   -1.6656   -3.2888    1.0273 C   0  0  0  1  0  0  0  0  0  0  0  0
   -1.9912   -4.6357    0.9965 C   0  0  0  1  0  0  0  0  0  0  0  0
   -2.4848   -5.2012   -0.1640 C   0  0  0  1  0  0  0  0  0  0  0  0
   -2.6595   -4.4199   -1.2956 C   0  0  0  1  0  0  0  0  0  0  0  0
   -2.3348   -3.0768   -1.2652 C   0  0  0  1  0  0  0  0  0  0  0  0
   -2.8316   -6.5016   -0.3149 O   0  0  0  1  0  0  0  0  0  0  0  0
   -2.7313   -7.3460    0.8423 C   0  0  0  1  0  0  0  0  0  0  0  0
    3.1214   -1.2604    0.1847 N   0  0  0  1  0  0  0  0  0  0  0  0
    3.2458   -2.7197    0.2587 C   0  0  0  1  0  0  0  0  0  0  0  0
    4.6088   -3.1076    0.8438 C   0  0  0  1  0  0  0  0  0  0  0  0
    5.3541   -3.7984   -0.2914 C   0  0  0  1  0  0  0  0  0  0  0  0
    4.2530   -4.4365   -1.1482 C   0  0  0  1  0  0  0  0  0  0  0  0
    3.1942   -3.3306   -1.1506 C   0  0  0  1  0  0  0  0  0  0  0  0
    3.7329   -5.6889   -0.5246 N   0  0  0  1  0  0  0  0  0  0  0  0
    0.9178    2.4773    0.0987 H   0  0  0  1  0  0  0  0  0  0  0  0
   -2.1491    1.9441   -0.0607 H   0  0  0  1  0  0  0  0  0  0  0  0
   -1.2903   -2.8642    1.8994 H   0  0  0  1  0  0  0  0  0  0  0  0
   -1.8640   -5.2209    1.8468 H   0  0  0  1  0  0  0  0  0  0  0  0
   -3.0348   -4.8444   -2.1678 H   0  0  0  1  0  0  0  0  0  0  0  0
   -2.4620   -2.4915   -2.1153 H   0  0  0  1  0  0  0  0  0  0  0  0
   -1.7031   -7.4523    1.1190 H   0  0  0  1  0  0  0  0  0  0  0  0
   -3.1413   -8.3085    0.6179 H   0  0  0  1  0  0  0  0  0  0  0  0
   -3.2747   -6.9064    1.6525 H   0  0  0  1  0  0  0  0  0  0  0  0
    3.9436   -0.7274    0.1781 H   0  0  0  1  0  0  0  0  0  0  0  0
    2.4566   -3.1153    0.8633 H   0  0  0  1  0  0  0  0  0  0  0  0
    4.4848   -3.7750    1.6709 H   0  0  0  1  0  0  0  0  0  0  0  0
    5.1401   -2.2361    1.1647 H   0  0  0  1  0  0  0  0  0  0  0  0
    5.9128   -3.0875   -0.8635 H   0  0  0  1  0  0  0  0  0  0  0  0
    6.0152   -4.5472    0.0920 H   0  0  0  1  0  0  0  0  0  0  0  0
    4.6003   -4.6479   -2.1379 H   0  0  0  1  0  0  0  0  0  0  0  0
    2.2250   -3.7396   -1.3468 H   0  0  0  1  0  0  0  0  0  0  0  0
    3.4258   -2.5913   -1.8886 H   0  0  0  1  0  0  0  0  0  0  0  0
    2.8748   -5.9264   -0.9341 H   0  0  0  1  0  0  0  0  0  0  0  0
    3.6075   -5.5472    0.4369 H   0  0  0  1  0  0  0  0  0  0  0  0
  1  2  4  0  0  0  0
  1  6  4  0  0  0  0
  1 18  1  0  0  0  0
  2  3  4  0  0  0  0
  3  4  4  0  0  0  0
  3 25  1  0  0  0  0
  4  5  4  0  0  0  0
  4  7  4  0  0  0  0
  5  6  4  0  0  0  0
  5  9  4  0  0  0  0
  7  8  4  0  0  0  0
  7 26  1  0  0  0  0
  8  9  4  0  0  0  0
  9 10  1  0  0  0  0
 10 11  4  0  0  0  0
 10 15  4  0  0  0  0
 11 12  4  0  0  0  0
 11 27  1  0  0  0  0
 12 13  4  0  0  0  0
 12 28  1  0  0  0  0
 13 14  4  0  0  0  0
 13 16  1  0  0  0  0
 14 15  4  0  0  0  0
 14 29  1  0  0  0  0
 15 30  1  0  0  0  0
 16 17  1  0  0  0  0
 17 31  1  0  0  0  0
 17 32  1  0  0  0  0
 17 33  1  0  0  0  0
 18 19  1  0  0  0  0
 18 34  1  0  0  0  0
 19 20  1  0  0  0  0
 19 23  1  0  0  0  0
 19 35  1  0  0  0  0
 20 21  1  0  0  0  0
 20 36  1  0  0  0  0
 20 37  1  0  0  0  0
 21 22  1  0  0  0  0
 21 38  1  0  0  0  0
 21 39  1  0  0  0  0
 22 23  1  0  0  0  0
 22 24  1  0  0  0  0
 22 40  1  0  0  0  0
 23 41  1  0  0  0  0
 23 42  1  0  0  0  0
 24 43  1  0  0  0  0
 24 44  1  0  0  0  0
M  END
> <ConfClashScore>
0 

> <ConfOneFourInteractionScore>
-0.984337 

> <ConfScore>
-0.0533015 

> <ConfScorePBest>
0.00380648 

> <ConfTolerance>
0.291324 

$$$$
c22.sdf
 OpenBabel04162418103D

 44 47  0  0  0  0  0  0  0  0999 V2000
    1.9452   -0.6102    0.1255 C   0  0  0  1  0  0  0  0  0  0  0  0
    2.0363    0.7233    0.1481 N   0  0  0  1  0  0  0  0  0  0  0  0
    0.8946    1.4376    0.0881 C   0  0  0  1  0  0  0  0  0  0  0  0
   -0.3452    0.7386    0.0096 C   0  0  0  1  0  0  0  0  0  0  0  0
   -0.2528   -0.6477    0.0020 C   0  0  0  1  0  0  0  0  0  0  0  0
    0.8780   -1.3913    0.0539 N   0  0  0  1  0  0  0  0  0  0  0  0
   -1.7304    0.9920   -0.0538 C   0  0  0  1  0  0  0  0  0  0  0  0
   -2.4281   -0.1192   -0.1028 N   0  0  0  1  0  0  0  0  0  0  0  0
   -1.5125   -1.1341   -0.0681 N   0  0  0  1  0  0  0  0  0  0  0  0
   -1.8422   -2.5207   -0.1014 C   0  0  0  1  0  0  0  0  0  0  0  0
   -1.2418   -3.3961    0.7836 C   0  0  0  1  0  0  0  0  0  0  0  0
   -1.4964   -4.7557    0.6936 C   0  0  0  1  0  0  0  0  0  0  0  0
   -2.3464   -5.2364   -0.2845 C   0  0  0  1  0  0  0  0  0  0  0  0
   -2.9485   -4.3583   -1.1722 C   0  0  0  1  0  0  0  0  0  0  0  0
   -2.6947   -3.0027   -1.0825 C   0  0  0  1  0  0  0  0  0  0  0  0
   -2.5476   -6.5680   -0.3215 O   0  0  0  1  0  0  0  0  0  0  0  0
   -3.6162   -7.0016   -1.1948 C   0  0  0  1  0  0  0  0  0  0  0  0
    3.1213   -1.2603    0.1848 N   0  0  0  1  0  0  0  0  0  0  0  0
    4.4166   -0.5929    0.3238 C   0  0  0  1  0  0  0  0  0  0  0  0
    5.5351   -1.6261    0.7000 C   0  0  0  1  0  0  0  0  0  0  0  0
    5.9921   -1.3007    2.1341 C   0  0  0  1  0  0  0  0  0  0  0  0
    5.7243    0.2381    2.2420 C   0  0  0  1  0  0  0  0  0  0  0  0
    4.3951    0.3878    1.4918 C   0  0  0  1  0  0  0  0  0  0  0  0
    6.8098    1.0241    1.5829 N   0  0  0  1  0  0  0  0  0  0  0  0
    0.9179    2.4773    0.0988 H   0  0  0  1  0  0  0  0  0  0  0  0
   -2.1490    1.9441   -0.0607 H   0  0  0  1  0  0  0  0  0  0  0  0
   -0.5991   -3.0348    1.5171 H   0  0  0  1  0  0  0  0  0  0  0  0
   -1.0479   -5.4141    1.3621 H   0  0  0  1  0  0  0  0  0  0  0  0
   -3.5912   -4.7195   -1.9056 H   0  0  0  1  0  0  0  0  0  0  0  0
   -3.1432   -2.3442   -1.7510 H   0  0  0  1  0  0  0  0  0  0  0  0
   -4.5117   -6.4670   -0.9560 H   0  0  0  1  0  0  0  0  0  0  0  0
   -3.7813   -8.0506   -1.0624 H   0  0  0  1  0  0  0  0  0  0  0  0
   -3.3460   -6.8082   -2.2119 H   0  0  0  1  0  0  0  0  0  0  0  0
    3.1103   -2.2389    0.1319 H   0  0  0  1  0  0  0  0  0  0  0  0
    4.6585   -0.0891   -0.5887 H   0  0  0  1  0  0  0  0  0  0  0  0
    5.1443   -2.6212    0.6568 H   0  0  0  1  0  0  0  0  0  0  0  0
    6.3593   -1.5363    0.0236 H   0  0  0  1  0  0  0  0  0  0  0  0
    5.4163   -1.8435    2.8544 H   0  0  0  1  0  0  0  0  0  0  0  0
    7.0305   -1.5215    2.2672 H   0  0  0  1  0  0  0  0  0  0  0  0
    5.6305    0.5449    3.2627 H   0  0  0  1  0  0  0  0  0  0  0  0
    3.5791    0.1601    2.1453 H   0  0  0  1  0  0  0  0  0  0  0  0
    4.2922    1.3884    1.1270 H   0  0  0  1  0  0  0  0  0  0  0  0
    7.6653    0.8307    2.0200 H   0  0  0  1  0  0  0  0  0  0  0  0
    6.6127    1.9809    1.6599 H   0  0  0  1  0  0  0  0  0  0  0  0
  1  2  4  0  0  0  0
  1  6  4  0  0  0  0
  1 18  1  0  0  0  0
  2  3  4  0  0  0  0
  3  4  4  0  0  0  0
  3 25  1  0  0  0  0
  4  5  4  0  0  0  0
  4  7  4  0  0  0  0
  5  6  4  0  0  0  0
  5  9  4  0  0  0  0
  7  8  4  0  0  0  0
  7 26  1  0  0  0  0
  8  9  4  0  0  0  0
  9 10  1  0  0  0  0
 10 11  4  0  0  0  0
 10 15  4  0  0  0  0
 11 12  4  0  0  0  0
 11 27  1  0  0  0  0
 12 13  4  0  0  0  0
 12 28  1  0  0  0  0
 13 14  4  0  0  0  0
 13 16  1  0  0  0  0
 14 15  4  0  0  0  0
 14 29  1  0  0  0  0
 15 30  1  0  0  0  0
 16 17  1  0  0  0  0
 17 31  1  0  0  0  0
 17 32  1  0  0  0  0
 17 33  1  0  0  0  0
 18 19  1  0  0  0  0
 18 34  1  0  0  0  0
 19 20  1  0  0  0  0
 19 23  1  0  0  0  0
 19 35  1  0  0  0  0
 20 21  1  0  0  0  0
 20 36  1  0  0  0  0
 20 37  1  0  0  0  0
 21 22  1  0  0  0  0
 21 38  1  0  0  0  0
 21 39  1  0  0  0  0
 22 23  1  0  0  0  0
 22 24  1  0  0  0  0
 22 40  1  0  0  0  0
 23 41  1  0  0  0  0
 23 42  1  0  0  0  0
 24 43  1  0  0  0  0
 24 44  1  0  0  0  0
M  END
> <ConfClashScore>
0 

> <ConfOneFourInteractionScore>
-0.985399 

> <ConfScore>
-0.0515754 

> <ConfScorePBest>
0.00379316 

> <ConfTolerance>
0.215901 

$$$$
c22.sdf
 OpenBabel04162418103D

 44 47  0  0  0  0  0  0  0  0999 V2000
    1.9453   -0.6103    0.1257 C   0  0  0  1  0  0  0  0  0  0  0  0
    2.0363    0.7232    0.1482 N   0  0  0  1  0  0  0  0  0  0  0  0
    0.8945    1.4375    0.0881 C   0  0  0  1  0  0  0  0  0  0  0  0
   -0.3452    0.7386    0.0096 C   0  0  0  1  0  0  0  0  0  0  0  0
   -0.2528   -0.6477    0.0021 C   0  0  0  1  0  0  0  0  0  0  0  0
    0.8779   -1.3913    0.0540 N   0  0  0  1  0  0  0  0  0  0  0  0
   -1.7303    0.9921   -0.0538 C   0  0  0  1  0  0  0  0  0  0  0  0
   -2.4281   -0.1191   -0.1029 N   0  0  0  1  0  0  0  0  0  0  0  0
   -1.5125   -1.1342   -0.0681 N   0  0  0  1  0  0  0  0  0  0  0  0
   -1.8419   -2.5193   -0.1013 C   0  0  0  1  0  0  0  0  0  0  0  0
   -2.7297   -3.0406    0.8208 C   0  0  0  1  0  0  0  0  0  0  0  0
   -3.0544   -4.3877    0.7850 C   0  0  0  1  0  0  0  0  0  0  0  0
   -2.4863   -5.2106   -0.1692 C   0  0  0  1  0  0  0  0  0  0  0  0
   -1.5958   -4.6875   -1.0938 C   0  0  0  1  0  0  0  0  0  0  0  0
   -1.2720   -3.3443   -1.0583 C   0  0  0  1  0  0  0  0  0  0  0  0
   -2.8742   -6.5064   -0.1026 O   0  0  0  1  0  0  0  0  0  0  0  0
   -2.4767   -7.3666   -1.1818 C   0  0  0  1  0  0  0  0  0  0  0  0
    3.1257   -1.2629    0.1853 N   0  0  0  1  0  0  0  0  0  0  0  0
    4.4215   -0.5965    0.2250 C   0  0  0  1  0  0  0  0  0  0  0  0
    5.0391   -0.5487   -1.1670 C   0  0  0  1  0  0  0  0  0  0  0  0
    6.5526   -0.6112   -0.9236 C   0  0  0  1  0  0  0  0  0  0  0  0
    6.6355   -1.6576    0.1911 C   0  0  0  1  0  0  0  0  0  0  0  0
    5.4100   -1.3967    1.0812 C   0  0  0  1  0  0  0  0  0  0  0  0
    7.8869   -1.4910    0.9680 N   0  0  0  1  0  0  0  0  0  0  0  0
    0.9179    2.4772    0.0988 H   0  0  0  1  0  0  0  0  0  0  0  0
   -2.1489    1.9440   -0.0608 H   0  0  0  1  0  0  0  0  0  0  0  0
   -3.1542   -2.4223    1.5412 H   0  0  0  1  0  0  0  0  0  0  0  0
   -3.7255   -4.7793    1.4762 H   0  0  0  1  0  0  0  0  0  0  0  0
   -1.1714   -5.3059   -1.8143 H   0  0  0  1  0  0  0  0  0  0  0  0
   -0.6009   -2.9528   -1.7496 H   0  0  0  1  0  0  0  0  0  0  0  0
   -3.1063   -8.2316   -1.1995 H   0  0  0  1  0  0  0  0  0  0  0  0
   -1.4600   -7.6686   -1.0409 H   0  0  0  1  0  0  0  0  0  0  0  0
   -2.5679   -6.8404   -2.1091 H   0  0  0  1  0  0  0  0  0  0  0  0
    3.1104   -2.2427    0.2028 H   0  0  0  1  0  0  0  0  0  0  0  0
    4.3027    0.3924    0.6159 H   0  0  0  1  0  0  0  0  0  0  0  0
    4.7164   -1.3846   -1.7520 H   0  0  0  1  0  0  0  0  0  0  0  0
    4.7745    0.3600   -1.6662 H   0  0  0  1  0  0  0  0  0  0  0  0
    6.9366    0.3344   -0.6021 H   0  0  0  1  0  0  0  0  0  0  0  0
    7.0771   -0.9304   -1.7998 H   0  0  0  1  0  0  0  0  0  0  0  0
    6.5980   -2.6454   -0.2185 H   0  0  0  1  0  0  0  0  0  0  0  0
    4.9703   -2.3228    1.3872 H   0  0  0  1  0  0  0  0  0  0  0  0
    5.6929   -0.8328    1.9454 H   0  0  0  1  0  0  0  0  0  0  0  0
    7.9561   -0.5654    1.2823 H   0  0  0  1  0  0  0  0  0  0  0  0
    8.6557   -1.7004    0.3975 H   0  0  0  1  0  0  0  0  0  0  0  0
  1  2  4  0  0  0  0
  1  6  4  0  0  0  0
  1 18  1  0  0  0  0
  2  3  4  0  0  0  0
  3  4  4  0  0  0  0
  3 25  1  0  0  0  0
  4  5  4  0  0  0  0
  4  7  4  0  0  0  0
  5  6  4  0  0  0  0
  5  9  4  0  0  0  0
  7  8  4  0  0  0  0
  7 26  1  0  0  0  0
  8  9  4  0  0  0  0
  9 10  1  0  0  0  0
 10 11  4  0  0  0  0
 10 15  4  0  0  0  0
 11 12  4  0  0  0  0
 11 27  1  0  0  0  0
 12 13  4  0  0  0  0
 12 28  1  0  0  0  0
 13 14  4  0  0  0  0
 13 16  1  0  0  0  0
 14 15  4  0  0  0  0
 14 29  1  0  0  0  0
 15 30  1  0  0  0  0
 16 17  1  0  0  0  0
 17 31  1  0  0  0  0
 17 32  1  0  0  0  0
 17 33  1  0  0  0  0
 18 19  1  0  0  0  0
 18 34  1  0  0  0  0
 19 20  1  0  0  0  0
 19 23  1  0  0  0  0
 19 35  1  0  0  0  0
 20 21  1  0  0  0  0
 20 36  1  0  0  0  0
 20 37  1  0  0  0  0
 21 22  1  0  0  0  0
 21 38  1  0  0  0  0
 21 39  1  0  0  0  0
 22 23  1  0  0  0  0
 22 24  1  0  0  0  0
 22 40  1  0  0  0  0
 23 41  1  0  0  0  0
 23 42  1  0  0  0  0
 24 43  1  0  0  0  0
 24 44  1  0  0  0  0
M  END
> <ConfClashScore>
0 

> <ConfOneFourInteractionScore>
-0.984337 

> <ConfScore>
-0.0508541 

> <ConfScorePBest>
0.00377983 

> <ConfTolerance>
0.334226 

$$$$
c22.sdf
 OpenBabel04162418103D

 44 47  0  0  0  0  0  0  0  0999 V2000
    1.9452   -0.6103    0.1256 C   0  0  0  1  0  0  0  0  0  0  0  0
    2.0363    0.7233    0.1481 N   0  0  0  1  0  0  0  0  0  0  0  0
    0.8946    1.4375    0.0881 C   0  0  0  1  0  0  0  0  0  0  0  0
   -0.3453    0.7386    0.0096 C   0  0  0  1  0  0  0  0  0  0  0  0
   -0.2528   -0.6478    0.0020 C   0  0  0  1  0  0  0  0  0  0  0  0
    0.8780   -1.3913    0.0539 N   0  0  0  1  0  0  0  0  0  0  0  0
   -1.7303    0.9921   -0.0538 C   0  0  0  1  0  0  0  0  0  0  0  0
   -2.4281   -0.1192   -0.1028 N   0  0  0  1  0  0  0  0  0  0  0  0
   -1.5125   -1.1341   -0.0681 N   0  0  0  1  0  0  0  0  0  0  0  0
   -1.8412   -2.5165   -0.1012 C   0  0  0  1  0  0  0  0  0  0  0  0
   -0.9949   -3.4131   -0.7257 C   0  0  0  1  0  0  0  0  0  0  0  0
   -1.3129   -4.7620   -0.7534 C   0  0  0  1  0  0  0  0  0  0  0  0
   -2.4788   -5.2097   -0.1612 C   0  0  0  1  0  0  0  0  0  0  0  0
   -3.3274   -4.3102    0.4652 C   0  0  0  1  0  0  0  0  0  0  0  0
   -3.0105   -2.9651    0.4928 C   0  0  0  1  0  0  0  0  0  0  0  0
   -2.6856   -6.5446   -0.2561 O   0  0  0  1  0  0  0  0  0  0  0  0
   -3.8222   -7.0836    0.4367 C   0  0  0  1  0  0  0  0  0  0  0  0
    3.1214   -1.2605    0.1849 N   0  0  0  1  0  0  0  0  0  0  0  0
    3.3106   -2.7134    0.2947 C   0  0  0  1  0  0  0  0  0  0  0  0
    4.7660   -3.0886    0.0024 C   0  0  0  1  0  0  0  0  0  0  0  0
    4.6195   -4.5541   -0.4270 C   0  0  0  1  0  0  0  0  0  0  0  0
    3.3725   -4.5776   -1.3020 C   0  0  0  1  0  0  0  0  0  0  0  0
    2.4829   -3.4467   -0.7727 C   0  0  0  1  0  0  0  0  0  0  0  0
    2.6758   -5.8884   -1.1811 N   0  0  0  1  0  0  0  0  0  0  0  0
    0.9179    2.4772    0.0988 H   0  0  0  1  0  0  0  0  0  0  0  0
   -2.1490    1.9441   -0.0608 H   0  0  0  1  0  0  0  0  0  0  0  0
   -0.1196   -3.0759   -1.1748 H   0  0  0  1  0  0  0  0  0  0  0  0
   -0.6742   -5.4373   -1.2198 H   0  0  0  1  0  0  0  0  0  0  0  0
   -4.2027   -4.6475    0.9143 H   0  0  0  1  0  0  0  0  0  0  0  0
   -3.6493   -2.2899    0.9592 H   0  0  0  1  0  0  0  0  0  0  0  0
   -4.7185   -6.8059   -0.0775 H   0  0  0  1  0  0  0  0  0  0  0  0
   -3.8485   -6.6959    1.4337 H   0  0  0  1  0  0  0  0  0  0  0  0
   -3.7464   -8.1503    0.4701 H   0  0  0  1  0  0  0  0  0  0  0  0
    3.9320   -0.7107    0.1517 H   0  0  0  1  0  0  0  0  0  0  0  0
    3.0296   -3.0373    1.2750 H   0  0  0  1  0  0  0  0  0  0  0  0
    5.3770   -2.9958    0.8759 H   0  0  0  1  0  0  0  0  0  0  0  0
    5.1743   -2.4891   -0.7843 H   0  0  0  1  0  0  0  0  0  0  0  0
    5.4767   -4.8716   -0.9832 H   0  0  0  1  0  0  0  0  0  0  0  0
    4.4934   -5.1866    0.4268 H   0  0  0  1  0  0  0  0  0  0  0  0
    3.6301   -4.4032   -2.3258 H   0  0  0  1  0  0  0  0  0  0  0  0
    2.2238   -2.7767   -1.5657 H   0  0  0  1  0  0  0  0  0  0  0  0
    1.5912   -3.8485   -0.3389 H   0  0  0  1  0  0  0  0  0  0  0  0
    1.8443   -5.8659   -1.6992 H   0  0  0  1  0  0  0  0  0  0  0  0
    2.4690   -6.0625   -0.2391 H   0  0  0  1  0  0  0  0  0  0  0  0
  1  2  4  0  0  0  0
  1  6  4  0  0  0  0
  1 18  1  0  0  0  0
  2  3  4  0  0  0  0
  3  4  4  0  0  0  0
  3 25  1  0  0  0  0
  4  5  4  0  0  0  0
  4  7  4  0  0  0  0
  5  6  4  0  0  0  0
  5  9  4  0  0  0  0
  7  8  4  0  0  0  0
  7 26  1  0  0  0  0
  8  9  4  0  0  0  0
  9 10  1  0  0  0  0
 10 11  4  0  0  0  0
 10 15  4  0  0  0  0
 11 12  4  0  0  0  0
 11 27  1  0  0  0  0
 12 13  4  0  0  0  0
 12 28  1  0  0  0  0
 13 14  4  0  0  0  0
 13 16  1  0  0  0  0
 14 15  4  0  0  0  0
 14 29  1  0  0  0  0
 15 30  1  0  0  0  0
 16 17  1  0  0  0  0
 17 31  1  0  0  0  0
 17 32  1  0  0  0  0
 17 33  1  0  0  0  0
 18 19  1  0  0  0  0
 18 34  1  0  0  0  0
 19 20  1  0  0  0  0
 19 23  1  0  0  0  0
 19 35  1  0  0  0  0
 20 21  1  0  0  0  0
 20 36  1  0  0  0  0
 20 37  1  0  0  0  0
 21 22  1  0  0  0  0
 21 38  1  0  0  0  0
 21 39  1  0  0  0  0
 22 23  1  0  0  0  0
 22 24  1  0  0  0  0
 22 40  1  0  0  0  0
 23 41  1  0  0  0  0
 23 42  1  0  0  0  0
 24 43  1  0  0  0  0
 24 44  1  0  0  0  0
M  END
> <ConfClashScore>
0 

> <ConfOneFourInteractionScore>
-0.985399 

> <ConfScore>
-0.0495702 

> <ConfScorePBest>
0.0037665 

> <ConfTolerance>
0.252893 

$$$$
c22.sdf
 OpenBabel04162418103D

 44 47  0  0  0  0  0  0  0  0999 V2000
    1.9453   -0.6102    0.1255 C   0  0  0  1  0  0  0  0  0  0  0  0
    2.0363    0.7233    0.1481 N   0  0  0  1  0  0  0  0  0  0  0  0
    0.8946    1.4375    0.0881 C   0  0  0  1  0  0  0  0  0  0  0  0
   -0.3453    0.7386    0.0096 C   0  0  0  1  0  0  0  0  0  0  0  0
   -0.2528   -0.6477    0.0020 C   0  0  0  1  0  0  0  0  0  0  0  0
    0.8779   -1.3912    0.0539 N   0  0  0  1  0  0  0  0  0  0  0  0
   -1.7303    0.9921   -0.0538 C   0  0  0  1  0  0  0  0  0  0  0  0
   -2.4282   -0.1191   -0.1028 N   0  0  0  1  0  0  0  0  0  0  0  0
   -1.5125   -1.1342   -0.0681 N   0  0  0  1  0  0  0  0  0  0  0  0
   -1.8419   -2.5193   -0.1015 C   0  0  0  1  0  0  0  0  0  0  0  0
   -3.0975   -2.9364    0.2981 C   0  0  0  1  0  0  0  0  0  0  0  0
   -3.4563   -4.2696    0.1755 C   0  0  0  1  0  0  0  0  0  0  0  0
   -2.5567   -5.1828   -0.3413 C   0  0  0  1  0  0  0  0  0  0  0  0
   -1.2973   -4.7643   -0.7420 C   0  0  0  1  0  0  0  0  0  0  0  0
   -0.9394   -3.4349   -0.6197 C   0  0  0  1  0  0  0  0  0  0  0  0
   -2.8678   -6.5005   -0.3688 O   0  0  0  1  0  0  0  0  0  0  0  0
   -4.2436   -6.8544   -0.1573 C   0  0  0  1  0  0  0  0  0  0  0  0
    3.1545   -1.2787    0.1865 N   0  0  0  1  0  0  0  0  0  0  0  0
    3.1246   -2.7312    0.3053 C   0  0  0  1  0  0  0  0  0  0  0  0
    4.5703   -3.2915    0.4198 C   0  0  0  1  0  0  0  0  0  0  0  0
    4.8333   -4.0994   -0.8633 C   0  0  0  1  0  0  0  0  0  0  0  0
    3.7636   -3.6491   -1.8769 C   0  0  0  1  0  0  0  0  0  0  0  0
    2.5070   -3.3678   -0.9851 C   0  0  0  1  0  0  0  0  0  0  0  0
    3.4857   -4.7138   -2.8562 N   0  0  0  1  0  0  0  0  0  0  0  0
    0.9179    2.4773    0.0988 H   0  0  0  1  0  0  0  0  0  0  0  0
   -2.1490    1.9440   -0.0608 H   0  0  0  1  0  0  0  0  0  0  0  0
   -3.7730   -2.2500    0.6907 H   0  0  0  1  0  0  0  0  0  0  0  0
   -4.4025   -4.5829    0.4723 H   0  0  0  1  0  0  0  0  0  0  0  0
   -0.6218   -5.4506   -1.1345 H   0  0  0  1  0  0  0  0  0  0  0  0
    0.0068   -3.1217   -0.9165 H   0  0  0  1  0  0  0  0  0  0  0  0
   -4.3822   -7.8934   -0.3720 H   0  0  0  1  0  0  0  0  0  0  0  0
   -4.8652   -6.2709   -0.8040 H   0  0  0  1  0  0  0  0  0  0  0  0
   -4.5085   -6.6624    0.8614 H   0  0  0  1  0  0  0  0  0  0  0  0
    4.0040   -0.7915    0.1510 H   0  0  0  1  0  0  0  0  0  0  0  0
    2.5512   -3.0075    1.1654 H   0  0  0  1  0  0  0  0  0  0  0  0
    4.6535   -3.9250    1.2780 H   0  0  0  1  0  0  0  0  0  0  0  0
    5.2722   -2.4877    0.4998 H   0  0  0  1  0  0  0  0  0  0  0  0
    5.8129   -3.8906   -1.2396 H   0  0  0  1  0  0  0  0  0  0  0  0
    4.7416   -5.1474   -0.6676 H   0  0  0  1  0  0  0  0  0  0  0  0
    4.0734   -2.7631   -2.3907 H   0  0  0  1  0  0  0  0  0  0  0  0
    1.8382   -2.6861   -1.4676 H   0  0  0  1  0  0  0  0  0  0  0  0
    1.9880   -4.2750   -0.7555 H   0  0  0  1  0  0  0  0  0  0  0  0
    2.7450   -4.4396   -3.4363 H   0  0  0  1  0  0  0  0  0  0  0  0
    3.2427   -5.5370   -2.3834 H   0  0  0  1  0  0  0  0  0  0  0  0
  1  2  4  0  0  0  0
  1  6  4  0  0  0  0
  1 18  1  0  0  0  0
  2  3  4  0  0  0  0
  3  4  4  0  0  0  0
  3 25  1  0  0  0  0
  4  5  4  0  0  0  0
  4  7  4  0  0  0  0
  5  6  4  0  0  0  0
  5  9  4  0  0  0  0
  7  8  4  0  0  0  0
  7 26  1  0  0  0  0
  8  9  4  0  0  0  0
  9 10  1  0  0  0  0
 10 11  4  0  0  0  0
 10 15  4  0  0  0  0
 11 12  4  0  0  0  0
 11 27  1  0  0  0  0
 12 13  4  0  0  0  0
 12 28  1  0  0  0  0
 13 14  4  0  0  0  0
 13 16  1  0  0  0  0
 14 15  4  0  0  0  0
 14 29  1  0  0  0  0
 15 30  1  0  0  0  0
 16 17  1  0  0  0  0
 17 31  1  0  0  0  0
 17 32  1  0  0  0  0
 17 33  1  0  0  0  0
 18 19  1  0  0  0  0
 18 34  1  0  0  0  0
 19 20  1  0  0  0  0
 19 23  1  0  0  0  0
 19 35  1  0  0  0  0
 20 21  1  0  0  0  0
 20 36  1  0  0  0  0
 20 37  1  0  0  0  0
 21 22  1  0  0  0  0
 21 38  1  0  0  0  0
 21 39  1  0  0  0  0
 22 23  1  0  0  0  0
 22 24  1  0  0  0  0
 22 40  1  0  0  0  0
 23 41  1  0  0  0  0
 23 42  1  0  0  0  0
 24 43  1  0  0  0  0
 24 44  1  0  0  0  0
M  END
> <ConfClashScore>
0 

> <ConfOneFourInteractionScore>
-0.981848 

> <ConfScore>
-0.0495702 

> <ConfScorePBest>
0.00375317 

> <ConfTolerance>
0.290138 

$$$$
c22.sdf
 OpenBabel04162418103D

 44 47  0  0  0  0  0  0  0  0999 V2000
    1.9452   -0.6102    0.1255 C   0  0  0  1  0  0  0  0  0  0  0  0
    2.0363    0.7233    0.1481 N   0  0  0  1  0  0  0  0  0  0  0  0
    0.8946    1.4376    0.0881 C   0  0  0  1  0  0  0  0  0  0  0  0
   -0.3453    0.7386    0.0096 C   0  0  0  1  0  0  0  0  0  0  0  0
   -0.2529   -0.6477    0.0020 C   0  0  0  1  0  0  0  0  0  0  0  0
    0.8779   -1.3913    0.0538 N   0  0  0  1  0  0  0  0  0  0  0  0
   -1.7303    0.9921   -0.0538 C   0  0  0  1  0  0  0  0  0  0  0  0
   -2.4281   -0.1191   -0.1028 N   0  0  0  1  0  0  0  0  0  0  0  0
   -1.5126   -1.1342   -0.0681 N   0  0  0  1  0  0  0  0  0  0  0  0
   -1.8416   -2.5178   -0.1012 C   0  0  0  1  0  0  0  0  0  0  0  0
   -2.7486   -2.9902   -1.0309 C   0  0  0  1  0  0  0  0  0  0  0  0
   -3.0651   -4.3393   -1.0667 C   0  0  0  1  0  0  0  0  0  0  0  0
   -2.4778   -5.2112   -0.1694 C   0  0  0  1  0  0  0  0  0  0  0  0
   -1.5680   -4.7372    0.7630 C   0  0  0  1  0  0  0  0  0  0  0  0
   -1.2524   -3.3921    0.7988 C   0  0  0  1  0  0  0  0  0  0  0  0
   -2.8657   -6.4951   -0.2956 O   0  0  0  1  0  0  0  0  0  0  0  0
   -2.2687   -7.4109    0.6519 C   0  0  0  1  0  0  0  0  0  0  0  0
    3.1213   -1.2604    0.1849 N   0  0  0  1  0  0  0  0  0  0  0  0
    3.3105   -2.7101    0.2572 C   0  0  0  1  0  0  0  0  0  0  0  0
    4.8265   -3.0536    0.2933 C   0  0  0  1  0  0  0  0  0  0  0  0
    5.1459   -3.7796   -1.0255 C   0  0  0  1  0  0  0  0  0  0  0  0
    3.9766   -3.4654   -1.9786 C   0  0  0  1  0  0  0  0  0  0  0  0
    2.7344   -3.3965   -1.0269 C   0  0  0  1  0  0  0  0  0  0  0  0
    3.8123   -4.5382   -2.9851 N   0  0  0  1  0  0  0  0  0  0  0  0
    0.9179    2.4772    0.0988 H   0  0  0  1  0  0  0  0  0  0  0  0
   -2.1490    1.9441   -0.0608 H   0  0  0  1  0  0  0  0  0  0  0  0
   -3.1936   -2.3337   -1.7035 H   0  0  0  1  0  0  0  0  0  0  0  0
   -3.7445   -4.6955   -1.7689 H   0  0  0  1  0  0  0  0  0  0  0  0
   -1.1230   -5.3938    1.4357 H   0  0  0  1  0  0  0  0  0  0  0  0
   -0.5729   -3.0358    1.5010 H   0  0  0  1  0  0  0  0  0  0  0  0
   -1.2452   -7.5794    0.3894 H   0  0  0  1  0  0  0  0  0  0  0  0
   -2.7993   -8.3399    0.6323 H   0  0  0  1  0  0  0  0  0  0  0  0
   -2.3202   -6.9907    1.6346 H   0  0  0  1  0  0  0  0  0  0  0  0
    3.9315   -0.7091    0.1791 H   0  0  0  1  0  0  0  0  0  0  0  0
    2.8237   -3.0907    1.1307 H   0  0  0  1  0  0  0  0  0  0  0  0
    5.4060   -2.1575    0.3707 H   0  0  0  1  0  0  0  0  0  0  0  0
    5.0405   -3.6904    1.1260 H   0  0  0  1  0  0  0  0  0  0  0  0
    5.2176   -4.8344   -0.8609 H   0  0  0  1  0  0  0  0  0  0  0  0
    6.0660   -3.4185   -1.4348 H   0  0  0  1  0  0  0  0  0  0  0  0
    4.1296   -2.5300   -2.4754 H   0  0  0  1  0  0  0  0  0  0  0  0
    2.3649   -4.3760   -0.8061 H   0  0  0  1  0  0  0  0  0  0  0  0
    1.9517   -2.8084   -1.4587 H   0  0  0  1  0  0  0  0  0  0  0  0
    3.0237   -4.3519   -3.5362 H   0  0  0  1  0  0  0  0  0  0  0  0
    3.6964   -5.3981   -2.5297 H   0  0  0  1  0  0  0  0  0  0  0  0
  1  2  4  0  0  0  0
  1  6  4  0  0  0  0
  1 18  1  0  0  0  0
  2  3  4  0  0  0  0
  3  4  4  0  0  0  0
  3 25  1  0  0  0  0
  4  5  4  0  0  0  0
  4  7  4  0  0  0  0
  5  6  4  0  0  0  0
  5  9  4  0  0  0  0
  7  8  4  0  0  0  0
  7 26  1  0  0  0  0
  8  9  4  0  0  0  0
  9 10  1  0  0  0  0
 10 11  4  0  0  0  0
 10 15  4  0  0  0  0
 11 12  4  0  0  0  0
 11 27  1  0  0  0  0
 12 13  4  0  0  0  0
 12 28  1  0  0  0  0
 13 14  4  0  0  0  0
 13 16  1  0  0  0  0
 14 15  4  0  0  0  0
 14 29  1  0  0  0  0
 15 30  1  0  0  0  0
 16 17  1  0  0  0  0
 17 31  1  0  0  0  0
 17 32  1  0  0  0  0
 17 33  1  0  0  0  0
 18 19  1  0  0  0  0
 18 34  1  0  0  0  0
 19 20  1  0  0  0  0
 19 23  1  0  0  0  0
 19 35  1  0  0  0  0
 20 21  1  0  0  0  0
 20 36  1  0  0  0  0
 20 37  1  0  0  0  0
 21 22  1  0  0  0  0
 21 38  1  0  0  0  0
 21 39  1  0  0  0  0
 22 23  1  0  0  0  0
 22 24  1  0  0  0  0
 22 40  1  0  0  0  0
 23 41  1  0  0  0  0
 23 42  1  0  0  0  0
 24 43  1  0  0  0  0
 24 44  1  0  0  0  0
M  END
> <ConfClashScore>
0 

> <ConfOneFourInteractionScore>
-0.985399 

> <ConfScore>
-0.0486345 

> <ConfScorePBest>
0.00373984 

> <ConfTolerance>
0.251643 

$$$$
c22.sdf
 OpenBabel04162418103D

 44 47  0  0  0  0  0  0  0  0999 V2000
    1.9452   -0.6103    0.1256 C   0  0  0  1  0  0  0  0  0  0  0  0
    2.0363    0.7233    0.1481 N   0  0  0  1  0  0  0  0  0  0  0  0
    0.8946    1.4375    0.0881 C   0  0  0  1  0  0  0  0  0  0  0  0
   -0.3452    0.7386    0.0096 C   0  0  0  1  0  0  0  0  0  0  0  0
   -0.2528   -0.6478    0.0020 C   0  0  0  1  0  0  0  0  0  0  0  0
    0.8780   -1.3912    0.0539 N   0  0  0  1  0  0  0  0  0  0  0  0
   -1.7303    0.9921   -0.0538 C   0  0  0  1  0  0  0  0  0  0  0  0
   -2.4281   -0.1192   -0.1028 N   0  0  0  1  0  0  0  0  0  0  0  0
   -1.5125   -1.1341   -0.0681 N   0  0  0  1  0  0  0  0  0  0  0  0
   -1.8369   -2.4987   -0.1009 C   0  0  0  1  0  0  0  0  0  0  0  0
   -2.5999   -3.1000   -1.0839 C   0  0  0  1  0  0  0  0  0  0  0  0
   -2.8584   -4.4606   -1.0253 C   0  0  0  1  0  0  0  0  0  0  0  0
   -2.3577   -5.2149    0.0191 C   0  0  0  1  0  0  0  0  0  0  0  0
   -1.5924   -4.6116    1.0049 C   0  0  0  1  0  0  0  0  0  0  0  0
   -1.3346   -3.2550    0.9466 C   0  0  0  1  0  0  0  0  0  0  0  0
   -2.5452   -6.5295    0.1827 O   0  0  0  1  0  0  0  0  0  0  0  0
   -2.2035   -7.2066    1.4388 C   0  0  0  1  0  0  0  0  0  0  0  0
    3.1213   -1.2604    0.1849 N   0  0  0  1  0  0  0  0  0  0  0  0
    3.2456   -2.7169    0.2590 C   0  0  0  1  0  0  0  0  0  0  0  0
    4.7138   -3.1330    0.1111 C   0  0  0  1  0  0  0  0  0  0  0  0
    4.7881   -3.8906   -1.2086 C   0  0  0  1  0  0  0  0  0  0  0  0
    3.3983   -4.5186   -1.3757 C   0  0  0  1  0  0  0  0  0  0  0  0
    2.4932   -3.3756   -0.9080 C   0  0  0  1  0  0  0  0  0  0  0  0
    3.2407   -5.7127   -0.5267 N   0  0  0  1  0  0  0  0  0  0  0  0
    0.9178    2.4772    0.0988 H   0  0  0  1  0  0  0  0  0  0  0  0
   -2.1491    1.9440   -0.0607 H   0  0  0  1  0  0  0  0  0  0  0  0
   -2.9801   -2.5318   -1.8677 H   0  0  0  1  0  0  0  0  0  0  0  0
   -3.4292   -4.9139   -1.7671 H   0  0  0  1  0  0  0  0  0  0  0  0
   -1.2122   -5.1799    1.7886 H   0  0  0  1  0  0  0  0  0  0  0  0
   -0.7638   -2.8017    1.6884 H   0  0  0  1  0  0  0  0  0  0  0  0
   -2.7172   -6.7346    2.2501 H   0  0  0  1  0  0  0  0  0  0  0  0
   -1.1477   -7.1448    1.6012 H   0  0  0  1  0  0  0  0  0  0  0  0
   -2.4965   -8.2341    1.3811 H   0  0  0  1  0  0  0  0  0  0  0  0
    3.9437   -0.7273    0.1781 H   0  0  0  1  0  0  0  0  0  0  0  0
    2.8549   -3.0617    1.1936 H   0  0  0  1  0  0  0  0  0  0  0  0
    5.3464   -2.2704    0.0837 H   0  0  0  1  0  0  0  0  0  0  0  0
    5.0072   -3.7654    0.9228 H   0  0  0  1  0  0  0  0  0  0  0  0
    4.9993   -3.2215   -2.0165 H   0  0  0  1  0  0  0  0  0  0  0  0
    5.5419   -4.6488   -1.1665 H   0  0  0  1  0  0  0  0  0  0  0  0
    3.2060   -4.7777   -2.3958 H   0  0  0  1  0  0  0  0  0  0  0  0
    2.3385   -2.6720   -1.6992 H   0  0  0  1  0  0  0  0  0  0  0  0
    1.5489   -3.7558   -0.5785 H   0  0  0  1  0  0  0  0  0  0  0  0
    2.3143   -6.0288   -0.5753 H   0  0  0  1  0  0  0  0  0  0  0  0
    3.4595   -5.4849    0.4010 H   0  0  0  1  0  0  0  0  0  0  0  0
  1  2  4  0  0  0  0
  1  6  4  0  0  0  0
  1 18  1  0  0  0  0
  2  3  4  0  0  0  0
  3  4  4  0  0  0  0
  3 25  1  0  0  0  0
  4  5  4  0  0  0  0
  4  7  4  0  0  0  0
  5  6  4  0  0  0  0
  5  9  4  0  0  0  0
  7  8  4  0  0  0  0
  7 26  1  0  0  0  0
  8  9  4  0  0  0  0
  9 10  1  0  0  0  0
 10 11  4  0  0  0  0
 10 15  4  0  0  0  0
 11 12  4  0  0  0  0
 11 27  1  0  0  0  0
 12 13  4  0  0  0  0
 12 28  1  0  0  0  0
 13 14  4  0  0  0  0
 13 16  1  0  0  0  0
 14 15  4  0  0  0  0
 14 29  1  0  0  0  0
 15 30  1  0  0  0  0
 16 17  1  0  0  0  0
 17 31  1  0  0  0  0
 17 32  1  0  0  0  0
 17 33  1  0  0  0  0
 18 19  1  0  0  0  0
 18 34  1  0  0  0  0
 19 20  1  0  0  0  0
 19 23  1  0  0  0  0
 19 35  1  0  0  0  0
 20 21  1  0  0  0  0
 20 36  1  0  0  0  0
 20 37  1  0  0  0  0
 21 22  1  0  0  0  0
 21 38  1  0  0  0  0
 21 39  1  0  0  0  0
 22 23  1  0  0  0  0
 22 24  1  0  0  0  0
 22 40  1  0  0  0  0
 23 41  1  0  0  0  0
 23 42  1  0  0  0  0
 24 43  1  0  0  0  0
 24 44  1  0  0  0  0
M  END
> <ConfClashScore>
0 

> <ConfOneFourInteractionScore>
-0.985399 

> <ConfScore>
-0.0486345 

> <ConfScorePBest>
0.00372651 

> <ConfTolerance>
0.290265 

$$$$
c22.sdf
 OpenBabel04162418103D

 44 47  0  0  0  0  0  0  0  0999 V2000
    1.9452   -0.6102    0.1255 C   0  0  0  1  0  0  0  0  0  0  0  0
    2.0363    0.7233    0.1481 N   0  0  0  1  0  0  0  0  0  0  0  0
    0.8946    1.4375    0.0881 C   0  0  0  1  0  0  0  0  0  0  0  0
   -0.3453    0.7386    0.0097 C   0  0  0  1  0  0  0  0  0  0  0  0
   -0.2528   -0.6478    0.0020 C   0  0  0  1  0  0  0  0  0  0  0  0
    0.8780   -1.3912    0.0538 N   0  0  0  1  0  0  0  0  0  0  0  0
   -1.7303    0.9921   -0.0538 C   0  0  0  1  0  0  0  0  0  0  0  0
   -2.4282   -0.1191   -0.1029 N   0  0  0  1  0  0  0  0  0  0  0  0
   -1.5125   -1.1342   -0.0681 N   0  0  0  1  0  0  0  0  0  0  0  0
   -1.8385   -2.5051   -0.1011 C   0  0  0  1  0  0  0  0  0  0  0  0
   -1.3843   -3.2965    0.9369 C   0  0  0  1  0  0  0  0  0  0  0  0
   -1.6807   -4.6504    0.9570 C   0  0  0  1  0  0  0  0  0  0  0  0
   -2.4259   -5.2101   -0.0637 C   0  0  0  1  0  0  0  0  0  0  0  0
   -2.8814   -4.4162   -1.1047 C   0  0  0  1  0  0  0  0  0  0  0  0
   -2.5860   -3.0661   -1.1248 C   0  0  0  1  0  0  0  0  0  0  0  0
   -2.7725   -6.5160   -0.1543 O   0  0  0  1  0  0  0  0  0  0  0  0
   -2.5199   -7.3430    0.9924 C   0  0  0  1  0  0  0  0  0  0  0  0
    3.1380   -1.2696    0.1857 N   0  0  0  1  0  0  0  0  0  0  0  0
    4.4010   -0.5568    0.2615 C   0  0  0  1  0  0  0  0  0  0  0  0
    5.5821   -1.5499    0.5420 C   0  0  0  1  0  0  0  0  0  0  0  0
    6.1137   -1.2385    1.9532 C   0  0  0  1  0  0  0  0  0  0  0  0
    5.7905    0.2847    2.1165 C   0  0  0  1  0  0  0  0  0  0  0  0
    4.4122    0.3951    1.4533 C   0  0  0  1  0  0  0  0  0  0  0  0
    6.7890    1.1220    1.4198 N   0  0  0  1  0  0  0  0  0  0  0  0
    0.9179    2.4772    0.0989 H   0  0  0  1  0  0  0  0  0  0  0  0
   -2.1490    1.9441   -0.0607 H   0  0  0  1  0  0  0  0  0  0  0  0
   -0.8200   -2.8762    1.7028 H   0  0  0  1  0  0  0  0  0  0  0  0
   -1.3423   -5.2452    1.7401 H   0  0  0  1  0  0  0  0  0  0  0  0
   -3.4457   -4.8364   -1.8707 H   0  0  0  1  0  0  0  0  0  0  0  0
   -2.9243   -2.4713   -1.9080 H   0  0  0  1  0  0  0  0  0  0  0  0
   -1.4894   -7.2641    1.2697 H   0  0  0  1  0  0  0  0  0  0  0  0
   -2.7479   -8.3611    0.7548 H   0  0  0  1  0  0  0  0  0  0  0  0
   -3.1339   -7.0202    1.8069 H   0  0  0  1  0  0  0  0  0  0  0  0
    3.1426   -2.2496    0.1776 H   0  0  0  1  0  0  0  0  0  0  0  0
    4.5648   -0.0225   -0.6509 H   0  0  0  1  0  0  0  0  0  0  0  0
    6.3583   -1.4098   -0.1811 H   0  0  0  1  0  0  0  0  0  0  0  0
    5.2304   -2.5595    0.4975 H   0  0  0  1  0  0  0  0  0  0  0  0
    5.6067   -1.8215    2.6935 H   0  0  0  1  0  0  0  0  0  0  0  0
    7.1666   -1.4180    2.0167 H   0  0  0  1  0  0  0  0  0  0  0  0
    5.7480    0.5639    3.1485 H   0  0  0  1  0  0  0  0  0  0  0  0
    3.6484    0.1181    2.1495 H   0  0  0  1  0  0  0  0  0  0  0  0
    4.2459    1.3986    1.1210 H   0  0  0  1  0  0  0  0  0  0  0  0
    6.5094    2.0606    1.4532 H   0  0  0  1  0  0  0  0  0  0  0  0
    6.8603    0.8356    0.4854 H   0  0  0  1  0  0  0  0  0  0  0  0
  1  2  4  0  0  0  0
  1  6  4  0  0  0  0
  1 18  1  0  0  0  0
  2  3  4  0  0  0  0
  3  4  4  0  0  0  0
  3 25  1  0  0  0  0
  4  5  4  0  0  0  0
  4  7  4  0  0  0  0
  5  6  4  0  0  0  0
  5  9  4  0  0  0  0
  7  8  4  0  0  0  0
  7 26  1  0  0  0  0
  8  9  4  0  0  0  0
  9 10  1  0  0  0  0
 10 11  4  0  0  0  0
 10 15  4  0  0  0  0
 11 12  4  0  0  0  0
 11 27  1  0  0  0  0
 12 13  4  0  0  0  0
 12 28  1  0  0  0  0
 13 14  4  0  0  0  0
 13 16  1  0  0  0  0
 14 15  4  0  0  0  0
 14 29  1  0  0  0  0
 15 30  1  0  0  0  0
 16 17  1  0  0  0  0
 17 31  1  0  0  0  0
 17 32  1  0  0  0  0
 17 33  1  0  0  0  0
 18 19  1  0  0  0  0
 18 34  1  0  0  0  0
 19 20  1  0  0  0  0
 19 23  1  0  0  0  0
 19 35  1  0  0  0  0
 20 21  1  0  0  0  0
 20 36  1  0  0  0  0
 20 37  1  0  0  0  0
 21 22  1  0  0  0  0
 21 38  1  0  0  0  0
 21 39  1  0  0  0  0
 22 23  1  0  0  0  0
 22 24  1  0  0  0  0
 22 40  1  0  0  0  0
 23 41  1  0  0  0  0
 23 42  1  0  0  0  0
 24 43  1  0  0  0  0
 24 44  1  0  0  0  0
M  END
> <ConfClashScore>
0 

> <ConfOneFourInteractionScore>
-0.985399 

> <ConfScore>
-0.0486345 

> <ConfScorePBest>
0.00371319 

> <ConfTolerance>
0.260838 

$$$$
c22.sdf
 OpenBabel04162418103D

 44 47  0  0  0  0  0  0  0  0999 V2000
    1.9452   -0.6103    0.1256 C   0  0  0  1  0  0  0  0  0  0  0  0
    2.0363    0.7233    0.1481 N   0  0  0  1  0  0  0  0  0  0  0  0
    0.8946    1.4376    0.0881 C   0  0  0  1  0  0  0  0  0  0  0  0
   -0.3453    0.7386    0.0096 C   0  0  0  1  0  0  0  0  0  0  0  0
   -0.2528   -0.6477    0.0020 C   0  0  0  1  0  0  0  0  0  0  0  0
    0.8779   -1.3913    0.0539 N   0  0  0  1  0  0  0  0  0  0  0  0
   -1.7303    0.9921   -0.0538 C   0  0  0  1  0  0  0  0  0  0  0  0
   -2.4281   -0.1191   -0.1028 N   0  0  0  1  0  0  0  0  0  0  0  0
   -1.5125   -1.1342   -0.0681 N   0  0  0  1  0  0  0  0  0  0  0  0
   -1.8397   -2.5099   -0.1011 C   0  0  0  1  0  0  0  0  0  0  0  0
   -2.9094   -2.9835    0.6349 C   0  0  0  1  0  0  0  0  0  0  0  0
   -3.2333   -4.3308    0.5983 C   0  0  0  1  0  0  0  0  0  0  0  0
   -2.4833   -5.2014   -0.1697 C   0  0  0  1  0  0  0  0  0  0  0  0
   -1.4105   -4.7262   -0.9078 C   0  0  0  1  0  0  0  0  0  0  0  0
   -1.0874   -3.3828   -0.8714 C   0  0  0  1  0  0  0  0  0  0  0  0
   -2.7435   -6.5283   -0.2448 O   0  0  0  1  0  0  0  0  0  0  0  0
   -4.0135   -6.9771    0.2532 C   0  0  0  1  0  0  0  0  0  0  0  0
    3.1645   -1.2845    0.1871 N   0  0  0  1  0  0  0  0  0  0  0  0
    3.0569   -2.7477    0.2764 C   0  0  0  1  0  0  0  0  0  0  0  0
    4.4124   -3.3581    0.6515 C   0  0  0  1  0  0  0  0  0  0  0  0
    4.8456   -4.1610   -0.5689 C   0  0  0  1  0  0  0  0  0  0  0  0
    3.5335   -4.6053   -1.2281 C   0  0  0  1  0  0  0  0  0  0  0  0
    2.6842   -3.3387   -1.0925 C   0  0  0  1  0  0  0  0  0  0  0  0
    2.9180   -5.7570   -0.4997 N   0  0  0  1  0  0  0  0  0  0  0  0
    0.9180    2.4772    0.0988 H   0  0  0  1  0  0  0  0  0  0  0  0
   -2.1490    1.9441   -0.0608 H   0  0  0  1  0  0  0  0  0  0  0  0
   -3.4713   -2.3292    1.2160 H   0  0  0  1  0  0  0  0  0  0  0  0
   -4.0406   -4.6867    1.1489 H   0  0  0  1  0  0  0  0  0  0  0  0
   -0.8486   -5.3806   -1.4890 H   0  0  0  1  0  0  0  0  0  0  0  0
   -0.2801   -3.0269   -1.4220 H   0  0  0  1  0  0  0  0  0  0  0  0
   -4.0413   -6.8618    1.3165 H   0  0  0  1  0  0  0  0  0  0  0  0
   -4.1501   -8.0085    0.0029 H   0  0  0  1  0  0  0  0  0  0  0  0
   -4.7954   -6.3957   -0.1891 H   0  0  0  1  0  0  0  0  0  0  0  0
    4.0266   -0.8186    0.1721 H   0  0  0  1  0  0  0  0  0  0  0  0
    2.3187   -3.0077    1.0059 H   0  0  0  1  0  0  0  0  0  0  0  0
    5.1238   -2.5877    0.8645 H   0  0  0  1  0  0  0  0  0  0  0  0
    4.3122   -3.9972    1.5038 H   0  0  0  1  0  0  0  0  0  0  0  0
    5.4166   -3.5517   -1.2380 H   0  0  0  1  0  0  0  0  0  0  0  0
    5.4267   -5.0100   -0.2751 H   0  0  0  1  0  0  0  0  0  0  0  0
    3.6810   -4.8695   -2.2545 H   0  0  0  1  0  0  0  0  0  0  0  0
    2.9152   -2.6466   -1.8751 H   0  0  0  1  0  0  0  0  0  0  0  0
    1.6424   -3.5804   -1.1254 H   0  0  0  1  0  0  0  0  0  0  0  0
    3.5414   -6.5133   -0.4975 H   0  0  0  1  0  0  0  0  0  0  0  0
    2.0871   -6.0202   -0.9478 H   0  0  0  1  0  0  0  0  0  0  0  0
  1  2  4  0  0  0  0
  1  6  4  0  0  0  0
  1 18  1  0  0  0  0
  2  3  4  0  0  0  0
  3  4  4  0  0  0  0
  3 25  1  0  0  0  0
  4  5  4  0  0  0  0
  4  7  4  0  0  0  0
  5  6  4  0  0  0  0
  5  9  4  0  0  0  0
  7  8  4  0  0  0  0
  7 26  1  0  0  0  0
  8  9  4  0  0  0  0
  9 10  1  0  0  0  0
 10 11  4  0  0  0  0
 10 15  4  0  0  0  0
 11 12  4  0  0  0  0
 11 27  1  0  0  0  0
 12 13  4  0  0  0  0
 12 28  1  0  0  0  0
 13 14  4  0  0  0  0
 13 16  1  0  0  0  0
 14 15  4  0  0  0  0
 14 29  1  0  0  0  0
 15 30  1  0  0  0  0
 16 17  1  0  0  0  0
 17 31  1  0  0  0  0
 17 32  1  0  0  0  0
 17 33  1  0  0  0  0
 18 19  1  0  0  0  0
 18 34  1  0  0  0  0
 19 20  1  0  0  0  0
 19 23  1  0  0  0  0
 19 35  1  0  0  0  0
 20 21  1  0  0  0  0
 20 36  1  0  0  0  0
 20 37  1  0  0  0  0
 21 22  1  0  0  0  0
 21 38  1  0  0  0  0
 21 39  1  0  0  0  0
 22 23  1  0  0  0  0
 22 24  1  0  0  0  0
 22 40  1  0  0  0  0
 23 41  1  0  0  0  0
 23 42  1  0  0  0  0
 24 43  1  0  0  0  0
 24 44  1  0  0  0  0
M  END
> <ConfClashScore>
0 

> <ConfOneFourInteractionScore>
-0.981848 

> <ConfScore>
-0.0477081 

> <ConfScorePBest>
0.00369986 

> <ConfTolerance>
0.250269 

$$$$
c22.sdf
 OpenBabel04162418103D

 44 47  0  0  0  0  0  0  0  0999 V2000
    1.9453   -0.6102    0.1255 C   0  0  0  1  0  0  0  0  0  0  0  0
    2.0364    0.7233    0.1481 N   0  0  0  1  0  0  0  0  0  0  0  0
    0.8946    1.4376    0.0881 C   0  0  0  1  0  0  0  0  0  0  0  0
   -0.3452    0.7386    0.0096 C   0  0  0  1  0  0  0  0  0  0  0  0
   -0.2528   -0.6477    0.0020 C   0  0  0  1  0  0  0  0  0  0  0  0
    0.8780   -1.3913    0.0539 N   0  0  0  1  0  0  0  0  0  0  0  0
   -1.7303    0.9921   -0.0538 C   0  0  0  1  0  0  0  0  0  0  0  0
   -2.4281   -0.1192   -0.1029 N   0  0  0  1  0  0  0  0  0  0  0  0
   -1.5125   -1.1341   -0.0681 N   0  0  0  1  0  0  0  0  0  0  0  0
   -1.8418   -2.5192   -0.1014 C   0  0  0  1  0  0  0  0  0  0  0  0
   -3.0787   -2.9462    0.3437 C   0  0  0  1  0  0  0  0  0  0  0  0
   -3.4012   -4.2938    0.3064 C   0  0  0  1  0  0  0  0  0  0  0  0
   -2.4840   -5.2111   -0.1709 C   0  0  0  1  0  0  0  0  0  0  0  0
   -1.2436   -4.7827   -0.6174 C   0  0  0  1  0  0  0  0  0  0  0  0
   -0.9218   -3.4390   -0.5802 C   0  0  0  1  0  0  0  0  0  0  0  0
   -2.8350   -6.5137   -0.2900 O   0  0  0  1  0  0  0  0  0  0  0  0
   -4.1759   -6.8685    0.0820 C   0  0  0  1  0  0  0  0  0  0  0  0
    3.1213   -1.2604    0.1848 N   0  0  0  1  0  0  0  0  0  0  0  0
    3.2482   -2.7186    0.1885 C   0  0  0  1  0  0  0  0  0  0  0  0
    4.6121   -3.1398    0.7262 C   0  0  0  1  0  0  0  0  0  0  0  0
    5.4972   -3.4771   -0.4798 C   0  0  0  1  0  0  0  0  0  0  0  0
    4.4760   -4.1425   -1.4623 C   0  0  0  1  0  0  0  0  0  0  0  0
    3.2130   -3.2818   -1.2749 C   0  0  0  1  0  0  0  0  0  0  0  0
    4.2204   -5.5522   -1.0912 N   0  0  0  1  0  0  0  0  0  0  0  0
    0.9179    2.4773    0.0988 H   0  0  0  1  0  0  0  0  0  0  0  0
   -2.1489    1.9441   -0.0608 H   0  0  0  1  0  0  0  0  0  0  0  0
   -3.7673   -2.2565    0.7067 H   0  0  0  1  0  0  0  0  0  0  0  0
   -4.3333   -4.6148    0.6376 H   0  0  0  1  0  0  0  0  0  0  0  0
   -0.5549   -5.4723   -0.9804 H   0  0  0  1  0  0  0  0  0  0  0  0
    0.0102   -3.1181   -0.9114 H   0  0  0  1  0  0  0  0  0  0  0  0
   -4.8332   -6.0508   -0.1281 H   0  0  0  1  0  0  0  0  0  0  0  0
   -4.2084   -7.0923    1.1278 H   0  0  0  1  0  0  0  0  0  0  0  0
   -4.4854   -7.7270   -0.4767 H   0  0  0  1  0  0  0  0  0  0  0  0
    3.9418   -0.7262    0.2282 H   0  0  0  1  0  0  0  0  0  0  0  0
    2.4620   -3.1441    0.7765 H   0  0  0  1  0  0  0  0  0  0  0  0
    5.0474   -2.3388    1.2863 H   0  0  0  1  0  0  0  0  0  0  0  0
    4.5075   -3.9995    1.3546 H   0  0  0  1  0  0  0  0  0  0  0  0
    6.2770   -4.1585   -0.2104 H   0  0  0  1  0  0  0  0  0  0  0  0
    5.9261   -2.5940   -0.9054 H   0  0  0  1  0  0  0  0  0  0  0  0
    4.8270   -4.0971   -2.4721 H   0  0  0  1  0  0  0  0  0  0  0  0
    3.2116   -2.4753   -1.9780 H   0  0  0  1  0  0  0  0  0  0  0  0
    2.3374   -3.8804   -1.4161 H   0  0  0  1  0  0  0  0  0  0  0  0
    3.5218   -5.9216   -1.6708 H   0  0  0  1  0  0  0  0  0  0  0  0
    3.9265   -5.5958   -0.1574 H   0  0  0  1  0  0  0  0  0  0  0  0
  1  2  4  0  0  0  0
  1  6  4  0  0  0  0
  1 18  1  0  0  0  0
  2  3  4  0  0  0  0
  3  4  4  0  0  0  0
  3 25  1  0  0  0  0
  4  5  4  0  0  0  0
  4  7  4  0  0  0  0
  5  6  4  0  0  0  0
  5  9  4  0  0  0  0
  7  8  4  0  0  0  0
  7 26  1  0  0  0  0
  8  9  4  0  0  0  0
  9 10  1  0  0  0  0
 10 11  4  0  0  0  0
 10 15  4  0  0  0  0
 11 12  4  0  0  0  0
 11 27  1  0  0  0  0
 12 13  4  0  0  0  0
 12 28  1  0  0  0  0
 13 14  4  0  0  0  0
 13 16  1  0  0  0  0
 14 15  4  0  0  0  0
 14 29  1  0  0  0  0
 15 30  1  0  0  0  0
 16 17  1  0  0  0  0
 17 31  1  0  0  0  0
 17 32  1  0  0  0  0
 17 33  1  0  0  0  0
 18 19  1  0  0  0  0
 18 34  1  0  0  0  0
 19 20  1  0  0  0  0
 19 23  1  0  0  0  0
 19 35  1  0  0  0  0
 20 21  1  0  0  0  0
 20 36  1  0  0  0  0
 20 37  1  0  0  0  0
 21 22  1  0  0  0  0
 21 38  1  0  0  0  0
 21 39  1  0  0  0  0
 22 23  1  0  0  0  0
 22 24  1  0  0  0  0
 22 40  1  0  0  0  0
 23 41  1  0  0  0  0
 23 42  1  0  0  0  0
 24 43  1  0  0  0  0
 24 44  1  0  0  0  0
M  END
> <ConfClashScore>
0 

> <ConfOneFourInteractionScore>
-0.984337 

> <ConfScore>
-0.0475164 

> <ConfScorePBest>
0.00368653 

> <ConfTolerance>
0.337772 

$$$$
c22.sdf
 OpenBabel04162418103D

 44 47  0  0  0  0  0  0  0  0999 V2000
    1.9452   -0.6102    0.1255 C   0  0  0  1  0  0  0  0  0  0  0  0
    2.0363    0.7233    0.1481 N   0  0  0  1  0  0  0  0  0  0  0  0
    0.8946    1.4376    0.0881 C   0  0  0  1  0  0  0  0  0  0  0  0
   -0.3452    0.7386    0.0096 C   0  0  0  1  0  0  0  0  0  0  0  0
   -0.2528   -0.6478    0.0020 C   0  0  0  1  0  0  0  0  0  0  0  0
    0.8779   -1.3913    0.0539 N   0  0  0  1  0  0  0  0  0  0  0  0
   -1.7303    0.9921   -0.0538 C   0  0  0  1  0  0  0  0  0  0  0  0
   -2.4281   -0.1191   -0.1028 N   0  0  0  1  0  0  0  0  0  0  0  0
   -1.5125   -1.1342   -0.0681 N   0  0  0  1  0  0  0  0  0  0  0  0
   -1.8397   -2.5099   -0.1010 C   0  0  0  1  0  0  0  0  0  0  0  0
   -3.0208   -2.9529    0.4636 C   0  0  0  1  0  0  0  0  0  0  0  0
   -3.3439   -4.3004    0.4265 C   0  0  0  1  0  0  0  0  0  0  0  0
   -2.4825   -5.2016   -0.1703 C   0  0  0  1  0  0  0  0  0  0  0  0
   -1.2979   -4.7570   -0.7366 C   0  0  0  1  0  0  0  0  0  0  0  0
   -0.9756   -3.4135   -0.6997 C   0  0  0  1  0  0  0  0  0  0  0  0
   -2.6877   -6.5370   -0.2624 O   0  0  0  1  0  0  0  0  0  0  0  0
   -3.9116   -7.0520    0.2846 C   0  0  0  1  0  0  0  0  0  0  0  0
    3.1213   -1.2605    0.1849 N   0  0  0  1  0  0  0  0  0  0  0  0
    4.4256   -0.5922    0.1762 C   0  0  0  1  0  0  0  0  0  0  0  0
    5.4746   -1.4661   -0.5039 C   0  0  0  1  0  0  0  0  0  0  0  0
    6.2914   -2.1474    0.6008 C   0  0  0  1  0  0  0  0  0  0  0  0
    6.3677   -1.0277    1.6924 C   0  0  0  1  0  0  0  0  0  0  0  0
    4.9613   -0.4030    1.6381 C   0  0  0  1  0  0  0  0  0  0  0  0
    7.4168   -0.0203    1.3568 N   0  0  0  1  0  0  0  0  0  0  0  0
    0.9179    2.4773    0.0987 H   0  0  0  1  0  0  0  0  0  0  0  0
   -2.1489    1.9441   -0.0609 H   0  0  0  1  0  0  0  0  0  0  0  0
   -3.6671   -2.2754    0.9163 H   0  0  0  1  0  0  0  0  0  0  0  0
   -4.2345   -4.6333    0.8479 H   0  0  0  1  0  0  0  0  0  0  0  0
   -0.6516   -5.4345   -1.1893 H   0  0  0  1  0  0  0  0  0  0  0  0
   -0.0850   -3.0806   -1.1211 H   0  0  0  1  0  0  0  0  0  0  0  0
   -4.5959   -6.2462    0.4501 H   0  0  0  1  0  0  0  0  0  0  0  0
   -3.7081   -7.5432    1.2132 H   0  0  0  1  0  0  0  0  0  0  0  0
   -4.3427   -7.7505   -0.4019 H   0  0  0  1  0  0  0  0  0  0  0  0
    3.1050   -2.2390    0.2371 H   0  0  0  1  0  0  0  0  0  0  0  0
    4.3401    0.3517   -0.3204 H   0  0  0  1  0  0  0  0  0  0  0  0
    4.9961   -2.2046   -1.1128 H   0  0  0  1  0  0  0  0  0  0  0  0
    6.1149   -0.8620   -1.1122 H   0  0  0  1  0  0  0  0  0  0  0  0
    5.7918   -3.0178    0.9721 H   0  0  0  1  0  0  0  0  0  0  0  0
    7.2666   -2.4167    0.2524 H   0  0  0  1  0  0  0  0  0  0  0  0
    6.5677   -1.4435    2.6578 H   0  0  0  1  0  0  0  0  0  0  0  0
    5.0136    0.6387    1.8771 H   0  0  0  1  0  0  0  0  0  0  0  0
    4.3140   -0.8967    2.3323 H   0  0  0  1  0  0  0  0  0  0  0  0
    7.5192    0.6065    2.1032 H   0  0  0  1  0  0  0  0  0  0  0  0
    7.1515    0.4715    0.5516 H   0  0  0  1  0  0  0  0  0  0  0  0
  1  2  4  0  0  0  0
  1  6  4  0  0  0  0
  1 18  1  0  0  0  0
  2  3  4  0  0  0  0
  3  4  4  0  0  0  0
  3 25  1  0  0  0  0
  4  5  4  0  0  0  0
  4  7  4  0  0  0  0
  5  6  4  0  0  0  0
  5  9  4  0  0  0  0
  7  8  4  0  0  0  0
  7 26  1  0  0  0  0
  8  9  4  0  0  0  0
  9 10  1  0  0  0  0
 10 11  4  0  0  0  0
 10 15  4  0  0  0  0
 11 12  4  0  0  0  0
 11 27  1  0  0  0  0
 12 13  4  0  0  0  0
 12 28  1  0  0  0  0
 13 14  4  0  0  0  0
 13 16  1  0  0  0  0
 14 15  4  0  0  0  0
 14 29  1  0  0  0  0
 15 30  1  0  0  0  0
 16 17  1  0  0  0  0
 17 31  1  0  0  0  0
 17 32  1  0  0  0  0
 17 33  1  0  0  0  0
 18 19  1  0  0  0  0
 18 34  1  0  0  0  0
 19 20  1  0  0  0  0
 19 23  1  0  0  0  0
 19 35  1  0  0  0  0
 20 21  1  0  0  0  0
 20 36  1  0  0  0  0
 20 37  1  0  0  0  0
 21 22  1  0  0  0  0
 21 38  1  0  0  0  0
 21 39  1  0  0  0  0
 22 23  1  0  0  0  0
 22 24  1  0  0  0  0
 22 40  1  0  0  0  0
 23 41  1  0  0  0  0
 23 42  1  0  0  0  0
 24 43  1  0  0  0  0
 24 44  1  0  0  0  0
M  END
> <ConfClashScore>
0 

> <ConfOneFourInteractionScore>
-0.984337 

> <ConfScore>
-0.0475164 

> <ConfScorePBest>
0.0036732 

> <ConfTolerance>
0.258015 

$$$$
c22.sdf
 OpenBabel04162418103D

 44 47  0  0  0  0  0  0  0  0999 V2000
    1.9452   -0.6102    0.1255 C   0  0  0  1  0  0  0  0  0  0  0  0
    2.0363    0.7233    0.1481 N   0  0  0  1  0  0  0  0  0  0  0  0
    0.8946    1.4375    0.0881 C   0  0  0  1  0  0  0  0  0  0  0  0
   -0.3452    0.7385    0.0095 C   0  0  0  1  0  0  0  0  0  0  0  0
   -0.2528   -0.6477    0.0020 C   0  0  0  1  0  0  0  0  0  0  0  0
    0.8780   -1.3913    0.0539 N   0  0  0  1  0  0  0  0  0  0  0  0
   -1.7304    0.9921   -0.0538 C   0  0  0  1  0  0  0  0  0  0  0  0
   -2.4282   -0.1191   -0.1029 N   0  0  0  1  0  0  0  0  0  0  0  0
   -1.5125   -1.1341   -0.0681 N   0  0  0  1  0  0  0  0  0  0  0  0
   -1.8419   -2.5193   -0.1013 C   0  0  0  1  0  0  0  0  0  0  0  0
   -1.5950   -3.2610   -1.2411 C   0  0  0  1  0  0  0  0  0  0  0  0
   -1.9106   -4.6105   -1.2715 C   0  0  0  1  0  0  0  0  0  0  0  0
   -2.4771   -5.2130   -0.1642 C   0  0  0  1  0  0  0  0  0  0  0  0
   -2.7247   -4.4689    0.9789 C   0  0  0  1  0  0  0  0  0  0  0  0
   -2.4101   -3.1234    1.0094 C   0  0  0  1  0  0  0  0  0  0  0  0
   -2.8273   -6.5016   -0.0794 O   0  0  0  1  0  0  0  0  0  0  0  0
   -2.3632   -7.4924   -1.0570 C   0  0  0  1  0  0  0  0  0  0  0  0
    3.1148   -1.2569    0.1846 N   0  0  0  1  0  0  0  0  0  0  0  0
    4.4373   -0.6488    0.2617 C   0  0  0  1  0  0  0  0  0  0  0  0
    4.7230    0.1643   -1.0063 C   0  0  0  1  0  0  0  0  0  0  0  0
    5.8634   -0.5650   -1.7055 C   0  0  0  1  0  0  0  0  0  0  0  0
    6.6528   -1.2312   -0.5711 C   0  0  0  1  0  0  0  0  0  0  0  0
    5.5207   -1.7369    0.3271 C   0  0  0  1  0  0  0  0  0  0  0  0
    7.5187   -0.2463    0.1437 N   0  0  0  1  0  0  0  0  0  0  0  0
    0.9178    2.4772    0.0988 H   0  0  0  1  0  0  0  0  0  0  0  0
   -2.1490    1.9440   -0.0608 H   0  0  0  1  0  0  0  0  0  0  0  0
   -1.1724   -2.8068   -2.0759 H   0  0  0  1  0  0  0  0  0  0  0  0
   -1.7211   -5.1695   -2.1278 H   0  0  0  1  0  0  0  0  0  0  0  0
   -3.1473   -4.9230    1.8137 H   0  0  0  1  0  0  0  0  0  0  0  0
   -2.5995   -2.5642    1.8656 H   0  0  0  1  0  0  0  0  0  0  0  0
   -2.7155   -8.4631   -0.7766 H   0  0  0  1  0  0  0  0  0  0  0  0
   -1.2934   -7.4950   -1.0815 H   0  0  0  1  0  0  0  0  0  0  0  0
   -2.7420   -7.2418   -2.0257 H   0  0  0  1  0  0  0  0  0  0  0  0
    3.0790   -2.2361    0.1749 H   0  0  0  1  0  0  0  0  0  0  0  0
    4.4912   -0.0196    1.1256 H   0  0  0  1  0  0  0  0  0  0  0  0
    3.8573    0.1947   -1.6344 H   0  0  0  1  0  0  0  0  0  0  0  0
    5.0159    1.1618   -0.7532 H   0  0  0  1  0  0  0  0  0  0  0  0
    6.4815    0.1257   -2.2400 H   0  0  0  1  0  0  0  0  0  0  0  0
    5.4821   -1.3008   -2.3823 H   0  0  0  1  0  0  0  0  0  0  0  0
    7.2544   -2.0381   -0.9342 H   0  0  0  1  0  0  0  0  0  0  0  0
    5.8664   -1.8618    1.3320 H   0  0  0  1  0  0  0  0  0  0  0  0
    5.1397   -2.6678   -0.0378 H   0  0  0  1  0  0  0  0  0  0  0  0
    6.9764    0.5175    0.4318 H   0  0  0  1  0  0  0  0  0  0  0  0
    8.2259    0.0644   -0.4592 H   0  0  0  1  0  0  0  0  0  0  0  0
  1  2  4  0  0  0  0
  1  6  4  0  0  0  0
  1 18  1  0  0  0  0
  2  3  4  0  0  0  0
  3  4  4  0  0  0  0
  3 25  1  0  0  0  0
  4  5  4  0  0  0  0
  4  7  4  0  0  0  0
  5  6  4  0  0  0  0
  5  9  4  0  0  0  0
  7  8  4  0  0  0  0
  7 26  1  0  0  0  0
  8  9  4  0  0  0  0
  9 10  1  0  0  0  0
 10 11  4  0  0  0  0
 10 15  4  0  0  0  0
 11 12  4  0  0  0  0
 11 27  1  0  0  0  0
 12 13  4  0  0  0  0
 12 28  1  0  0  0  0
 13 14  4  0  0  0  0
 13 16  1  0  0  0  0
 14 15  4  0  0  0  0
 14 29  1  0  0  0  0
 15 30  1  0  0  0  0
 16 17  1  0  0  0  0
 17 31  1  0  0  0  0
 17 32  1  0  0  0  0
 17 33  1  0  0  0  0
 18 19  1  0  0  0  0
 18 34  1  0  0  0  0
 19 20  1  0  0  0  0
 19 23  1  0  0  0  0
 19 35  1  0  0  0  0
 20 21  1  0  0  0  0
 20 36  1  0  0  0  0
 20 37  1  0  0  0  0
 21 22  1  0  0  0  0
 21 38  1  0  0  0  0
 21 39  1  0  0  0  0
 22 23  1  0  0  0  0
 22 24  1  0  0  0  0
 22 40  1  0  0  0  0
 23 41  1  0  0  0  0
 23 42  1  0  0  0  0
 24 43  1  0  0  0  0
 24 44  1  0  0  0  0
M  END
> <ConfClashScore>
0 

> <ConfOneFourInteractionScore>
-0.985399 

> <ConfScore>
-0.0471977 

> <ConfScorePBest>
0.00365987 

> <ConfTolerance>
0.339065 

$$$$
c22.sdf
 OpenBabel04162418103D

 44 47  0  0  0  0  0  0  0  0999 V2000
    1.9452   -0.6102    0.1256 C   0  0  0  1  0  0  0  0  0  0  0  0
    2.0363    0.7233    0.1481 N   0  0  0  1  0  0  0  0  0  0  0  0
    0.8946    1.4376    0.0881 C   0  0  0  1  0  0  0  0  0  0  0  0
   -0.3452    0.7386    0.0096 C   0  0  0  1  0  0  0  0  0  0  0  0
   -0.2528   -0.6477    0.0020 C   0  0  0  1  0  0  0  0  0  0  0  0
    0.8779   -1.3913    0.0539 N   0  0  0  1  0  0  0  0  0  0  0  0
   -1.7303    0.9921   -0.0538 C   0  0  0  1  0  0  0  0  0  0  0  0
   -2.4281   -0.1192   -0.1028 N   0  0  0  1  0  0  0  0  0  0  0  0
   -1.5126   -1.1342   -0.0681 N   0  0  0  1  0  0  0  0  0  0  0  0
   -1.8397   -2.5099   -0.1011 C   0  0  0  1  0  0  0  0  0  0  0  0
   -2.9512   -2.9722    0.5777 C   0  0  0  1  0  0  0  0  0  0  0  0
   -3.2747   -4.3196    0.5409 C   0  0  0  1  0  0  0  0  0  0  0  0
   -2.4829   -5.2015   -0.1700 C   0  0  0  1  0  0  0  0  0  0  0  0
   -1.3679   -4.7377   -0.8507 C   0  0  0  1  0  0  0  0  0  0  0  0
   -1.0452   -3.3942   -0.8141 C   0  0  0  1  0  0  0  0  0  0  0  0
   -2.7405   -6.5290   -0.2417 O   0  0  0  1  0  0  0  0  0  0  0  0
   -1.6932   -7.3746   -0.7423 C   0  0  0  1  0  0  0  0  0  0  0  0
    3.1543   -1.2786    0.1866 N   0  0  0  1  0  0  0  0  0  0  0  0
    4.4096   -0.5236    0.1373 C   0  0  0  1  0  0  0  0  0  0  0  0
    5.6127   -1.4749    0.2833 C   0  0  0  1  0  0  0  0  0  0  0  0
    6.6265   -0.6152    1.0336 C   0  0  0  1  0  0  0  0  0  0  0  0
    5.8184    0.1761    2.0470 C   0  0  0  1  0  0  0  0  0  0  0  0
    4.4940    0.4389    1.3115 C   0  0  0  1  0  0  0  0  0  0  0  0
    6.5020    1.4580    2.3935 N   0  0  0  1  0  0  0  0  0  0  0  0
    0.9178    2.4773    0.0987 H   0  0  0  1  0  0  0  0  0  0  0  0
   -2.1490    1.9441   -0.0608 H   0  0  0  1  0  0  0  0  0  0  0  0
   -3.5449   -2.3094    1.1160 H   0  0  0  1  0  0  0  0  0  0  0  0
   -4.1135   -4.6670    1.0484 H   0  0  0  1  0  0  0  0  0  0  0  0
   -0.7743   -5.4005   -1.3890 H   0  0  0  1  0  0  0  0  0  0  0  0
   -0.2065   -3.0468   -1.3216 H   0  0  0  1  0  0  0  0  0  0  0  0
   -1.4019   -7.0435   -1.7171 H   0  0  0  1  0  0  0  0  0  0  0  0
   -2.0460   -8.3833   -0.7992 H   0  0  0  1  0  0  0  0  0  0  0  0
   -0.8514   -7.3273   -0.0835 H   0  0  0  1  0  0  0  0  0  0  0  0
    3.1717   -2.2555    0.2627 H   0  0  0  1  0  0  0  0  0  0  0  0
    4.4686    0.0115   -0.7874 H   0  0  0  1  0  0  0  0  0  0  0  0
    5.3509   -2.3450    0.8483 H   0  0  0  1  0  0  0  0  0  0  0  0
    5.9897   -1.7704   -0.6734 H   0  0  0  1  0  0  0  0  0  0  0  0
    7.1286    0.0455    0.3580 H   0  0  0  1  0  0  0  0  0  0  0  0
    7.3457   -1.2330    1.5295 H   0  0  0  1  0  0  0  0  0  0  0  0
    5.6560   -0.3942    2.9376 H   0  0  0  1  0  0  0  0  0  0  0  0
    3.6712    0.2745    1.9756 H   0  0  0  1  0  0  0  0  0  0  0  0
    4.4701    1.4480    0.9562 H   0  0  0  1  0  0  0  0  0  0  0  0
    7.3217    1.2665    2.8952 H   0  0  0  1  0  0  0  0  0  0  0  0
    5.9048    2.0086    2.9419 H   0  0  0  1  0  0  0  0  0  0  0  0
  1  2  4  0  0  0  0
  1  6  4  0  0  0  0
  1 18  1  0  0  0  0
  2  3  4  0  0  0  0
  3  4  4  0  0  0  0
  3 25  1  0  0  0  0
  4  5  4  0  0  0  0
  4  7  4  0  0  0  0
  5  6  4  0  0  0  0
  5  9  4  0  0  0  0
  7  8  4  0  0  0  0
  7 26  1  0  0  0  0
  8  9  4  0  0  0  0
  9 10  1  0  0  0  0
 10 11  4  0  0  0  0
 10 15  4  0  0  0  0
 11 12  4  0  0  0  0
 11 27  1  0  0  0  0
 12 13  4  0  0  0  0
 12 28  1  0  0  0  0
 13 14  4  0  0  0  0
 13 16  1  0  0  0  0
 14 15  4  0  0  0  0
 14 29  1  0  0  0  0
 15 30  1  0  0  0  0
 16 17  1  0  0  0  0
 17 31  1  0  0  0  0
 17 32  1  0  0  0  0
 17 33  1  0  0  0  0
 18 19  1  0  0  0  0
 18 34  1  0  0  0  0
 19 20  1  0  0  0  0
 19 23  1  0  0  0  0
 19 35  1  0  0  0  0
 20 21  1  0  0  0  0
 20 36  1  0  0  0  0
 20 37  1  0  0  0  0
 21 22  1  0  0  0  0
 21 38  1  0  0  0  0
 21 39  1  0  0  0  0
 22 23  1  0  0  0  0
 22 24  1  0  0  0  0
 22 40  1  0  0  0  0
 23 41  1  0  0  0  0
 23 42  1  0  0  0  0
 24 43  1  0  0  0  0
 24 44  1  0  0  0  0
M  END
> <ConfClashScore>
0 

> <ConfOneFourInteractionScore>
-0.981848 

> <ConfScore>
-0.0469183 

> <ConfScorePBest>
0.00364655 

> <ConfTolerance>
0.306111 

$$$$
c22.sdf
 OpenBabel04162418103D

 44 47  0  0  0  0  0  0  0  0999 V2000
    1.9452   -0.6102    0.1256 C   0  0  0  1  0  0  0  0  0  0  0  0
    2.0363    0.7233    0.1482 N   0  0  0  1  0  0  0  0  0  0  0  0
    0.8946    1.4376    0.0881 C   0  0  0  1  0  0  0  0  0  0  0  0
   -0.3453    0.7387    0.0096 C   0  0  0  1  0  0  0  0  0  0  0  0
   -0.2528   -0.6477    0.0020 C   0  0  0  1  0  0  0  0  0  0  0  0
    0.8779   -1.3912    0.0538 N   0  0  0  1  0  0  0  0  0  0  0  0
   -1.7303    0.9921   -0.0538 C   0  0  0  1  0  0  0  0  0  0  0  0
   -2.4282   -0.1191   -0.1028 N   0  0  0  1  0  0  0  0  0  0  0  0
   -1.5125   -1.1342   -0.0681 N   0  0  0  1  0  0  0  0  0  0  0  0
   -1.8421   -2.5202   -0.1013 C   0  0  0  1  0  0  0  0  0  0  0  0
   -2.6458   -3.0163   -1.1104 C   0  0  0  1  0  0  0  0  0  0  0  0
   -3.0375   -4.3459   -1.0938 C   0  0  0  1  0  0  0  0  0  0  0  0
   -2.6290   -5.1741   -0.0654 C   0  0  0  1  0  0  0  0  0  0  0  0
   -1.8229   -4.6763    0.9466 C   0  0  0  1  0  0  0  0  0  0  0  0
   -1.4322   -3.3506    0.9301 C   0  0  0  1  0  0  0  0  0  0  0  0
   -3.0160   -6.4717   -0.0465 O   0  0  0  1  0  0  0  0  0  0  0  0
   -2.4645   -7.3060    0.9843 C   0  0  0  1  0  0  0  0  0  0  0  0
    3.1213   -1.2604    0.1849 N   0  0  0  1  0  0  0  0  0  0  0  0
    3.2481   -2.7212    0.1944 C   0  0  0  1  0  0  0  0  0  0  0  0
    4.6878   -3.1565    0.4807 C   0  0  0  1  0  0  0  0  0  0  0  0
    4.8125   -4.5624   -0.1273 C   0  0  0  1  0  0  0  0  0  0  0  0
    3.6756   -4.6901   -1.1478 C   0  0  0  1  0  0  0  0  0  0  0  0
    3.0262   -3.3129   -1.2035 C   0  0  0  1  0  0  0  0  0  0  0  0
    2.6938   -5.7089   -0.7057 N   0  0  0  1  0  0  0  0  0  0  0  0
    0.9178    2.4773    0.0989 H   0  0  0  1  0  0  0  0  0  0  0  0
   -2.1490    1.9441   -0.0607 H   0  0  0  1  0  0  0  0  0  0  0  0
   -2.9566   -2.3922   -1.8820 H   0  0  0  1  0  0  0  0  0  0  0  0
   -3.6389   -4.7203   -1.8551 H   0  0  0  1  0  0  0  0  0  0  0  0
   -1.5121   -5.3004    1.7182 H   0  0  0  1  0  0  0  0  0  0  0  0
   -0.8307   -2.9762    1.6914 H   0  0  0  1  0  0  0  0  0  0  0  0
   -1.3969   -7.2381    0.9657 H   0  0  0  1  0  0  0  0  0  0  0  0
   -2.7601   -8.3207    0.8177 H   0  0  0  1  0  0  0  0  0  0  0  0
   -2.8259   -6.9806    1.9375 H   0  0  0  1  0  0  0  0  0  0  0  0
    3.9420   -0.7261    0.2241 H   0  0  0  1  0  0  0  0  0  0  0  0
    2.5654   -3.1343    0.9073 H   0  0  0  1  0  0  0  0  0  0  0  0
    4.8679   -3.1864    1.5350 H   0  0  0  1  0  0  0  0  0  0  0  0
    5.3814   -2.4853    0.0188 H   0  0  0  1  0  0  0  0  0  0  0  0
    4.7116   -5.3063    0.6352 H   0  0  0  1  0  0  0  0  0  0  0  0
    5.7600   -4.6740   -0.6119 H   0  0  0  1  0  0  0  0  0  0  0  0
    4.0630   -4.9603   -2.1080 H   0  0  0  1  0  0  0  0  0  0  0  0
    3.4943   -2.7049   -1.9492 H   0  0  0  1  0  0  0  0  0  0  0  0
    1.9809   -3.3971   -1.4159 H   0  0  0  1  0  0  0  0  0  0  0  0
    3.1445   -6.5725   -0.5983 H   0  0  0  1  0  0  0  0  0  0  0  0
    1.9848   -5.7920   -1.3772 H   0  0  0  1  0  0  0  0  0  0  0  0
  1  2  4  0  0  0  0
  1  6  4  0  0  0  0
  1 18  1  0  0  0  0
  2  3  4  0  0  0  0
  3  4  4  0  0  0  0
  3 25  1  0  0  0  0
  4  5  4  0  0  0  0
  4  7  4  0  0  0  0
  5  6  4  0  0  0  0
  5  9  4  0  0  0  0
  7  8  4  0  0  0  0
  7 26  1  0  0  0  0
  8  9  4  0  0  0  0
  9 10  1  0  0  0  0
 10 11  4  0  0  0  0
 10 15  4  0  0  0  0
 11 12  4  0  0  0  0
 11 27  1  0  0  0  0
 12 13  4  0  0  0  0
 12 28  1  0  0  0  0
 13 14  4  0  0  0  0
 13 16  1  0  0  0  0
 14 15  4  0  0  0  0
 14 29  1  0  0  0  0
 15 30  1  0  0  0  0
 16 17  1  0  0  0  0
 17 31  1  0  0  0  0
 17 32  1  0  0  0  0
 17 33  1  0  0  0  0
 18 19  1  0  0  0  0
 18 34  1  0  0  0  0
 19 20  1  0  0  0  0
 19 23  1  0  0  0  0
 19 35  1  0  0  0  0
 20 21  1  0  0  0  0
 20 36  1  0  0  0  0
 20 37  1  0  0  0  0
 21 22  1  0  0  0  0
 21 38  1  0  0  0  0
 21 39  1  0  0  0  0
 22 23  1  0  0  0  0
 22 24  1  0  0  0  0
 22 40  1  0  0  0  0
 23 41  1  0  0  0  0
 23 42  1  0  0  0  0
 24 43  1  0  0  0  0
 24 44  1  0  0  0  0
M  END
> <ConfClashScore>
0 

> <ConfOneFourInteractionScore>
-0.984337 

> <ConfScore>
-0.0467724 

> <ConfScorePBest>
0.00363322 

> <ConfTolerance>
0.302526 

$$$$
c22.sdf
 OpenBabel04162418103D

 44 47  0  0  0  0  0  0  0  0999 V2000
    1.9453   -0.6102    0.1256 C   0  0  0  1  0  0  0  0  0  0  0  0
    2.0363    0.7233    0.1482 N   0  0  0  1  0  0  0  0  0  0  0  0
    0.8946    1.4376    0.0881 C   0  0  0  1  0  0  0  0  0  0  0  0
   -0.3452    0.7386    0.0096 C   0  0  0  1  0  0  0  0  0  0  0  0
   -0.2528   -0.6478    0.0021 C   0  0  0  1  0  0  0  0  0  0  0  0
    0.8780   -1.3912    0.0539 N   0  0  0  1  0  0  0  0  0  0  0  0
   -1.7303    0.9921   -0.0538 C   0  0  0  1  0  0  0  0  0  0  0  0
   -2.4281   -0.1192   -0.1028 N   0  0  0  1  0  0  0  0  0  0  0  0
   -1.5125   -1.1341   -0.0681 N   0  0  0  1  0  0  0  0  0  0  0  0
   -1.8385   -2.5051   -0.1009 C   0  0  0  1  0  0  0  0  0  0  0  0
   -2.6959   -3.0397   -1.0440 C   0  0  0  1  0  0  0  0  0  0  0  0
   -2.9780   -4.3968   -1.0337 C   0  0  0  1  0  0  0  0  0  0  0  0
   -2.4061   -5.2145   -0.0772 C   0  0  0  1  0  0  0  0  0  0  0  0
   -1.5461   -4.6782    0.8685 C   0  0  0  1  0  0  0  0  0  0  0  0
   -1.2648   -3.3250    0.8584 C   0  0  0  1  0  0  0  0  0  0  0  0
   -2.6090   -6.5417    0.0344 O   0  0  0  1  0  0  0  0  0  0  0  0
   -3.4710   -7.1162   -0.9751 C   0  0  0  1  0  0  0  0  0  0  0  0
    3.1257   -1.2628    0.1851 N   0  0  0  1  0  0  0  0  0  0  0  0
    3.2557   -2.7084    0.1261 C   0  0  0  1  0  0  0  0  0  0  0  0
    4.3161   -3.1949    1.1088 C   0  0  0  1  0  0  0  0  0  0  0  0
    5.5974   -3.4588    0.3086 C   0  0  0  1  0  0  0  0  0  0  0  0
    5.0346   -4.0292   -1.0364 C   0  0  0  1  0  0  0  0  0  0  0  0
    3.7866   -3.1603   -1.2788 C   0  0  0  1  0  0  0  0  0  0  0  0
    4.6669   -5.4744   -0.8975 N   0  0  0  1  0  0  0  0  0  0  0  0
    0.9178    2.4772    0.0988 H   0  0  0  1  0  0  0  0  0  0  0  0
   -2.1490    1.9441   -0.0608 H   0  0  0  1  0  0  0  0  0  0  0  0
   -3.1294   -2.4238   -1.7611 H   0  0  0  1  0  0  0  0  0  0  0  0
   -3.6200   -4.7998   -1.7457 H   0  0  0  1  0  0  0  0  0  0  0  0
   -1.1126   -5.2940    1.5857 H   0  0  0  1  0  0  0  0  0  0  0  0
   -0.6227   -2.9220    1.5704 H   0  0  0  1  0  0  0  0  0  0  0  0
   -2.8866   -7.3971   -1.8262 H   0  0  0  1  0  0  0  0  0  0  0  0
   -4.2053   -6.3955   -1.2690 H   0  0  0  1  0  0  0  0  0  0  0  0
   -3.9591   -7.9811   -0.5767 H   0  0  0  1  0  0  0  0  0  0  0  0
    3.9433   -0.7297    0.2735 H   0  0  0  1  0  0  0  0  0  0  0  0
    2.3092   -3.1610    0.3363 H   0  0  0  1  0  0  0  0  0  0  0  0
    4.4967   -2.4465    1.8517 H   0  0  0  1  0  0  0  0  0  0  0  0
    3.9888   -4.0968    1.5825 H   0  0  0  1  0  0  0  0  0  0  0  0
    6.2226   -4.1735    0.8017 H   0  0  0  1  0  0  0  0  0  0  0  0
    6.1469   -2.5550    0.1470 H   0  0  0  1  0  0  0  0  0  0  0  0
    5.7434   -3.9156   -1.8298 H   0  0  0  1  0  0  0  0  0  0  0  0
    4.0449   -2.3038   -1.8658 H   0  0  0  1  0  0  0  0  0  0  0  0
    3.0370   -3.7294   -1.7880 H   0  0  0  1  0  0  0  0  0  0  0  0
    5.4386   -5.9776   -0.5634 H   0  0  0  1  0  0  0  0  0  0  0  0
    4.3998   -5.8287   -1.7714 H   0  0  0  1  0  0  0  0  0  0  0  0
  1  2  4  0  0  0  0
  1  6  4  0  0  0  0
  1 18  1  0  0  0  0
  2  3  4  0  0  0  0
  3  4  4  0  0  0  0
  3 25  1  0  0  0  0
  4  5  4  0  0  0  0
  4  7  4  0  0  0  0
  5  6  4  0  0  0  0
  5  9  4  0  0  0  0
  7  8  4  0  0  0  0
  7 26  1  0  0  0  0
  8  9  4  0  0  0  0
  9 10  1  0  0  0  0
 10 11  4  0  0  0  0
 10 15  4  0  0  0  0
 11 12  4  0  0  0  0
 11 27  1  0  0  0  0
 12 13  4  0  0  0  0
 12 28  1  0  0  0  0
 13 14  4  0  0  0  0
 13 16  1  0  0  0  0
 14 15  4  0  0  0  0
 14 29  1  0  0  0  0
 15 30  1  0  0  0  0
 16 17  1  0  0  0  0
 17 31  1  0  0  0  0
 17 32  1  0  0  0  0
 17 33  1  0  0  0  0
 18 19  1  0  0  0  0
 18 34  1  0  0  0  0
 19 20  1  0  0  0  0
 19 23  1  0  0  0  0
 19 35  1  0  0  0  0
 20 21  1  0  0  0  0
 20 36  1  0  0  0  0
 20 37  1  0  0  0  0
 21 22  1  0  0  0  0
 21 38  1  0  0  0  0
 21 39  1  0  0  0  0
 22 23  1  0  0  0  0
 22 24  1  0  0  0  0
 22 40  1  0  0  0  0
 23 41  1  0  0  0  0
 23 42  1  0  0  0  0
 24 43  1  0  0  0  0
 24 44  1  0  0  0  0
M  END
> <ConfClashScore>
0 

> <ConfOneFourInteractionScore>
-0.984337 

> <ConfScore>
-0.0466996 

> <ConfScorePBest>
0.00361989 

> <ConfTolerance>
0.381068 

$$$$
c22.sdf
 OpenBabel04162418103D

 44 47  0  0  0  0  0  0  0  0999 V2000
    1.9452   -0.6103    0.1254 C   0  0  0  1  0  0  0  0  0  0  0  0
    2.0363    0.7233    0.1481 N   0  0  0  1  0  0  0  0  0  0  0  0
    0.8946    1.4376    0.0881 C   0  0  0  1  0  0  0  0  0  0  0  0
   -0.3453    0.7386    0.0096 C   0  0  0  1  0  0  0  0  0  0  0  0
   -0.2529   -0.6478    0.0019 C   0  0  0  1  0  0  0  0  0  0  0  0
    0.8779   -1.3913    0.0538 N   0  0  0  1  0  0  0  0  0  0  0  0
   -1.7304    0.9921   -0.0538 C   0  0  0  1  0  0  0  0  0  0  0  0
   -2.4282   -0.1191   -0.1028 N   0  0  0  1  0  0  0  0  0  0  0  0
   -1.5125   -1.1342   -0.0681 N   0  0  0  1  0  0  0  0  0  0  0  0
   -1.8386   -2.5051   -0.1011 C   0  0  0  1  0  0  0  0  0  0  0  0
   -1.4030   -3.3929    0.8644 C   0  0  0  1  0  0  0  0  0  0  0  0
   -1.7579   -4.7307    0.7863 C   0  0  0  1  0  0  0  0  0  0  0  0
   -2.5426   -5.1777   -0.2599 C   0  0  0  1  0  0  0  0  0  0  0  0
   -2.9794   -4.2870   -1.2282 C   0  0  0  1  0  0  0  0  0  0  0  0
   -2.6257   -2.9533   -1.1504 C   0  0  0  1  0  0  0  0  0  0  0  0
   -2.8197   -6.5030   -0.2336 O   0  0  0  1  0  0  0  0  0  0  0  0
   -3.7623   -6.9956   -1.1987 C   0  0  0  1  0  0  0  0  0  0  0  0
    3.1257   -1.2629    0.1850 N   0  0  0  1  0  0  0  0  0  0  0  0
    4.4153   -0.6000    0.3845 C   0  0  0  1  0  0  0  0  0  0  0  0
    5.5516   -1.4777   -0.1510 C   0  0  0  1  0  0  0  0  0  0  0  0
    6.6981   -1.2514    0.8209 C   0  0  0  1  0  0  0  0  0  0  0  0
    5.9680   -1.2019    2.1674 C   0  0  0  1  0  0  0  0  0  0  0  0
    4.6889   -0.4098    1.8825 C   0  0  0  1  0  0  0  0  0  0  0  0
    6.7901   -0.5161    3.1802 N   0  0  0  1  0  0  0  0  0  0  0  0
    0.9179    2.4772    0.0989 H   0  0  0  1  0  0  0  0  0  0  0  0
   -2.1490    1.9441   -0.0608 H   0  0  0  1  0  0  0  0  0  0  0  0
   -0.8091   -3.0574    1.6495 H   0  0  0  1  0  0  0  0  0  0  0  0
   -1.4334   -5.3980    1.5150 H   0  0  0  1  0  0  0  0  0  0  0  0
   -3.5733   -4.6226   -2.0133 H   0  0  0  1  0  0  0  0  0  0  0  0
   -2.9500   -2.2858   -1.8791 H   0  0  0  1  0  0  0  0  0  0  0  0
   -4.3939   -7.7272   -0.7399 H   0  0  0  1  0  0  0  0  0  0  0  0
   -3.2352   -7.4419   -2.0160 H   0  0  0  1  0  0  0  0  0  0  0  0
   -4.3598   -6.1846   -1.5595 H   0  0  0  1  0  0  0  0  0  0  0  0
    3.1186   -2.2382    0.0889 H   0  0  0  1  0  0  0  0  0  0  0  0
    4.4115    0.3464   -0.1145 H   0  0  0  1  0  0  0  0  0  0  0  0
    5.2616   -2.5076   -0.1601 H   0  0  0  1  0  0  0  0  0  0  0  0
    5.8287   -1.1758   -1.1394 H   0  0  0  1  0  0  0  0  0  0  0  0
    7.2032   -0.3301    0.6183 H   0  0  0  1  0  0  0  0  0  0  0  0
    7.4000   -2.0582    0.7886 H   0  0  0  1  0  0  0  0  0  0  0  0
    5.7335   -2.1892    2.5067 H   0  0  0  1  0  0  0  0  0  0  0  0
    4.8326    0.6263    2.1078 H   0  0  0  1  0  0  0  0  0  0  0  0
    3.8753   -0.7921    2.4628 H   0  0  0  1  0  0  0  0  0  0  0  0
    7.5599   -1.0769    3.4112 H   0  0  0  1  0  0  0  0  0  0  0  0
    6.2516   -0.3541    3.9828 H   0  0  0  1  0  0  0  0  0  0  0  0
  1  2  4  0  0  0  0
  1  6  4  0  0  0  0
  1 18  1  0  0  0  0
  2  3  4  0  0  0  0
  3  4  4  0  0  0  0
  3 25  1  0  0  0  0
  4  5  4  0  0  0  0
  4  7  4  0  0  0  0
  5  6  4  0  0  0  0
  5  9  4  0  0  0  0
  7  8  4  0  0  0  0
  7 26  1  0  0  0  0
  8  9  4  0  0  0  0
  9 10  1  0  0  0  0
 10 11  4  0  0  0  0
 10 15  4  0  0  0  0
 11 12  4  0  0  0  0
 11 27  1  0  0  0  0
 12 13  4  0  0  0  0
 12 28  1  0  0  0  0
 13 14  4  0  0  0  0
 13 16  1  0  0  0  0
 14 15  4  0  0  0  0
 14 29  1  0  0  0  0
 15 30  1  0  0  0  0
 16 17  1  0  0  0  0
 17 31  1  0  0  0  0
 17 32  1  0  0  0  0
 17 33  1  0  0  0  0
 18 19  1  0  0  0  0
 18 34  1  0  0  0  0
 19 20  1  0  0  0  0
 19 23  1  0  0  0  0
 19 35  1  0  0  0  0
 20 21  1  0  0  0  0
 20 36  1  0  0  0  0
 20 37  1  0  0  0  0
 21 22  1  0  0  0  0
 21 38  1  0  0  0  0
 21 39  1  0  0  0  0
 22 23  1  0  0  0  0
 22 24  1  0  0  0  0
 22 40  1  0  0  0  0
 23 41  1  0  0  0  0
 23 42  1  0  0  0  0
 24 43  1  0  0  0  0
 24 44  1  0  0  0  0
M  END
> <ConfClashScore>
0 

> <ConfOneFourInteractionScore>
-0.984337 

> <ConfScore>
-0.0466996 

> <ConfScorePBest>
0.00360656 

> <ConfTolerance>
0.32086 

$$$$
c22.sdf
 OpenBabel04162418103D

 44 47  0  0  0  0  0  0  0  0999 V2000
    1.9452   -0.6102    0.1255 C   0  0  0  1  0  0  0  0  0  0  0  0
    2.0363    0.7233    0.1480 N   0  0  0  1  0  0  0  0  0  0  0  0
    0.8946    1.4376    0.0881 C   0  0  0  1  0  0  0  0  0  0  0  0
   -0.3452    0.7386    0.0096 C   0  0  0  1  0  0  0  0  0  0  0  0
   -0.2528   -0.6478    0.0020 C   0  0  0  1  0  0  0  0  0  0  0  0
    0.8780   -1.3913    0.0538 N   0  0  0  1  0  0  0  0  0  0  0  0
   -1.7304    0.9920   -0.0538 C   0  0  0  1  0  0  0  0  0  0  0  0
   -2.4281   -0.1192   -0.1028 N   0  0  0  1  0  0  0  0  0  0  0  0
   -1.5125   -1.1341   -0.0681 N   0  0  0  1  0  0  0  0  0  0  0  0
   -1.8419   -2.5193   -0.1013 C   0  0  0  1  0  0  0  0  0  0  0  0
   -1.6162   -3.3057    1.0125 C   0  0  0  1  0  0  0  0  0  0  0  0
   -2.0246   -4.6303    1.0197 C   0  0  0  1  0  0  0  0  0  0  0  0
   -2.6526   -5.1662   -0.0888 C   0  0  0  1  0  0  0  0  0  0  0  0
   -2.8790   -4.3771   -1.2058 C   0  0  0  1  0  0  0  0  0  0  0  0
   -2.4718   -3.0564   -1.2132 C   0  0  0  1  0  0  0  0  0  0  0  0
   -3.1245   -6.4175   -0.0452 O   0  0  0  1  0  0  0  0  0  0  0  0
   -3.0651   -7.2217    1.1805 C   0  0  0  1  0  0  0  0  0  0  0  0
    3.1404   -1.2710    0.1858 N   0  0  0  1  0  0  0  0  0  0  0  0
    3.2146   -2.7336    0.1408 C   0  0  0  1  0  0  0  0  0  0  0  0
    4.4986   -3.2298    0.8634 C   0  0  0  1  0  0  0  0  0  0  0  0
    5.4028   -3.8470   -0.2181 C   0  0  0  1  0  0  0  0  0  0  0  0
    4.8734   -3.3219   -1.5665 C   0  0  0  1  0  0  0  0  0  0  0  0
    3.3263   -3.2252   -1.3417 C   0  0  0  1  0  0  0  0  0  0  0  0
    5.1875   -4.2576   -2.6529 N   0  0  0  1  0  0  0  0  0  0  0  0
    0.9178    2.4772    0.0987 H   0  0  0  1  0  0  0  0  0  0  0  0
   -2.1490    1.9441   -0.0608 H   0  0  0  1  0  0  0  0  0  0  0  0
   -1.1399   -2.9038    1.8451 H   0  0  0  1  0  0  0  0  0  0  0  0
   -1.8583   -5.2211    1.8594 H   0  0  0  1  0  0  0  0  0  0  0  0
   -3.3552   -4.7790   -2.0384 H   0  0  0  1  0  0  0  0  0  0  0  0
   -2.6381   -2.4656   -2.0528 H   0  0  0  1  0  0  0  0  0  0  0  0
   -2.2850   -7.9488    1.0933 H   0  0  0  1  0  0  0  0  0  0  0  0
   -4.0012   -7.7191    1.3263 H   0  0  0  1  0  0  0  0  0  0  0  0
   -2.8658   -6.5836    2.0161 H   0  0  0  1  0  0  0  0  0  0  0  0
    3.9689   -0.7531    0.2611 H   0  0  0  1  0  0  0  0  0  0  0  0
    2.3446   -3.1498    0.6044 H   0  0  0  1  0  0  0  0  0  0  0  0
    4.2473   -3.9658    1.5982 H   0  0  0  1  0  0  0  0  0  0  0  0
    4.9964   -2.4088    1.3359 H   0  0  0  1  0  0  0  0  0  0  0  0
    5.3440   -4.9149   -0.1862 H   0  0  0  1  0  0  0  0  0  0  0  0
    6.4178   -3.5406   -0.0728 H   0  0  0  1  0  0  0  0  0  0  0  0
    5.2875   -2.3613   -1.7916 H   0  0  0  1  0  0  0  0  0  0  0  0
    2.8595   -4.1799   -1.4662 H   0  0  0  1  0  0  0  0  0  0  0  0
    2.8835   -2.5207   -2.0145 H   0  0  0  1  0  0  0  0  0  0  0  0
    4.6930   -4.0008   -3.4590 H   0  0  0  1  0  0  0  0  0  0  0  0
    4.9298   -5.1649   -2.3870 H   0  0  0  1  0  0  0  0  0  0  0  0
  1  2  4  0  0  0  0
  1  6  4  0  0  0  0
  1 18  1  0  0  0  0
  2  3  4  0  0  0  0
  3  4  4  0  0  0  0
  3 25  1  0  0  0  0
  4  5  4  0  0  0  0
  4  7  4  0  0  0  0
  5  6  4  0  0  0  0
  5  9  4  0  0  0  0
  7  8  4  0  0  0  0
  7 26  1  0  0  0  0
  8  9  4  0  0  0  0
  9 10  1  0  0  0  0
 10 11  4  0  0  0  0
 10 15  4  0  0  0  0
 11 12  4  0  0  0  0
 11 27  1  0  0  0  0
 12 13  4  0  0  0  0
 12 28  1  0  0  0  0
 13 14  4  0  0  0  0
 13 16  1  0  0  0  0
 14 15  4  0  0  0  0
 14 29  1  0  0  0  0
 15 30  1  0  0  0  0
 16 17  1  0  0  0  0
 17 31  1  0  0  0  0
 17 32  1  0  0  0  0
 17 33  1  0  0  0  0
 18 19  1  0  0  0  0
 18 34  1  0  0  0  0
 19 20  1  0  0  0  0
 19 23  1  0  0  0  0
 19 35  1  0  0  0  0
 20 21  1  0  0  0  0
 20 36  1  0  0  0  0
 20 37  1  0  0  0  0
 21 22  1  0  0  0  0
 21 38  1  0  0  0  0
 21 39  1  0  0  0  0
 22 23  1  0  0  0  0
 22 24  1  0  0  0  0
 22 40  1  0  0  0  0
 23 41  1  0  0  0  0
 23 42  1  0  0  0  0
 24 43  1  0  0  0  0
 24 44  1  0  0  0  0
M  END
> <ConfClashScore>
0 

> <ConfOneFourInteractionScore>
-0.984337 

> <ConfScore>
-0.0465807 

> <ConfScorePBest>
0.00359323 

> <ConfTolerance>
0.377491 

$$$$
c22.sdf
 OpenBabel04162418103D

 44 47  0  0  0  0  0  0  0  0999 V2000
    1.9452   -0.6102    0.1256 C   0  0  0  1  0  0  0  0  0  0  0  0
    2.0363    0.7233    0.1481 N   0  0  0  1  0  0  0  0  0  0  0  0
    0.8946    1.4376    0.0881 C   0  0  0  1  0  0  0  0  0  0  0  0
   -0.3452    0.7386    0.0096 C   0  0  0  1  0  0  0  0  0  0  0  0
   -0.2528   -0.6477    0.0020 C   0  0  0  1  0  0  0  0  0  0  0  0
    0.8780   -1.3912    0.0538 N   0  0  0  1  0  0  0  0  0  0  0  0
   -1.7303    0.9920   -0.0538 C   0  0  0  1  0  0  0  0  0  0  0  0
   -2.4281   -0.1192   -0.1028 N   0  0  0  1  0  0  0  0  0  0  0  0
   -1.5126   -1.1341   -0.0681 N   0  0  0  1  0  0  0  0  0  0  0  0
   -1.8415   -2.5177   -0.1013 C   0  0  0  1  0  0  0  0  0  0  0  0
   -0.9825   -3.4179   -0.7029 C   0  0  0  1  0  0  0  0  0  0  0  0
   -1.3006   -4.7668   -0.7304 C   0  0  0  1  0  0  0  0  0  0  0  0
   -2.4792   -5.2109   -0.1612 C   0  0  0  1  0  0  0  0  0  0  0  0
   -3.3406   -4.3078    0.4421 C   0  0  0  1  0  0  0  0  0  0  0  0
   -3.0236   -2.9628    0.4697 C   0  0  0  1  0  0  0  0  0  0  0  0
   -2.6846   -6.5462   -0.2537 O   0  0  0  1  0  0  0  0  0  0  0  0
   -3.8062   -7.0886    0.4604 C   0  0  0  1  0  0  0  0  0  0  0  0
    3.1213   -1.2604    0.1849 N   0  0  0  1  0  0  0  0  0  0  0  0
    4.4527   -0.6492    0.2278 C   0  0  0  1  0  0  0  0  0  0  0  0
    5.5362   -1.7335    0.1987 C   0  0  0  1  0  0  0  0  0  0  0  0
    6.2207   -1.6574    1.5578 C   0  0  0  1  0  0  0  0  0  0  0  0
    6.0816   -0.1896    1.9819 C   0  0  0  1  0  0  0  0  0  0  0  0
    4.6454    0.1148    1.5475 C   0  0  0  1  0  0  0  0  0  0  0  0
    7.0641    0.6805    1.2687 N   0  0  0  1  0  0  0  0  0  0  0  0
    0.9179    2.4773    0.0987 H   0  0  0  1  0  0  0  0  0  0  0  0
   -2.1490    1.9441   -0.0608 H   0  0  0  1  0  0  0  0  0  0  0  0
   -0.0976   -3.0833   -1.1348 H   0  0  0  1  0  0  0  0  0  0  0  0
   -0.6523   -5.4448   -1.1796 H   0  0  0  1  0  0  0  0  0  0  0  0
   -4.2256   -4.6424    0.8741 H   0  0  0  1  0  0  0  0  0  0  0  0
   -3.6718   -2.2848    0.9188 H   0  0  0  1  0  0  0  0  0  0  0  0
   -3.8656   -8.1425    0.2850 H   0  0  0  1  0  0  0  0  0  0  0  0
   -4.7059   -6.6196    0.1204 H   0  0  0  1  0  0  0  0  0  0  0  0
   -3.6831   -6.9080    1.5078 H   0  0  0  1  0  0  0  0  0  0  0  0
    3.0842   -2.2396    0.2009 H   0  0  0  1  0  0  0  0  0  0  0  0
    4.5686    0.0132   -0.6043 H   0  0  0  1  0  0  0  0  0  0  0  0
    5.0964   -2.6983    0.0546 H   0  0  0  1  0  0  0  0  0  0  0  0
    6.2381   -1.5401   -0.5853 H   0  0  0  1  0  0  0  0  0  0  0  0
    7.2520   -1.9306    1.4766 H   0  0  0  1  0  0  0  0  0  0  0  0
    5.7350   -2.3009    2.2613 H   0  0  0  1  0  0  0  0  0  0  0  0
    6.2036   -0.0743    3.0386 H   0  0  0  1  0  0  0  0  0  0  0  0
    3.9500   -0.2286    2.2845 H   0  0  0  1  0  0  0  0  0  0  0  0
    4.5145    1.1658    1.3948 H   0  0  0  1  0  0  0  0  0  0  0  0
    6.9258    0.6053    0.3015 H   0  0  0  1  0  0  0  0  0  0  0  0
    7.9748    0.3951    1.4915 H   0  0  0  1  0  0  0  0  0  0  0  0
  1  2  4  0  0  0  0
  1  6  4  0  0  0  0
  1 18  1  0  0  0  0
  2  3  4  0  0  0  0
  3  4  4  0  0  0  0
  3 25  1  0  0  0  0
  4  5  4  0  0  0  0
  4  7  4  0  0  0  0
  5  6  4  0  0  0  0
  5  9  4  0  0  0  0
  7  8  4  0  0  0  0
  7 26  1  0  0  0  0
  8  9  4  0  0  0  0
  9 10  1  0  0  0  0
 10 11  4  0  0  0  0
 10 15  4  0  0  0  0
 11 12  4  0  0  0  0
 11 27  1  0  0  0  0
 12 13  4  0  0  0  0
 12 28  1  0  0  0  0
 13 14  4  0  0  0  0
 13 16  1  0  0  0  0
 14 15  4  0  0  0  0
 14 29  1  0  0  0  0
 15 30  1  0  0  0  0
 16 17  1  0  0  0  0
 17 31  1  0  0  0  0
 17 32  1  0  0  0  0
 17 33  1  0  0  0  0
 18 19  1  0  0  0  0
 18 34  1  0  0  0  0
 19 20  1  0  0  0  0
 19 23  1  0  0  0  0
 19 35  1  0  0  0  0
 20 21  1  0  0  0  0
 20 36  1  0  0  0  0
 20 37  1  0  0  0  0
 21 22  1  0  0  0  0
 21 38  1  0  0  0  0
 21 39  1  0  0  0  0
 22 23  1  0  0  0  0
 22 24  1  0  0  0  0
 22 40  1  0  0  0  0
 23 41  1  0  0  0  0
 23 42  1  0  0  0  0
 24 43  1  0  0  0  0
 24 44  1  0  0  0  0
M  END
> <ConfClashScore>
0 

> <ConfOneFourInteractionScore>
-0.984337 

> <ConfScore>
-0.0465677 

> <ConfScorePBest>
0.0035799 

> <ConfTolerance>
0.267832 

$$$$
c22.sdf
 OpenBabel04162418103D

 44 47  0  0  0  0  0  0  0  0999 V2000
    1.9452   -0.6102    0.1255 C   0  0  0  1  0  0  0  0  0  0  0  0
    2.0362    0.7234    0.1481 N   0  0  0  1  0  0  0  0  0  0  0  0
    0.8946    1.4376    0.0881 C   0  0  0  1  0  0  0  0  0  0  0  0
   -0.3453    0.7386    0.0096 C   0  0  0  1  0  0  0  0  0  0  0  0
   -0.2528   -0.6477    0.0020 C   0  0  0  1  0  0  0  0  0  0  0  0
    0.8780   -1.3912    0.0538 N   0  0  0  1  0  0  0  0  0  0  0  0
   -1.7303    0.9921   -0.0538 C   0  0  0  1  0  0  0  0  0  0  0  0
   -2.4282   -0.1192   -0.1028 N   0  0  0  1  0  0  0  0  0  0  0  0
   -1.5125   -1.1341   -0.0681 N   0  0  0  1  0  0  0  0  0  0  0  0
   -1.8416   -2.5184   -0.1013 C   0  0  0  1  0  0  0  0  0  0  0  0
   -0.9266   -3.4348   -0.5842 C   0  0  0  1  0  0  0  0  0  0  0  0
   -1.2451   -4.7835   -0.6114 C   0  0  0  1  0  0  0  0  0  0  0  0
   -2.4798   -5.2116   -0.1610 C   0  0  0  1  0  0  0  0  0  0  0  0
   -3.3974   -4.2923    0.3231 C   0  0  0  1  0  0  0  0  0  0  0  0
   -3.0799   -2.9474    0.3505 C   0  0  0  1  0  0  0  0  0  0  0  0
   -2.7516   -6.5299   -0.1055 O   0  0  0  1  0  0  0  0  0  0  0  0
   -1.7139   -7.3915   -0.6281 C   0  0  0  1  0  0  0  0  0  0  0  0
    3.1257   -1.2628    0.1850 N   0  0  0  1  0  0  0  0  0  0  0  0
    4.4259   -0.5936    0.2375 C   0  0  0  1  0  0  0  0  0  0  0  0
    4.8901   -0.1591   -1.1587 C   0  0  0  1  0  0  0  0  0  0  0  0
    5.4008   -1.4376   -1.8114 C   0  0  0  1  0  0  0  0  0  0  0  0
    5.9094   -2.3086   -0.6567 C   0  0  0  1  0  0  0  0  0  0  0  0
    5.5399   -1.5650    0.6367 C   0  0  0  1  0  0  0  0  0  0  0  0
    7.3775   -2.4779   -0.7497 N   0  0  0  1  0  0  0  0  0  0  0  0
    0.9178    2.4773    0.0987 H   0  0  0  1  0  0  0  0  0  0  0  0
   -2.1490    1.9440   -0.0608 H   0  0  0  1  0  0  0  0  0  0  0  0
    0.0009   -3.1125   -0.9268 H   0  0  0  1  0  0  0  0  0  0  0  0
   -0.5550   -5.4736   -0.9710 H   0  0  0  1  0  0  0  0  0  0  0  0
   -4.3249   -4.6146    0.6658 H   0  0  0  1  0  0  0  0  0  0  0  0
   -3.7700   -2.2573    0.7100 H   0  0  0  1  0  0  0  0  0  0  0  0
   -0.7574   -7.0304   -0.3125 H   0  0  0  1  0  0  0  0  0  0  0  0
   -1.7585   -7.3952   -1.6971 H   0  0  0  1  0  0  0  0  0  0  0  0
   -1.8581   -8.3862   -0.2611 H   0  0  0  1  0  0  0  0  0  0  0  0
    3.1108   -2.2426    0.1936 H   0  0  0  1  0  0  0  0  0  0  0  0
    4.3727    0.2380    0.9088 H   0  0  0  1  0  0  0  0  0  0  0  0
    4.0742    0.2498   -1.7172 H   0  0  0  1  0  0  0  0  0  0  0  0
    5.6732    0.5666   -1.0869 H   0  0  0  1  0  0  0  0  0  0  0  0
    6.1959   -1.2181   -2.4930 H   0  0  0  1  0  0  0  0  0  0  0  0
    4.6093   -1.9332   -2.3336 H   0  0  0  1  0  0  0  0  0  0  0  0
    5.4369   -3.2683   -0.6803 H   0  0  0  1  0  0  0  0  0  0  0  0
    5.1900   -2.2530    1.3778 H   0  0  0  1  0  0  0  0  0  0  0  0
    6.3854   -1.0305    1.0164 H   0  0  0  1  0  0  0  0  0  0  0  0
    7.5937   -3.0388   -1.5237 H   0  0  0  1  0  0  0  0  0  0  0  0
    7.7091   -2.9064    0.0669 H   0  0  0  1  0  0  0  0  0  0  0  0
  1  2  4  0  0  0  0
  1  6  4  0  0  0  0
  1 18  1  0  0  0  0
  2  3  4  0  0  0  0
  3  4  4  0  0  0  0
  3 25  1  0  0  0  0
  4  5  4  0  0  0  0
  4  7  4  0  0  0  0
  5  6  4  0  0  0  0
  5  9  4  0  0  0  0
  7  8  4  0  0  0  0
  7 26  1  0  0  0  0
  8  9  4  0  0  0  0
  9 10  1  0  0  0  0
 10 11  4  0  0  0  0
 10 15  4  0  0  0  0
 11 12  4  0  0  0  0
 11 27  1  0  0  0  0
 12 13  4  0  0  0  0
 12 28  1  0  0  0  0
 13 14  4  0  0  0  0
 13 16  1  0  0  0  0
 14 15  4  0  0  0  0
 14 29  1  0  0  0  0
 15 30  1  0  0  0  0
 16 17  1  0  0  0  0
 17 31  1  0  0  0  0
 17 32  1  0  0  0  0
 17 33  1  0  0  0  0
 18 19  1  0  0  0  0
 18 34  1  0  0  0  0
 19 20  1  0  0  0  0
 19 23  1  0  0  0  0
 19 35  1  0  0  0  0
 20 21  1  0  0  0  0
 20 36  1  0  0  0  0
 20 37  1  0  0  0  0
 21 22  1  0  0  0  0
 21 38  1  0  0  0  0
 21 39  1  0  0  0  0
 22 23  1  0  0  0  0
 22 24  1  0  0  0  0
 22 40  1  0  0  0  0
 23 41  1  0  0  0  0
 23 42  1  0  0  0  0
 24 43  1  0  0  0  0
 24 44  1  0  0  0  0
M  END
> <ConfClashScore>
7.09565e-05 

> <ConfOneFourInteractionScore>
-0.984337 

> <ConfScore>
-0.0454721 

> <ConfScorePBest>
0.00356658 

> <ConfTolerance>
0.287342 

$$$$
c22.sdf
 OpenBabel04162418103D

 44 47  0  0  0  0  0  0  0  0999 V2000
    1.9453   -0.6102    0.1255 C   0  0  0  1  0  0  0  0  0  0  0  0
    2.0363    0.7234    0.1481 N   0  0  0  1  0  0  0  0  0  0  0  0
    0.8946    1.4376    0.0881 C   0  0  0  1  0  0  0  0  0  0  0  0
   -0.3452    0.7386    0.0096 C   0  0  0  1  0  0  0  0  0  0  0  0
   -0.2528   -0.6478    0.0019 C   0  0  0  1  0  0  0  0  0  0  0  0
    0.8780   -1.3913    0.0538 N   0  0  0  1  0  0  0  0  0  0  0  0
   -1.7304    0.9921   -0.0538 C   0  0  0  1  0  0  0  0  0  0  0  0
   -2.4281   -0.1191   -0.1029 N   0  0  0  1  0  0  0  0  0  0  0  0
   -1.5125   -1.1342   -0.0681 N   0  0  0  1  0  0  0  0  0  0  0  0
   -1.8385   -2.5051   -0.1011 C   0  0  0  1  0  0  0  0  0  0  0  0
   -2.8122   -3.0541    0.7117 C   0  0  0  1  0  0  0  0  0  0  0  0
   -3.0965   -4.4086    0.6344 C   0  0  0  1  0  0  0  0  0  0  0  0
   -2.4025   -5.2112   -0.2515 C   0  0  0  1  0  0  0  0  0  0  0  0
   -1.4259   -4.6603   -1.0665 C   0  0  0  1  0  0  0  0  0  0  0  0
   -1.1424   -3.3097   -0.9896 C   0  0  0  1  0  0  0  0  0  0  0  0
   -2.7607   -6.5098   -0.2343 O   0  0  0  1  0  0  0  0  0  0  0  0
   -2.0466   -7.3541   -1.1667 C   0  0  0  1  0  0  0  0  0  0  0  0
    3.1380   -1.2696    0.1857 N   0  0  0  1  0  0  0  0  0  0  0  0
    4.4278   -0.5422    0.2431 C   0  0  0  1  0  0  0  0  0  0  0  0
    5.5562   -1.4079   -0.3237 C   0  0  0  1  0  0  0  0  0  0  0  0
    6.7115   -1.3209    0.6619 C   0  0  0  1  0  0  0  0  0  0  0  0
    6.3433   -0.1911    1.6353 C   0  0  0  1  0  0  0  0  0  0  0  0
    4.8220   -0.2605    1.7037 C   0  0  0  1  0  0  0  0  0  0  0  0
    6.7877    1.1145    1.1182 N   0  0  0  1  0  0  0  0  0  0  0  0
    0.9179    2.4773    0.0988 H   0  0  0  1  0  0  0  0  0  0  0  0
   -2.1490    1.9441   -0.0608 H   0  0  0  1  0  0  0  0  0  0  0  0
   -3.3317   -2.4510    1.3810 H   0  0  0  1  0  0  0  0  0  0  0  0
   -3.8321   -4.8211    1.2431 H   0  0  0  1  0  0  0  0  0  0  0  0
   -0.9065   -5.2634   -1.7360 H   0  0  0  1  0  0  0  0  0  0  0  0
   -0.4069   -2.8972   -1.5983 H   0  0  0  1  0  0  0  0  0  0  0  0
   -2.2340   -7.0209   -2.1662 H   0  0  0  1  0  0  0  0  0  0  0  0
   -2.3802   -8.3652   -1.0597 H   0  0  0  1  0  0  0  0  0  0  0  0
   -0.9973   -7.3009   -0.9643 H   0  0  0  1  0  0  0  0  0  0  0  0
    3.1419   -2.2496    0.1910 H   0  0  0  1  0  0  0  0  0  0  0  0
    4.3465    0.3728   -0.3056 H   0  0  0  1  0  0  0  0  0  0  0  0
    5.8595   -1.0377   -1.2807 H   0  0  0  1  0  0  0  0  0  0  0  0
    5.2296   -2.4223   -0.4202 H   0  0  0  1  0  0  0  0  0  0  0  0
    7.6220   -1.0899    0.1497 H   0  0  0  1  0  0  0  0  0  0  0  0
    6.8226   -2.2456    1.1887 H   0  0  0  1  0  0  0  0  0  0  0  0
    6.7773   -0.3602    2.5987 H   0  0  0  1  0  0  0  0  0  0  0  0
    4.4090    0.6667    2.0424 H   0  0  0  1  0  0  0  0  0  0  0  0
    4.5010   -1.0514    2.3489 H   0  0  0  1  0  0  0  0  0  0  0  0
    6.6162    1.8079    1.7893 H   0  0  0  1  0  0  0  0  0  0  0  0
    6.2950    1.3255    0.2976 H   0  0  0  1  0  0  0  0  0  0  0  0
  1  2  4  0  0  0  0
  1  6  4  0  0  0  0
  1 18  1  0  0  0  0
  2  3  4  0  0  0  0
  3  4  4  0  0  0  0
  3 25  1  0  0  0  0
  4  5  4  0  0  0  0
  4  7  4  0  0  0  0
  5  6  4  0  0  0  0
  5  9  4  0  0  0  0
  7  8  4  0  0  0  0
  7 26  1  0  0  0  0
  8  9  4  0  0  0  0
  9 10  1  0  0  0  0
 10 11  4  0  0  0  0
 10 15  4  0  0  0  0
 11 12  4  0  0  0  0
 11 27  1  0  0  0  0
 12 13  4  0  0  0  0
 12 28  1  0  0  0  0
 13 14  4  0  0  0  0
 13 16  1  0  0  0  0
 14 15  4  0  0  0  0
 14 29  1  0  0  0  0
 15 30  1  0  0  0  0
 16 17  1  0  0  0  0
 17 31  1  0  0  0  0
 17 32  1  0  0  0  0
 17 33  1  0  0  0  0
 18 19  1  0  0  0  0
 18 34  1  0  0  0  0
 19 20  1  0  0  0  0
 19 23  1  0  0  0  0
 19 35  1  0  0  0  0
 20 21  1  0  0  0  0
 20 36  1  0  0  0  0
 20 37  1  0  0  0  0
 21 22  1  0  0  0  0
 21 38  1  0  0  0  0
 21 39  1  0  0  0  0
 22 23  1  0  0  0  0
 22 24  1  0  0  0  0
 22 40  1  0  0  0  0
 23 41  1  0  0  0  0
 23 42  1  0  0  0  0
 24 43  1  0  0  0  0
 24 44  1  0  0  0  0
M  END
> <ConfClashScore>
0 

> <ConfOneFourInteractionScore>
-0.984337 

> <ConfScore>
-0.044767 

> <ConfScorePBest>
0.00355325 

> <ConfTolerance>
0.307802 

$$$$
c22.sdf
 OpenBabel04162418103D

 44 47  0  0  0  0  0  0  0  0999 V2000
    1.9453   -0.6102    0.1255 C   0  0  0  1  0  0  0  0  0  0  0  0
    2.0363    0.7233    0.1482 N   0  0  0  1  0  0  0  0  0  0  0  0
    0.8946    1.4376    0.0881 C   0  0  0  1  0  0  0  0  0  0  0  0
   -0.3452    0.7386    0.0096 C   0  0  0  1  0  0  0  0  0  0  0  0
   -0.2528   -0.6477    0.0020 C   0  0  0  1  0  0  0  0  0  0  0  0
    0.8780   -1.3912    0.0539 N   0  0  0  1  0  0  0  0  0  0  0  0
   -1.7304    0.9921   -0.0538 C   0  0  0  1  0  0  0  0  0  0  0  0
   -2.4281   -0.1191   -0.1028 N   0  0  0  1  0  0  0  0  0  0  0  0
   -1.5126   -1.1342   -0.0681 N   0  0  0  1  0  0  0  0  0  0  0  0
   -1.8396   -2.5099   -0.1011 C   0  0  0  1  0  0  0  0  0  0  0  0
   -1.1181   -3.4101    0.6599 C   0  0  0  1  0  0  0  0  0  0  0  0
   -1.4422   -4.7576    0.6316 C   0  0  0  1  0  0  0  0  0  0  0  0
   -2.4832   -5.2017   -0.1616 C   0  0  0  1  0  0  0  0  0  0  0  0
   -3.2068   -4.2986   -0.9248 C   0  0  0  1  0  0  0  0  0  0  0  0
   -2.8838   -2.9550   -0.8967 C   0  0  0  1  0  0  0  0  0  0  0  0
   -2.7030   -6.5370   -0.1119 O   0  0  0  1  0  0  0  0  0  0  0  0
   -3.8083   -7.0489   -0.8727 C   0  0  0  1  0  0  0  0  0  0  0  0
    3.1380   -1.2696    0.1856 N   0  0  0  1  0  0  0  0  0  0  0  0
    4.4025   -0.5554    0.3105 C   0  0  0  1  0  0  0  0  0  0  0  0
    5.0123   -0.2702   -1.0756 C   0  0  0  1  0  0  0  0  0  0  0  0
    6.5323   -0.1678   -0.8587 C   0  0  0  1  0  0  0  0  0  0  0  0
    6.8310   -0.8227    0.5194 C   0  0  0  1  0  0  0  0  0  0  0  0
    5.4823   -1.4483    1.0108 C   0  0  0  1  0  0  0  0  0  0  0  0
    7.3083    0.2134    1.4942 N   0  0  0  1  0  0  0  0  0  0  0  0
    0.9179    2.4772    0.0988 H   0  0  0  1  0  0  0  0  0  0  0  0
   -2.1490    1.9440   -0.0608 H   0  0  0  1  0  0  0  0  0  0  0  0
   -0.3321   -3.0766    1.2536 H   0  0  0  1  0  0  0  0  0  0  0  0
   -0.9018   -5.4345    1.2073 H   0  0  0  1  0  0  0  0  0  0  0  0
   -3.9928   -4.6321   -1.5187 H   0  0  0  1  0  0  0  0  0  0  0  0
   -3.4241   -2.2781   -1.4724 H   0  0  0  1  0  0  0  0  0  0  0  0
   -3.6640   -6.8230   -1.9085 H   0  0  0  1  0  0  0  0  0  0  0  0
   -4.7158   -6.5955   -0.5321 H   0  0  0  1  0  0  0  0  0  0  0  0
   -3.8688   -8.1093   -0.7442 H   0  0  0  1  0  0  0  0  0  0  0  0
    3.1448   -2.2487    0.1439 H   0  0  0  1  0  0  0  0  0  0  0  0
    4.2474    0.3532    0.8539 H   0  0  0  1  0  0  0  0  0  0  0  0
    4.7866   -1.0679   -1.7520 H   0  0  0  1  0  0  0  0  0  0  0  0
    4.6303    0.6493   -1.4674 H   0  0  0  1  0  0  0  0  0  0  0  0
    6.8358    0.8583   -0.8529 H   0  0  0  1  0  0  0  0  0  0  0  0
    7.0517   -0.6894   -1.6353 H   0  0  0  1  0  0  0  0  0  0  0  0
    7.5756   -1.5839    0.4140 H   0  0  0  1  0  0  0  0  0  0  0  0
    5.3966   -2.4690    0.7008 H   0  0  0  1  0  0  0  0  0  0  0  0
    5.3971   -1.3902    2.0758 H   0  0  0  1  0  0  0  0  0  0  0  0
    7.4791   -0.2082    2.3623 H   0  0  0  1  0  0  0  0  0  0  0  0
    6.6223    0.9056    1.5969 H   0  0  0  1  0  0  0  0  0  0  0  0
  1  2  4  0  0  0  0
  1  6  4  0  0  0  0
  1 18  1  0  0  0  0
  2  3  4  0  0  0  0
  3  4  4  0  0  0  0
  3 25  1  0  0  0  0
  4  5  4  0  0  0  0
  4  7  4  0  0  0  0
  5  6  4  0  0  0  0
  5  9  4  0  0  0  0
  7  8  4  0  0  0  0
  7 26  1  0  0  0  0
  8  9  4  0  0  0  0
  9 10  1  0  0  0  0
 10 11  4  0  0  0  0
 10 15  4  0  0  0  0
 11 12  4  0  0  0  0
 11 27  1  0  0  0  0
 12 13  4  0  0  0  0
 12 28  1  0  0  0  0
 13 14  4  0  0  0  0
 13 16  1  0  0  0  0
 14 15  4  0  0  0  0
 14 29  1  0  0  0  0
 15 30  1  0  0  0  0
 16 17  1  0  0  0  0
 17 31  1  0  0  0  0
 17 32  1  0  0  0  0
 17 33  1  0  0  0  0
 18 19  1  0  0  0  0
 18 34  1  0  0  0  0
 19 20  1  0  0  0  0
 19 23  1  0  0  0  0
 19 35  1  0  0  0  0
 20 21  1  0  0  0  0
 20 36  1  0  0  0  0
 20 37  1  0  0  0  0
 21 22  1  0  0  0  0
 21 38  1  0  0  0  0
 21 39  1  0  0  0  0
 22 23  1  0  0  0  0
 22 24  1  0  0  0  0
 22 40  1  0  0  0  0
 23 41  1  0  0  0  0
 23 42  1  0  0  0  0
 24 43  1  0  0  0  0
 24 44  1  0  0  0  0
M  END
> <ConfClashScore>
0 

> <ConfOneFourInteractionScore>
-0.984337 

> <ConfScore>
-0.0447399 

> <ConfScorePBest>
0.00353992 

> <ConfTolerance>
0.269729 

$$$$
c22.sdf
 OpenBabel04162418103D

 44 47  0  0  0  0  0  0  0  0999 V2000
    1.9452   -0.6102    0.1256 C   0  0  0  1  0  0  0  0  0  0  0  0
    2.0363    0.7233    0.1482 N   0  0  0  1  0  0  0  0  0  0  0  0
    0.8946    1.4376    0.0881 C   0  0  0  1  0  0  0  0  0  0  0  0
   -0.3452    0.7386    0.0096 C   0  0  0  1  0  0  0  0  0  0  0  0
   -0.2528   -0.6478    0.0020 C   0  0  0  1  0  0  0  0  0  0  0  0
    0.8780   -1.3912    0.0539 N   0  0  0  1  0  0  0  0  0  0  0  0
   -1.7304    0.9920   -0.0538 C   0  0  0  1  0  0  0  0  0  0  0  0
   -2.4281   -0.1191   -0.1028 N   0  0  0  1  0  0  0  0  0  0  0  0
   -1.5126   -1.1341   -0.0681 N   0  0  0  1  0  0  0  0  0  0  0  0
   -1.8421   -2.5200   -0.1014 C   0  0  0  1  0  0  0  0  0  0  0  0
   -3.0481   -2.9318   -0.6362 C   0  0  0  1  0  0  0  0  0  0  0  0
   -3.4060   -4.2702   -0.5891 C   0  0  0  1  0  0  0  0  0  0  0  0
   -2.5595   -5.1919   -0.0026 C   0  0  0  1  0  0  0  0  0  0  0  0
   -1.3498   -4.7787    0.5338 C   0  0  0  1  0  0  0  0  0  0  0  0
   -0.9928   -3.4443    0.4869 C   0  0  0  1  0  0  0  0  0  0  0  0
   -2.8516   -6.5116    0.0805 O   0  0  0  1  0  0  0  0  0  0  0  0
   -1.7771   -7.4015    0.4206 C   0  0  0  1  0  0  0  0  0  0  0  0
    3.1213   -1.2604    0.1850 N   0  0  0  1  0  0  0  0  0  0  0  0
    3.2483   -2.7186    0.1879 C   0  0  0  1  0  0  0  0  0  0  0  0
    3.1031   -3.2684    1.6350 C   0  0  0  1  0  0  0  0  0  0  0  0
    4.4746   -3.8459    2.0270 C   0  0  0  1  0  0  0  0  0  0  0  0
    5.4885   -3.2483    1.0325 C   0  0  0  1  0  0  0  0  0  0  0  0
    4.6749   -3.1394   -0.3016 C   0  0  0  1  0  0  0  0  0  0  0  0
    6.6665   -4.1499    0.8661 N   0  0  0  1  0  0  0  0  0  0  0  0
    0.9179    2.4773    0.0988 H   0  0  0  1  0  0  0  0  0  0  0  0
   -2.1490    1.9440   -0.0608 H   0  0  0  1  0  0  0  0  0  0  0  0
   -3.6869   -2.2378   -1.0740 H   0  0  0  1  0  0  0  0  0  0  0  0
   -4.3117   -4.5808   -0.9952 H   0  0  0  1  0  0  0  0  0  0  0  0
   -0.7110   -5.4727    0.9716 H   0  0  0  1  0  0  0  0  0  0  0  0
   -0.0871   -3.1336    0.8929 H   0  0  0  1  0  0  0  0  0  0  0  0
   -1.4874   -7.2393    1.4378 H   0  0  0  1  0  0  0  0  0  0  0  0
   -0.9422   -7.2142   -0.2219 H   0  0  0  1  0  0  0  0  0  0  0  0
   -2.1008   -8.4141    0.2994 H   0  0  0  1  0  0  0  0  0  0  0  0
    3.9417   -0.7261    0.2287 H   0  0  0  1  0  0  0  0  0  0  0  0
    2.4988   -3.1437   -0.4466 H   0  0  0  1  0  0  0  0  0  0  0  0
    2.8306   -2.4788    2.3039 H   0  0  0  1  0  0  0  0  0  0  0  0
    2.3577   -4.0353    1.6651 H   0  0  0  1  0  0  0  0  0  0  0  0
    4.4638   -4.9131    1.9503 H   0  0  0  1  0  0  0  0  0  0  0  0
    4.7246   -3.5623    3.0280 H   0  0  0  1  0  0  0  0  0  0  0  0
    5.8197   -2.2842    1.3577 H   0  0  0  1  0  0  0  0  0  0  0  0
    5.0940   -2.3966   -0.9477 H   0  0  0  1  0  0  0  0  0  0  0  0
    4.6445   -4.0798   -0.8110 H   0  0  0  1  0  0  0  0  0  0  0  0
    7.3002   -3.7472    0.2363 H   0  0  0  1  0  0  0  0  0  0  0  0
    6.3678   -5.0165    0.5195 H   0  0  0  1  0  0  0  0  0  0  0  0
  1  2  4  0  0  0  0
  1  6  4  0  0  0  0
  1 18  1  0  0  0  0
  2  3  4  0  0  0  0
  3  4  4  0  0  0  0
  3 25  1  0  0  0  0
  4  5  4  0  0  0  0
  4  7  4  0  0  0  0
  5  6  4  0  0  0  0
  5  9  4  0  0  0  0
  7  8  4  0  0  0  0
  7 26  1  0  0  0  0
  8  9  4  0  0  0  0
  9 10  1  0  0  0  0
 10 11  4  0  0  0  0
 10 15  4  0  0  0  0
 11 12  4  0  0  0  0
 11 27  1  0  0  0  0
 12 13  4  0  0  0  0
 12 28  1  0  0  0  0
 13 14  4  0  0  0  0
 13 16  1  0  0  0  0
 14 15  4  0  0  0  0
 14 29  1  0  0  0  0
 15 30  1  0  0  0  0
 16 17  1  0  0  0  0
 17 31  1  0  0  0  0
 17 32  1  0  0  0  0
 17 33  1  0  0  0  0
 18 19  1  0  0  0  0
 18 34  1  0  0  0  0
 19 20  1  0  0  0  0
 19 23  1  0  0  0  0
 19 35  1  0  0  0  0
 20 21  1  0  0  0  0
 20 36  1  0  0  0  0
 20 37  1  0  0  0  0
 21 22  1  0  0  0  0
 21 38  1  0  0  0  0
 21 39  1  0  0  0  0
 22 23  1  0  0  0  0
 22 24  1  0  0  0  0
 22 40  1  0  0  0  0
 23 41  1  0  0  0  0
 23 42  1  0  0  0  0
 24 43  1  0  0  0  0
 24 44  1  0  0  0  0
M  END
> <ConfClashScore>
0 

> <ConfOneFourInteractionScore>
-0.984337 

> <ConfScore>
-0.0447399 

> <ConfScorePBest>
0.00352659 

> <ConfTolerance>
0.390371 

$$$$
c22.sdf
 OpenBabel04162418103D

 44 47  0  0  0  0  0  0  0  0999 V2000
    1.9452   -0.6102    0.1256 C   0  0  0  1  0  0  0  0  0  0  0  0
    2.0363    0.7233    0.1481 N   0  0  0  1  0  0  0  0  0  0  0  0
    0.8946    1.4376    0.0881 C   0  0  0  1  0  0  0  0  0  0  0  0
   -0.3452    0.7386    0.0096 C   0  0  0  1  0  0  0  0  0  0  0  0
   -0.2528   -0.6478    0.0020 C   0  0  0  1  0  0  0  0  0  0  0  0
    0.8779   -1.3912    0.0539 N   0  0  0  1  0  0  0  0  0  0  0  0
   -1.7303    0.9921   -0.0538 C   0  0  0  1  0  0  0  0  0  0  0  0
   -2.4281   -0.1192   -0.1029 N   0  0  0  1  0  0  0  0  0  0  0  0
   -1.5126   -1.1342   -0.0681 N   0  0  0  1  0  0  0  0  0  0  0  0
   -1.8418   -2.5192   -0.1013 C   0  0  0  1  0  0  0  0  0  0  0  0
   -3.0272   -2.9340   -0.6785 C   0  0  0  1  0  0  0  0  0  0  0  0
   -3.3453   -4.2826   -0.7156 C   0  0  0  1  0  0  0  0  0  0  0  0
   -2.4797   -5.2122   -0.1707 C   0  0  0  1  0  0  0  0  0  0  0  0
   -1.2908   -4.7961    0.4082 C   0  0  0  1  0  0  0  0  0  0  0  0
   -0.9736   -3.4514    0.4452 C   0  0  0  1  0  0  0  0  0  0  0  0
   -2.8518   -6.5127   -0.2347 O   0  0  0  1  0  0  0  0  0  0  0  0
   -4.2233   -6.7873   -0.5603 C   0  0  0  1  0  0  0  0  0  0  0  0
    3.1257   -1.2629    0.1851 N   0  0  0  1  0  0  0  0  0  0  0  0
    4.4281   -0.5925    0.2403 C   0  0  0  1  0  0  0  0  0  0  0  0
    5.0752   -0.5084   -1.1481 C   0  0  0  1  0  0  0  0  0  0  0  0
    5.6307   -1.9045   -1.4008 C   0  0  0  1  0  0  0  0  0  0  0  0
    5.9674   -2.4651   -0.0143 C   0  0  0  1  0  0  0  0  0  0  0  0
    5.4578   -1.4312    1.0022 C   0  0  0  1  0  0  0  0  0  0  0  0
    7.4179   -2.6422    0.1242 N   0  0  0  1  0  0  0  0  0  0  0  0
    0.9179    2.4772    0.0988 H   0  0  0  1  0  0  0  0  0  0  0  0
   -2.1490    1.9441   -0.0609 H   0  0  0  1  0  0  0  0  0  0  0  0
   -3.6805   -2.2342   -1.0850 H   0  0  0  1  0  0  0  0  0  0  0  0
   -4.2353   -4.5950   -1.1535 H   0  0  0  1  0  0  0  0  0  0  0  0
   -0.6375   -5.4958    0.8146 H   0  0  0  1  0  0  0  0  0  0  0  0
   -0.0835   -3.1388    0.8831 H   0  0  0  1  0  0  0  0  0  0  0  0
   -4.4225   -7.8290   -0.4180 H   0  0  0  1  0  0  0  0  0  0  0  0
   -4.4065   -6.5257   -1.5815 H   0  0  0  1  0  0  0  0  0  0  0  0
   -4.8629   -6.2122    0.0760 H   0  0  0  1  0  0  0  0  0  0  0  0
    3.1109   -2.2427    0.1920 H   0  0  0  1  0  0  0  0  0  0  0  0
    4.3125    0.3771    0.6776 H   0  0  0  1  0  0  0  0  0  0  0  0
    5.8614    0.2173   -1.1547 H   0  0  0  1  0  0  0  0  0  0  0  0
    4.3467   -0.2525   -1.8890 H   0  0  0  1  0  0  0  0  0  0  0  0
    6.5105   -1.8531   -2.0076 H   0  0  0  1  0  0  0  0  0  0  0  0
    4.8985   -2.5168   -1.8845 H   0  0  0  1  0  0  0  0  0  0  0  0
    5.4773   -3.4045    0.1349 H   0  0  0  1  0  0  0  0  0  0  0  0
    6.2624   -0.8155    1.3463 H   0  0  0  1  0  0  0  0  0  0  0  0
    4.9999   -1.9199    1.8367 H   0  0  0  1  0  0  0  0  0  0  0  0
    7.6297   -2.8988    1.0459 H   0  0  0  1  0  0  0  0  0  0  0  0
    7.8716   -1.8010   -0.0928 H   0  0  0  1  0  0  0  0  0  0  0  0
  1  2  4  0  0  0  0
  1  6  4  0  0  0  0
  1 18  1  0  0  0  0
  2  3  4  0  0  0  0
  3  4  4  0  0  0  0
  3 25  1  0  0  0  0
  4  5  4  0  0  0  0
  4  7  4  0  0  0  0
  5  6  4  0  0  0  0
  5  9  4  0  0  0  0
  7  8  4  0  0  0  0
  7 26  1  0  0  0  0
  8  9  4  0  0  0  0
  9 10  1  0  0  0  0
 10 11  4  0  0  0  0
 10 15  4  0  0  0  0
 11 12  4  0  0  0  0
 11 27  1  0  0  0  0
 12 13  4  0  0  0  0
 12 28  1  0  0  0  0
 13 14  4  0  0  0  0
 13 16  1  0  0  0  0
 14 15  4  0  0  0  0
 14 29  1  0  0  0  0
 15 30  1  0  0  0  0
 16 17  1  0  0  0  0
 17 31  1  0  0  0  0
 17 32  1  0  0  0  0
 17 33  1  0  0  0  0
 18 19  1  0  0  0  0
 18 34  1  0  0  0  0
 19 20  1  0  0  0  0
 19 23  1  0  0  0  0
 19 35  1  0  0  0  0
 20 21  1  0  0  0  0
 20 36  1  0  0  0  0
 20 37  1  0  0  0  0
 21 22  1  0  0  0  0
 21 38  1  0  0  0  0
 21 39  1  0  0  0  0
 22 23  1  0  0  0  0
 22 24  1  0  0  0  0
 22 40  1  0  0  0  0
 23 41  1  0  0  0  0
 23 42  1  0  0  0  0
 24 43  1  0  0  0  0
 24 44  1  0  0  0  0
M  END
> <ConfClashScore>
0 

> <ConfOneFourInteractionScore>
-0.984337 

> <ConfScore>
-0.0447399 

> <ConfScorePBest>
0.00351326 

> <ConfTolerance>
0.231179 

$$$$
c22.sdf
 OpenBabel04162418103D

 44 47  0  0  0  0  0  0  0  0999 V2000
    1.9452   -0.6103    0.1255 C   0  0  0  1  0  0  0  0  0  0  0  0
    2.0363    0.7233    0.1481 N   0  0  0  1  0  0  0  0  0  0  0  0
    0.8945    1.4376    0.0881 C   0  0  0  1  0  0  0  0  0  0  0  0
   -0.3453    0.7386    0.0096 C   0  0  0  1  0  0  0  0  0  0  0  0
   -0.2529   -0.6477    0.0020 C   0  0  0  1  0  0  0  0  0  0  0  0
    0.8779   -1.3913    0.0539 N   0  0  0  1  0  0  0  0  0  0  0  0
   -1.7303    0.9921   -0.0538 C   0  0  0  1  0  0  0  0  0  0  0  0
   -2.4281   -0.1191   -0.1028 N   0  0  0  1  0  0  0  0  0  0  0  0
   -1.5125   -1.1341   -0.0681 N   0  0  0  1  0  0  0  0  0  0  0  0
   -1.8416   -2.5179   -0.1014 C   0  0  0  1  0  0  0  0  0  0  0  0
   -0.9872   -3.4451    0.4647 C   0  0  0  1  0  0  0  0  0  0  0  0
   -1.3104   -4.7927    0.4370 C   0  0  0  1  0  0  0  0  0  0  0  0
   -2.4845   -5.2099   -0.1612 C   0  0  0  1  0  0  0  0  0  0  0  0
   -3.3414   -4.2798   -0.7289 C   0  0  0  1  0  0  0  0  0  0  0  0
   -3.0192   -2.9360   -0.7014 C   0  0  0  1  0  0  0  0  0  0  0  0
   -2.9000   -6.4881   -0.2530 O   0  0  0  1  0  0  0  0  0  0  0  0
   -2.0048   -7.4659    0.3259 C   0  0  0  1  0  0  0  0  0  0  0  0
    3.1148   -1.2569    0.1845 N   0  0  0  1  0  0  0  0  0  0  0  0
    3.3079   -2.7096    0.1708 C   0  0  0  1  0  0  0  0  0  0  0  0
    3.3367   -3.2606    1.5991 C   0  0  0  1  0  0  0  0  0  0  0  0
    4.1199   -4.5652    1.4035 C   0  0  0  1  0  0  0  0  0  0  0  0
    5.2389   -4.2028    0.4351 C   0  0  0  1  0  0  0  0  0  0  0  0
    4.6785   -3.0652   -0.4265 C   0  0  0  1  0  0  0  0  0  0  0  0
    5.5922   -5.3724   -0.4131 N   0  0  0  1  0  0  0  0  0  0  0  0
    0.9180    2.4772    0.0988 H   0  0  0  1  0  0  0  0  0  0  0  0
   -2.1490    1.9441   -0.0608 H   0  0  0  1  0  0  0  0  0  0  0  0
   -0.1019   -3.1317    0.9114 H   0  0  0  1  0  0  0  0  0  0  0  0
   -0.6694   -5.4901    0.8665 H   0  0  0  1  0  0  0  0  0  0  0  0
   -4.2267   -4.5932   -1.1756 H   0  0  0  1  0  0  0  0  0  0  0  0
   -3.6601   -2.2387   -1.1309 H   0  0  0  1  0  0  0  0  0  0  0  0
   -2.0049   -7.3637    1.3910 H   0  0  0  1  0  0  0  0  0  0  0  0
   -1.0147   -7.3077   -0.0474 H   0  0  0  1  0  0  0  0  0  0  0  0
   -2.3330   -8.4496    0.0623 H   0  0  0  1  0  0  0  0  0  0  0  0
    3.9222   -0.7046    0.2426 H   0  0  0  1  0  0  0  0  0  0  0  0
    2.5227   -3.1690   -0.3925 H   0  0  0  1  0  0  0  0  0  0  0  0
    3.8451   -2.5950    2.2651 H   0  0  0  1  0  0  0  0  0  0  0  0
    2.3493   -3.4480    1.9663 H   0  0  0  1  0  0  0  0  0  0  0  0
    3.4910   -5.3239    0.9864 H   0  0  0  1  0  0  0  0  0  0  0  0
    4.5223   -4.9068    2.3342 H   0  0  0  1  0  0  0  0  0  0  0  0
    6.1056   -3.8749    0.9703 H   0  0  0  1  0  0  0  0  0  0  0  0
    4.5685   -3.3879   -1.4407 H   0  0  0  1  0  0  0  0  0  0  0  0
    5.3299   -2.2172   -0.3903 H   0  0  0  1  0  0  0  0  0  0  0  0
    6.2233   -5.0932   -1.1090 H   0  0  0  1  0  0  0  0  0  0  0  0
    4.7812   -5.7289   -0.8319 H   0  0  0  1  0  0  0  0  0  0  0  0
  1  2  4  0  0  0  0
  1  6  4  0  0  0  0
  1 18  1  0  0  0  0
  2  3  4  0  0  0  0
  3  4  4  0  0  0  0
  3 25  1  0  0  0  0
  4  5  4  0  0  0  0
  4  7  4  0  0  0  0
  5  6  4  0  0  0  0
  5  9  4  0  0  0  0
  7  8  4  0  0  0  0
  7 26  1  0  0  0  0
  8  9  4  0  0  0  0
  9 10  1  0  0  0  0
 10 11  4  0  0  0  0
 10 15  4  0  0  0  0
 11 12  4  0  0  0  0
 11 27  1  0  0  0  0
 12 13  4  0  0  0  0
 12 28  1  0  0  0  0
 13 14  4  0  0  0  0
 13 16  1  0  0  0  0
 14 15  4  0  0  0  0
 14 29  1  0  0  0  0
 15 30  1  0  0  0  0
 16 17  1  0  0  0  0
 17 31  1  0  0  0  0
 17 32  1  0  0  0  0
 17 33  1  0  0  0  0
 18 19  1  0  0  0  0
 18 34  1  0  0  0  0
 19 20  1  0  0  0  0
 19 23  1  0  0  0  0
 19 35  1  0  0  0  0
 20 21  1  0  0  0  0
 20 36  1  0  0  0  0
 20 37  1  0  0  0  0
 21 22  1  0  0  0  0
 21 38  1  0  0  0  0
 21 39  1  0  0  0  0
 22 23  1  0  0  0  0
 22 24  1  0  0  0  0
 22 40  1  0  0  0  0
 23 41  1  0  0  0  0
 23 42  1  0  0  0  0
 24 43  1  0  0  0  0
 24 44  1  0  0  0  0
M  END
> <ConfClashScore>
0 

> <ConfOneFourInteractionScore>
-0.984337 

> <ConfScore>
-0.0447399 

> <ConfScorePBest>
0.00349994 

> <ConfTolerance>
0.310311 

$$$$
c22.sdf
 OpenBabel04162418103D

 44 47  0  0  0  0  0  0  0  0999 V2000
    1.9452   -0.6102    0.1255 C   0  0  0  1  0  0  0  0  0  0  0  0
    2.0362    0.7233    0.1481 N   0  0  0  1  0  0  0  0  0  0  0  0
    0.8946    1.4376    0.0881 C   0  0  0  1  0  0  0  0  0  0  0  0
   -0.3452    0.7386    0.0096 C   0  0  0  1  0  0  0  0  0  0  0  0
   -0.2528   -0.6477    0.0020 C   0  0  0  1  0  0  0  0  0  0  0  0
    0.8780   -1.3913    0.0539 N   0  0  0  1  0  0  0  0  0  0  0  0
   -1.7304    0.9921   -0.0538 C   0  0  0  1  0  0  0  0  0  0  0  0
   -2.4281   -0.1192   -0.1028 N   0  0  0  1  0  0  0  0  0  0  0  0
   -1.5125   -1.1342   -0.0681 N   0  0  0  1  0  0  0  0  0  0  0  0
   -1.8396   -2.5100   -0.1011 C   0  0  0  1  0  0  0  0  0  0  0  0
   -2.6087   -3.0127   -1.1335 C   0  0  0  1  0  0  0  0  0  0  0  0
   -2.9247   -4.3618   -1.1687 C   0  0  0  1  0  0  0  0  0  0  0  0
   -2.4753   -5.2034   -0.1687 C   0  0  0  1  0  0  0  0  0  0  0  0
   -1.7039   -4.6990    0.8668 C   0  0  0  1  0  0  0  0  0  0  0  0
   -1.3888   -3.3537    0.9019 C   0  0  0  1  0  0  0  0  0  0  0  0
   -2.8489   -6.4905   -0.3055 O   0  0  0  1  0  0  0  0  0  0  0  0
   -2.5290   -7.3436    0.8181 C   0  0  0  1  0  0  0  0  0  0  0  0
    3.1148   -1.2568    0.1845 N   0  0  0  1  0  0  0  0  0  0  0  0
    4.4260   -0.6616    0.4617 C   0  0  0  1  0  0  0  0  0  0  0  0
    5.5622   -1.6107    0.0343 C   0  0  0  1  0  0  0  0  0  0  0  0
    6.7666   -1.2609    0.9259 C   0  0  0  1  0  0  0  0  0  0  0  0
    6.2086   -0.4548    2.1327 C   0  0  0  1  0  0  0  0  0  0  0  0
    4.6485   -0.4919    2.0029 C   0  0  0  1  0  0  0  0  0  0  0  0
    6.6952    0.9476    2.0831 N   0  0  0  1  0  0  0  0  0  0  0  0
    0.9178    2.4773    0.0988 H   0  0  0  1  0  0  0  0  0  0  0  0
   -2.1490    1.9440   -0.0608 H   0  0  0  1  0  0  0  0  0  0  0  0
   -2.9504   -2.3788   -1.8840 H   0  0  0  1  0  0  0  0  0  0  0  0
   -3.5001   -4.7410   -1.9477 H   0  0  0  1  0  0  0  0  0  0  0  0
   -1.3623   -5.3329    1.6172 H   0  0  0  1  0  0  0  0  0  0  0  0
   -0.8134   -2.9746    1.6810 H   0  0  0  1  0  0  0  0  0  0  0  0
   -2.3621   -8.3423    0.4722 H   0  0  0  1  0  0  0  0  0  0  0  0
   -3.3429   -7.3383    1.5127 H   0  0  0  1  0  0  0  0  0  0  0  0
   -1.6453   -6.9812    1.3006 H   0  0  0  1  0  0  0  0  0  0  0  0
    3.0933   -2.2238    0.0270 H   0  0  0  1  0  0  0  0  0  0  0  0
    4.5046    0.2794   -0.0416 H   0  0  0  1  0  0  0  0  0  0  0  0
    5.2719   -2.6294    0.1851 H   0  0  0  1  0  0  0  0  0  0  0  0
    5.8062   -1.4576   -0.9963 H   0  0  0  1  0  0  0  0  0  0  0  0
    7.2437   -2.1552    1.2688 H   0  0  0  1  0  0  0  0  0  0  0  0
    7.4700   -0.6677    0.3798 H   0  0  0  1  0  0  0  0  0  0  0  0
    6.5144   -0.9067    3.0530 H   0  0  0  1  0  0  0  0  0  0  0  0
    4.2117    0.4188    2.3562 H   0  0  0  1  0  0  0  0  0  0  0  0
    4.2375   -1.3185    2.5437 H   0  0  0  1  0  0  0  0  0  0  0  0
    6.1857    1.4933    2.7179 H   0  0  0  1  0  0  0  0  0  0  0  0
    6.5755    1.3030    1.1777 H   0  0  0  1  0  0  0  0  0  0  0  0
  1  2  4  0  0  0  0
  1  6  4  0  0  0  0
  1 18  1  0  0  0  0
  2  3  4  0  0  0  0
  3  4  4  0  0  0  0
  3 25  1  0  0  0  0
  4  5  4  0  0  0  0
  4  7  4  0  0  0  0
  5  6  4  0  0  0  0
  5  9  4  0  0  0  0
  7  8  4  0  0  0  0
  7 26  1  0  0  0  0
  8  9  4  0  0  0  0
  9 10  1  0  0  0  0
 10 11  4  0  0  0  0
 10 15  4  0  0  0  0
 11 12  4  0  0  0  0
 11 27  1  0  0  0  0
 12 13  4  0  0  0  0
 12 28  1  0  0  0  0
 13 14  4  0  0  0  0
 13 16  1  0  0  0  0
 14 15  4  0  0  0  0
 14 29  1  0  0  0  0
 15 30  1  0  0  0  0
 16 17  1  0  0  0  0
 17 31  1  0  0  0  0
 17 32  1  0  0  0  0
 17 33  1  0  0  0  0
 18 19  1  0  0  0  0
 18 34  1  0  0  0  0
 19 20  1  0  0  0  0
 19 23  1  0  0  0  0
 19 35  1  0  0  0  0
 20 21  1  0  0  0  0
 20 36  1  0  0  0  0
 20 37  1  0  0  0  0
 21 22  1  0  0  0  0
 21 38  1  0  0  0  0
 21 39  1  0  0  0  0
 22 23  1  0  0  0  0
 22 24  1  0  0  0  0
 22 40  1  0  0  0  0
 23 41  1  0  0  0  0
 23 42  1  0  0  0  0
 24 43  1  0  0  0  0
 24 44  1  0  0  0  0
M  END
> <ConfClashScore>
0 

> <ConfOneFourInteractionScore>
-0.984337 

> <ConfScore>
-0.0437587 

> <ConfScorePBest>
0.00348661 

> <ConfTolerance>
0.262015 

$$$$
c22.sdf
 OpenBabel04162418103D

 44 47  0  0  0  0  0  0  0  0999 V2000
    1.9452   -0.6102    0.1254 C   0  0  0  1  0  0  0  0  0  0  0  0
    2.0363    0.7234    0.1481 N   0  0  0  1  0  0  0  0  0  0  0  0
    0.8946    1.4375    0.0881 C   0  0  0  1  0  0  0  0  0  0  0  0
   -0.3452    0.7386    0.0096 C   0  0  0  1  0  0  0  0  0  0  0  0
   -0.2528   -0.6477    0.0019 C   0  0  0  1  0  0  0  0  0  0  0  0
    0.8780   -1.3913    0.0538 N   0  0  0  1  0  0  0  0  0  0  0  0
   -1.7304    0.9921   -0.0538 C   0  0  0  1  0  0  0  0  0  0  0  0
   -2.4281   -0.1191   -0.1029 N   0  0  0  1  0  0  0  0  0  0  0  0
   -1.5125   -1.1342   -0.0681 N   0  0  0  1  0  0  0  0  0  0  0  0
   -1.8419   -2.5192   -0.1014 C   0  0  0  1  0  0  0  0  0  0  0  0
   -2.6950   -3.0496    0.8479 C   0  0  0  1  0  0  0  0  0  0  0  0
   -3.0197   -4.3967    0.8123 C   0  0  0  1  0  0  0  0  0  0  0  0
   -2.4863   -5.2107   -0.1692 C   0  0  0  1  0  0  0  0  0  0  0  0
   -1.6307   -4.6786   -1.1213 C   0  0  0  1  0  0  0  0  0  0  0  0
   -1.3067   -3.3354   -1.0858 C   0  0  0  1  0  0  0  0  0  0  0  0
   -2.8948   -6.4939   -0.0632 O   0  0  0  1  0  0  0  0  0  0  0  0
   -2.2552   -7.5135   -0.8657 C   0  0  0  1  0  0  0  0  0  0  0  0
    3.1257   -1.2629    0.1850 N   0  0  0  1  0  0  0  0  0  0  0  0
    4.4289   -0.5992    0.1243 C   0  0  0  1  0  0  0  0  0  0  0  0
    5.3482   -1.2939   -0.8650 C   0  0  0  1  0  0  0  0  0  0  0  0
    6.7659   -0.9992   -0.3825 C   0  0  0  1  0  0  0  0  0  0  0  0
    6.6256   -1.0952    1.1488 C   0  0  0  1  0  0  0  0  0  0  0  0
    5.1805   -0.7373    1.4584 C   0  0  0  1  0  0  0  0  0  0  0  0
    7.5309   -0.1567    1.8004 N   0  0  0  1  0  0  0  0  0  0  0  0
    0.9179    2.4772    0.0988 H   0  0  0  1  0  0  0  0  0  0  0  0
   -2.1490    1.9440   -0.0608 H   0  0  0  1  0  0  0  0  0  0  0  0
   -3.0931   -2.4380    1.5888 H   0  0  0  1  0  0  0  0  0  0  0  0
   -3.6648   -4.7950    1.5242 H   0  0  0  1  0  0  0  0  0  0  0  0
   -1.2324   -5.2901   -1.8622 H   0  0  0  1  0  0  0  0  0  0  0  0
   -0.6617   -2.9370   -1.7977 H   0  0  0  1  0  0  0  0  0  0  0  0
   -1.2329   -7.6146   -0.5663 H   0  0  0  1  0  0  0  0  0  0  0  0
   -2.2985   -7.2342   -1.8977 H   0  0  0  1  0  0  0  0  0  0  0  0
   -2.7613   -8.4460   -0.7266 H   0  0  0  1  0  0  0  0  0  0  0  0
    3.1090   -2.2386    0.2741 H   0  0  0  1  0  0  0  0  0  0  0  0
    4.2938    0.4301   -0.1351 H   0  0  0  1  0  0  0  0  0  0  0  0
    5.2001   -0.9036   -1.8502 H   0  0  0  1  0  0  0  0  0  0  0  0
    5.1660   -2.3482   -0.8674 H   0  0  0  1  0  0  0  0  0  0  0  0
    7.0799   -0.0208   -0.6810 H   0  0  0  1  0  0  0  0  0  0  0  0
    7.4589   -1.7254   -0.7532 H   0  0  0  1  0  0  0  0  0  0  0  0
    6.8421   -2.0892    1.4805 H   0  0  0  1  0  0  0  0  0  0  0  0
    5.1425    0.1882    1.9940 H   0  0  0  1  0  0  0  0  0  0  0  0
    4.7336   -1.5101    2.0485 H   0  0  0  1  0  0  0  0  0  0  0  0
    7.4076    0.7367    1.4169 H   0  0  0  1  0  0  0  0  0  0  0  0
    8.4568   -0.4465    1.6619 H   0  0  0  1  0  0  0  0  0  0  0  0
  1  2  4  0  0  0  0
  1  6  4  0  0  0  0
  1 18  1  0  0  0  0
  2  3  4  0  0  0  0
  3  4  4  0  0  0  0
  3 25  1  0  0  0  0
  4  5  4  0  0  0  0
  4  7  4  0  0  0  0
  5  6  4  0  0  0  0
  5  9  4  0  0  0  0
  7  8  4  0  0  0  0
  7 26  1  0  0  0  0
  8  9  4  0  0  0  0
  9 10  1  0  0  0  0
 10 11  4  0  0  0  0
 10 15  4  0  0  0  0
 11 12  4  0  0  0  0
 11 27  1  0  0  0  0
 12 13  4  0  0  0  0
 12 28  1  0  0  0  0
 13 14  4  0  0  0  0
 13 16  1  0  0  0  0
 14 15  4  0  0  0  0
 14 29  1  0  0  0  0
 15 30  1  0  0  0  0
 16 17  1  0  0  0  0
 17 31  1  0  0  0  0
 17 32  1  0  0  0  0
 17 33  1  0  0  0  0
 18 19  1  0  0  0  0
 18 34  1  0  0  0  0
 19 20  1  0  0  0  0
 19 23  1  0  0  0  0
 19 35  1  0  0  0  0
 20 21  1  0  0  0  0
 20 36  1  0  0  0  0
 20 37  1  0  0  0  0
 21 22  1  0  0  0  0
 21 38  1  0  0  0  0
 21 39  1  0  0  0  0
 22 23  1  0  0  0  0
 22 24  1  0  0  0  0
 22 40  1  0  0  0  0
 23 41  1  0  0  0  0
 23 42  1  0  0  0  0
 24 43  1  0  0  0  0
 24 44  1  0  0  0  0
M  END
> <ConfClashScore>
0 

> <ConfOneFourInteractionScore>
-0.984337 

> <ConfScore>
-0.0436419 

> <ConfScorePBest>
0.00347328 

> <ConfTolerance>
0.380958 

$$$$
c22.sdf
 OpenBabel04162418103D

 44 47  0  0  0  0  0  0  0  0999 V2000
    1.9452   -0.6102    0.1256 C   0  0  0  1  0  0  0  0  0  0  0  0
    2.0363    0.7233    0.1482 N   0  0  0  1  0  0  0  0  0  0  0  0
    0.8946    1.4376    0.0881 C   0  0  0  1  0  0  0  0  0  0  0  0
   -0.3452    0.7386    0.0096 C   0  0  0  1  0  0  0  0  0  0  0  0
   -0.2528   -0.6478    0.0020 C   0  0  0  1  0  0  0  0  0  0  0  0
    0.8780   -1.3913    0.0538 N   0  0  0  1  0  0  0  0  0  0  0  0
   -1.7304    0.9921   -0.0538 C   0  0  0  1  0  0  0  0  0  0  0  0
   -2.4282   -0.1191   -0.1029 N   0  0  0  1  0  0  0  0  0  0  0  0
   -1.5125   -1.1342   -0.0681 N   0  0  0  1  0  0  0  0  0  0  0  0
   -1.8417   -2.5184   -0.1014 C   0  0  0  1  0  0  0  0  0  0  0  0
   -3.0147   -2.9639    0.4782 C   0  0  0  1  0  0  0  0  0  0  0  0
   -3.3377   -4.3112    0.4411 C   0  0  0  1  0  0  0  0  0  0  0  0
   -2.4846   -5.2102   -0.1706 C   0  0  0  1  0  0  0  0  0  0  0  0
   -1.3080   -4.7633   -0.7519 C   0  0  0  1  0  0  0  0  0  0  0  0
   -0.9857   -3.4197   -0.7149 C   0  0  0  1  0  0  0  0  0  0  0  0
   -2.7961   -6.5204   -0.2021 O   0  0  0  1  0  0  0  0  0  0  0  0
   -4.0861   -6.8565    0.3597 C   0  0  0  1  0  0  0  0  0  0  0  0
    3.1257   -1.2629    0.1851 N   0  0  0  1  0  0  0  0  0  0  0  0
    4.4334   -0.5972    0.1214 C   0  0  0  1  0  0  0  0  0  0  0  0
    4.5890    0.2110   -1.1734 C   0  0  0  1  0  0  0  0  0  0  0  0
    4.8930   -0.8294   -2.2443 C   0  0  0  1  0  0  0  0  0  0  0  0
    5.6145   -1.9671   -1.5125 C   0  0  0  1  0  0  0  0  0  0  0  0
    5.5718   -1.6114   -0.0180 C   0  0  0  1  0  0  0  0  0  0  0  0
    7.0360   -2.0684   -1.9824 N   0  0  0  1  0  0  0  0  0  0  0  0
    0.9179    2.4772    0.0988 H   0  0  0  1  0  0  0  0  0  0  0  0
   -2.1490    1.9440   -0.0607 H   0  0  0  1  0  0  0  0  0  0  0  0
   -3.6548   -2.2880    0.9421 H   0  0  0  1  0  0  0  0  0  0  0  0
   -4.2224   -4.6459    0.8737 H   0  0  0  1  0  0  0  0  0  0  0  0
   -0.6679   -5.4390   -1.2157 H   0  0  0  1  0  0  0  0  0  0  0  0
   -0.1012   -3.0850   -1.1475 H   0  0  0  1  0  0  0  0  0  0  0  0
   -4.0534   -6.7417    1.4230 H   0  0  0  1  0  0  0  0  0  0  0  0
   -4.3268   -7.8707    0.1179 H   0  0  0  1  0  0  0  0  0  0  0  0
   -4.8321   -6.2058   -0.0462 H   0  0  0  1  0  0  0  0  0  0  0  0
    3.1090   -2.2385    0.2763 H   0  0  0  1  0  0  0  0  0  0  0  0
    4.5626    0.0199    0.9858 H   0  0  0  1  0  0  0  0  0  0  0  0
    3.6845    0.7347   -1.4022 H   0  0  0  1  0  0  0  0  0  0  0  0
    5.3945    0.9100   -1.0872 H   0  0  0  1  0  0  0  0  0  0  0  0
    5.5228   -0.4132   -3.0025 H   0  0  0  1  0  0  0  0  0  0  0  0
    3.9868   -1.1853   -2.6883 H   0  0  0  1  0  0  0  0  0  0  0  0
    5.1137   -2.8965   -1.6868 H   0  0  0  1  0  0  0  0  0  0  0  0
    5.3714   -2.4831    0.5694 H   0  0  0  1  0  0  0  0  0  0  0  0
    6.5000   -1.1781    0.2910 H   0  0  0  1  0  0  0  0  0  0  0  0
    7.0504   -2.2266   -2.9494 H   0  0  0  1  0  0  0  0  0  0  0  0
    7.4794   -2.8121   -1.5233 H   0  0  0  1  0  0  0  0  0  0  0  0
  1  2  4  0  0  0  0
  1  6  4  0  0  0  0
  1 18  1  0  0  0  0
  2  3  4  0  0  0  0
  3  4  4  0  0  0  0
  3 25  1  0  0  0  0
  4  5  4  0  0  0  0
  4  7  4  0  0  0  0
  5  6  4  0  0  0  0
  5  9  4  0  0  0  0
  7  8  4  0  0  0  0
  7 26  1  0  0  0  0
  8  9  4  0  0  0  0
  9 10  1  0  0  0  0
 10 11  4  0  0  0  0
 10 15  4  0  0  0  0
 11 12  4  0  0  0  0
 11 27  1  0  0  0  0
 12 13  4  0  0  0  0
 12 28  1  0  0  0  0
 13 14  4  0  0  0  0
 13 16  1  0  0  0  0
 14 15  4  0  0  0  0
 14 29  1  0  0  0  0
 15 30  1  0  0  0  0
 16 17  1  0  0  0  0
 17 31  1  0  0  0  0
 17 32  1  0  0  0  0
 17 33  1  0  0  0  0
 18 19  1  0  0  0  0
 18 34  1  0  0  0  0
 19 20  1  0  0  0  0
 19 23  1  0  0  0  0
 19 35  1  0  0  0  0
 20 21  1  0  0  0  0
 20 36  1  0  0  0  0
 20 37  1  0  0  0  0
 21 22  1  0  0  0  0
 21 38  1  0  0  0  0
 21 39  1  0  0  0  0
 22 23  1  0  0  0  0
 22 24  1  0  0  0  0
 22 40  1  0  0  0  0
 23 41  1  0  0  0  0
 23 42  1  0  0  0  0
 24 43  1  0  0  0  0
 24 44  1  0  0  0  0
M  END
> <ConfClashScore>
0 

> <ConfOneFourInteractionScore>
-0.985399 

> <ConfScore>
-0.0435206 

> <ConfScorePBest>
0.00345995 

> <ConfTolerance>
0.278104 

$$$$
c22.sdf
 OpenBabel04162418103D

 44 47  0  0  0  0  0  0  0  0999 V2000
    1.9453   -0.6103    0.1255 C   0  0  0  1  0  0  0  0  0  0  0  0
    2.0363    0.7233    0.1481 N   0  0  0  1  0  0  0  0  0  0  0  0
    0.8946    1.4376    0.0881 C   0  0  0  1  0  0  0  0  0  0  0  0
   -0.3452    0.7387    0.0096 C   0  0  0  1  0  0  0  0  0  0  0  0
   -0.2527   -0.6477    0.0020 C   0  0  0  1  0  0  0  0  0  0  0  0
    0.8780   -1.3912    0.0539 N   0  0  0  1  0  0  0  0  0  0  0  0
   -1.7303    0.9921   -0.0538 C   0  0  0  1  0  0  0  0  0  0  0  0
   -2.4281   -0.1191   -0.1028 N   0  0  0  1  0  0  0  0  0  0  0  0
   -1.5125   -1.1341   -0.0681 N   0  0  0  1  0  0  0  0  0  0  0  0
   -1.8419   -2.5193   -0.1013 C   0  0  0  1  0  0  0  0  0  0  0  0
   -3.0762   -2.9469    0.3498 C   0  0  0  1  0  0  0  0  0  0  0  0
   -3.3988   -4.2945    0.3125 C   0  0  0  1  0  0  0  0  0  0  0  0
   -2.4841   -5.2111   -0.1708 C   0  0  0  1  0  0  0  0  0  0  0  0
   -1.2460   -4.7820   -0.6232 C   0  0  0  1  0  0  0  0  0  0  0  0
   -0.9243   -3.4383   -0.5861 C   0  0  0  1  0  0  0  0  0  0  0  0
   -2.6838   -6.5481   -0.2510 O   0  0  0  1  0  0  0  0  0  0  0  0
   -3.9036   -7.0639    0.3045 C   0  0  0  1  0  0  0  0  0  0  0  0
    3.1323   -1.2665    0.1854 N   0  0  0  1  0  0  0  0  0  0  0  0
    4.4284   -0.5985    0.3129 C   0  0  0  1  0  0  0  0  0  0  0  0
    4.5998    0.4449   -0.7973 C   0  0  0  1  0  0  0  0  0  0  0  0
    5.7367   -0.0751   -1.6683 C   0  0  0  1  0  0  0  0  0  0  0  0
    6.6220   -0.8836   -0.7111 C   0  0  0  1  0  0  0  0  0  0  0  0
    5.5698   -1.6113    0.1301 C   0  0  0  1  0  0  0  0  0  0  0  0
    7.4639   -0.0004    0.1224 N   0  0  0  1  0  0  0  0  0  0  0  0
    0.9179    2.4772    0.0988 H   0  0  0  1  0  0  0  0  0  0  0  0
   -2.1489    1.9441   -0.0608 H   0  0  0  1  0  0  0  0  0  0  0  0
   -3.7630   -2.2578    0.7172 H   0  0  0  1  0  0  0  0  0  0  0  0
   -4.3292   -4.6160    0.6481 H   0  0  0  1  0  0  0  0  0  0  0  0
   -0.5593   -5.4711   -0.9906 H   0  0  0  1  0  0  0  0  0  0  0  0
    0.0060   -3.1168   -0.9217 H   0  0  0  1  0  0  0  0  0  0  0  0
   -4.7361   -6.5322   -0.1065 H   0  0  0  1  0  0  0  0  0  0  0  0
   -3.8913   -6.9405    1.3673 H   0  0  0  1  0  0  0  0  0  0  0  0
   -3.9920   -8.1033    0.0666 H   0  0  0  1  0  0  0  0  0  0  0  0
    3.1207   -2.2454    0.1405 H   0  0  0  1  0  0  0  0  0  0  0  0
    4.4969   -0.1322    1.2736 H   0  0  0  1  0  0  0  0  0  0  0  0
    3.7002    0.5336   -1.3697 H   0  0  0  1  0  0  0  0  0  0  0  0
    4.8533    1.3971   -0.3803 H   0  0  0  1  0  0  0  0  0  0  0  0
    6.2866    0.7374   -2.0954 H   0  0  0  1  0  0  0  0  0  0  0  0
    5.3576   -0.6997   -2.4501 H   0  0  0  1  0  0  0  0  0  0  0  0
    7.2442   -1.5734   -1.2420 H   0  0  0  1  0  0  0  0  0  0  0  0
    5.9770   -1.8926    1.0786 H   0  0  0  1  0  0  0  0  0  0  0  0
    5.2188   -2.4835   -0.3809 H   0  0  0  1  0  0  0  0  0  0  0  0
    8.0340    0.5487   -0.4554 H   0  0  0  1  0  0  0  0  0  0  0  0
    8.0255   -0.5458    0.7118 H   0  0  0  1  0  0  0  0  0  0  0  0
  1  2  4  0  0  0  0
  1  6  4  0  0  0  0
  1 18  1  0  0  0  0
  2  3  4  0  0  0  0
  3  4  4  0  0  0  0
  3 25  1  0  0  0  0
  4  5  4  0  0  0  0
  4  7  4  0  0  0  0
  5  6  4  0  0  0  0
  5  9  4  0  0  0  0
  7  8  4  0  0  0  0
  7 26  1  0  0  0  0
  8  9  4  0  0  0  0
  9 10  1  0  0  0  0
 10 11  4  0  0  0  0
 10 15  4  0  0  0  0
 11 12  4  0  0  0  0
 11 27  1  0  0  0  0
 12 13  4  0  0  0  0
 12 28  1  0  0  0  0
 13 14  4  0  0  0  0
 13 16  1  0  0  0  0
 14 15  4  0  0  0  0
 14 29  1  0  0  0  0
 15 30  1  0  0  0  0
 16 17  1  0  0  0  0
 17 31  1  0  0  0  0
 17 32  1  0  0  0  0
 17 33  1  0  0  0  0
 18 19  1  0  0  0  0
 18 34  1  0  0  0  0
 19 20  1  0  0  0  0
 19 23  1  0  0  0  0
 19 35  1  0  0  0  0
 20 21  1  0  0  0  0
 20 36  1  0  0  0  0
 20 37  1  0  0  0  0
 21 22  1  0  0  0  0
 21 38  1  0  0  0  0
 21 39  1  0  0  0  0
 22 23  1  0  0  0  0
 22 24  1  0  0  0  0
 22 40  1  0  0  0  0
 23 41  1  0  0  0  0
 23 42  1  0  0  0  0
 24 43  1  0  0  0  0
 24 44  1  0  0  0  0
M  END
> <ConfClashScore>
0 

> <ConfOneFourInteractionScore>
-0.985399 

> <ConfScore>
-0.0435206 

> <ConfScorePBest>
0.00344662 

> <ConfTolerance>
0.291986 

$$$$
c22.sdf
 OpenBabel04162418103D

 44 47  0  0  0  0  0  0  0  0999 V2000
    1.9452   -0.6102    0.1257 C   0  0  0  1  0  0  0  0  0  0  0  0
    2.0363    0.7233    0.1482 N   0  0  0  1  0  0  0  0  0  0  0  0
    0.8946    1.4376    0.0881 C   0  0  0  1  0  0  0  0  0  0  0  0
   -0.3452    0.7387    0.0096 C   0  0  0  1  0  0  0  0  0  0  0  0
   -0.2528   -0.6478    0.0021 C   0  0  0  1  0  0  0  0  0  0  0  0
    0.8779   -1.3912    0.0539 N   0  0  0  1  0  0  0  0  0  0  0  0
   -1.7303    0.9921   -0.0538 C   0  0  0  1  0  0  0  0  0  0  0  0
   -2.4281   -0.1190   -0.1029 N   0  0  0  1  0  0  0  0  0  0  0  0
   -1.5125   -1.1341   -0.0681 N   0  0  0  1  0  0  0  0  0  0  0  0
   -1.8397   -2.5098   -0.1012 C   0  0  0  1  0  0  0  0  0  0  0  0
   -0.9277   -3.4253   -0.5912 C   0  0  0  1  0  0  0  0  0  0  0  0
   -1.2463   -4.7741   -0.6187 C   0  0  0  1  0  0  0  0  0  0  0  0
   -2.4778   -5.2029   -0.1607 C   0  0  0  1  0  0  0  0  0  0  0  0
   -3.3925   -4.2845    0.3309 C   0  0  0  1  0  0  0  0  0  0  0  0
   -3.0750   -2.9396    0.3582 C   0  0  0  1  0  0  0  0  0  0  0  0
   -2.8527   -6.5042   -0.1649 O   0  0  0  1  0  0  0  0  0  0  0  0
   -4.2454   -6.7866    0.0424 C   0  0  0  1  0  0  0  0  0  0  0  0
    3.1379   -1.2696    0.1859 N   0  0  0  1  0  0  0  0  0  0  0  0
    4.3992   -0.5619    0.4456 C   0  0  0  1  0  0  0  0  0  0  0  0
    4.7942    0.2918   -0.7650 C   0  0  0  1  0  0  0  0  0  0  0  0
    6.0796   -0.3332   -1.3298 C   0  0  0  1  0  0  0  0  0  0  0  0
    6.1060   -1.7626   -0.7816 C   0  0  0  1  0  0  0  0  0  0  0  0
    5.5398   -1.5553    0.6291 C   0  0  0  1  0  0  0  0  0  0  0  0
    7.4841   -2.3004   -0.7382 N   0  0  0  1  0  0  0  0  0  0  0  0
    0.9179    2.4773    0.0989 H   0  0  0  1  0  0  0  0  0  0  0  0
   -2.1489    1.9441   -0.0608 H   0  0  0  1  0  0  0  0  0  0  0  0
   -0.0025   -3.1023   -0.9396 H   0  0  0  1  0  0  0  0  0  0  0  0
   -0.5585   -5.4635   -0.9838 H   0  0  0  1  0  0  0  0  0  0  0  0
   -4.3176   -4.6075    0.6792 H   0  0  0  1  0  0  0  0  0  0  0  0
   -3.7627   -2.2502    0.7233 H   0  0  0  1  0  0  0  0  0  0  0  0
   -4.8365   -6.1344   -0.5661 H   0  0  0  1  0  0  0  0  0  0  0  0
   -4.4908   -6.6328    1.0725 H   0  0  0  1  0  0  0  0  0  0  0  0
   -4.4467   -7.8030   -0.2248 H   0  0  0  1  0  0  0  0  0  0  0  0
    3.1540   -2.2404    0.0525 H   0  0  0  1  0  0  0  0  0  0  0  0
    4.2923    0.0504    1.3166 H   0  0  0  1  0  0  0  0  0  0  0  0
    4.0181    0.2727   -1.5012 H   0  0  0  1  0  0  0  0  0  0  0  0
    4.9751    1.3023   -0.4629 H   0  0  0  1  0  0  0  0  0  0  0  0
    6.0536   -0.3422   -2.3994 H   0  0  0  1  0  0  0  0  0  0  0  0
    6.9387    0.2115   -0.9979 H   0  0  0  1  0  0  0  0  0  0  0  0
    5.4860   -2.4150   -1.3602 H   0  0  0  1  0  0  0  0  0  0  0  0
    6.2879   -1.1545    1.2808 H   0  0  0  1  0  0  0  0  0  0  0  0
    5.1754   -2.4785    1.0288 H   0  0  0  1  0  0  0  0  0  0  0  0
    7.8544   -2.3249   -1.6452 H   0  0  0  1  0  0  0  0  0  0  0  0
    7.4689   -3.2073   -0.3672 H   0  0  0  1  0  0  0  0  0  0  0  0
  1  2  4  0  0  0  0
  1  6  4  0  0  0  0
  1 18  1  0  0  0  0
  2  3  4  0  0  0  0
  3  4  4  0  0  0  0
  3 25  1  0  0  0  0
  4  5  4  0  0  0  0
  4  7  4  0  0  0  0
  5  6  4  0  0  0  0
  5  9  4  0  0  0  0
  7  8  4  0  0  0  0
  7 26  1  0  0  0  0
  8  9  4  0  0  0  0
  9 10  1  0  0  0  0
 10 11  4  0  0  0  0
 10 15  4  0  0  0  0
 11 12  4  0  0  0  0
 11 27  1  0  0  0  0
 12 13  4  0  0  0  0
 12 28  1  0  0  0  0
 13 14  4  0  0  0  0
 13 16  1  0  0  0  0
 14 15  4  0  0  0  0
 14 29  1  0  0  0  0
 15 30  1  0  0  0  0
 16 17  1  0  0  0  0
 17 31  1  0  0  0  0
 17 32  1  0  0  0  0
 17 33  1  0  0  0  0
 18 19  1  0  0  0  0
 18 34  1  0  0  0  0
 19 20  1  0  0  0  0
 19 23  1  0  0  0  0
 19 35  1  0  0  0  0
 20 21  1  0  0  0  0
 20 36  1  0  0  0  0
 20 37  1  0  0  0  0
 21 22  1  0  0  0  0
 21 38  1  0  0  0  0
 21 39  1  0  0  0  0
 22 23  1  0  0  0  0
 22 24  1  0  0  0  0
 22 40  1  0  0  0  0
 23 41  1  0  0  0  0
 23 42  1  0  0  0  0
 24 43  1  0  0  0  0
 24 44  1  0  0  0  0
M  END
> <ConfClashScore>
0 

> <ConfOneFourInteractionScore>
-0.981848 

> <ConfScore>
-0.0435206 

> <ConfScorePBest>
0.00343329 

> <ConfTolerance>
0.360622 

$$$$
c22.sdf
 OpenBabel04162418103D

 44 47  0  0  0  0  0  0  0  0999 V2000
    1.9453   -0.6103    0.1255 C   0  0  0  1  0  0  0  0  0  0  0  0
    2.0363    0.7233    0.1481 N   0  0  0  1  0  0  0  0  0  0  0  0
    0.8946    1.4376    0.0881 C   0  0  0  1  0  0  0  0  0  0  0  0
   -0.3452    0.7386    0.0095 C   0  0  0  1  0  0  0  0  0  0  0  0
   -0.2529   -0.6477    0.0020 C   0  0  0  1  0  0  0  0  0  0  0  0
    0.8780   -1.3913    0.0539 N   0  0  0  1  0  0  0  0  0  0  0  0
   -1.7304    0.9921   -0.0538 C   0  0  0  1  0  0  0  0  0  0  0  0
   -2.4281   -0.1192   -0.1028 N   0  0  0  1  0  0  0  0  0  0  0  0
   -1.5125   -1.1342   -0.0681 N   0  0  0  1  0  0  0  0  0  0  0  0
   -1.8397   -2.5099   -0.1012 C   0  0  0  1  0  0  0  0  0  0  0  0
   -2.9624   -3.0190    0.5237 C   0  0  0  1  0  0  0  0  0  0  0  0
   -3.2385   -4.3757    0.4551 C   0  0  0  1  0  0  0  0  0  0  0  0
   -2.3882   -5.2201   -0.2337 C   0  0  0  1  0  0  0  0  0  0  0  0
   -1.2622   -4.7093   -0.8603 C   0  0  0  1  0  0  0  0  0  0  0  0
   -0.9868   -3.3566   -0.7920 C   0  0  0  1  0  0  0  0  0  0  0  0
   -2.5510   -6.5581   -0.3647 O   0  0  0  1  0  0  0  0  0  0  0  0
   -3.6546   -7.1562    0.3332 C   0  0  0  1  0  0  0  0  0  0  0  0
    3.1379   -1.2697    0.1856 N   0  0  0  1  0  0  0  0  0  0  0  0
    3.2074   -2.7312    0.2290 C   0  0  0  1  0  0  0  0  0  0  0  0
    2.6427   -3.2548    1.5633 C   0  0  0  1  0  0  0  0  0  0  0  0
    3.4950   -4.4946    1.8208 C   0  0  0  1  0  0  0  0  0  0  0  0
    4.8995   -4.1218    1.3795 C   0  0  0  1  0  0  0  0  0  0  0  0
    4.6552   -3.1933    0.1788 C   0  0  0  1  0  0  0  0  0  0  0  0
    5.6718   -5.3332    0.9714 N   0  0  0  1  0  0  0  0  0  0  0  0
    0.9179    2.4772    0.0988 H   0  0  0  1  0  0  0  0  0  0  0  0
   -2.1490    1.9440   -0.0608 H   0  0  0  1  0  0  0  0  0  0  0  0
   -3.6001   -2.3843    1.0454 H   0  0  0  1  0  0  0  0  0  0  0  0
   -4.0854   -4.7581    0.9219 H   0  0  0  1  0  0  0  0  0  0  0  0
   -0.6245   -5.3439   -1.3820 H   0  0  0  1  0  0  0  0  0  0  0  0
   -0.1399   -2.9740   -1.2588 H   0  0  0  1  0  0  0  0  0  0  0  0
   -4.5678   -6.6954    0.0191 H   0  0  0  1  0  0  0  0  0  0  0  0
   -3.5284   -7.0159    1.3865 H   0  0  0  1  0  0  0  0  0  0  0  0
   -3.6897   -8.2030    0.1139 H   0  0  0  1  0  0  0  0  0  0  0  0
    3.9697   -0.7516    0.2002 H   0  0  0  1  0  0  0  0  0  0  0  0
    2.6579   -3.1394   -0.5933 H   0  0  0  1  0  0  0  0  0  0  0  0
    2.7646   -2.5334    2.3441 H   0  0  0  1  0  0  0  0  0  0  0  0
    1.6077   -3.5099    1.4712 H   0  0  0  1  0  0  0  0  0  0  0  0
    3.4845   -4.7458    2.8609 H   0  0  0  1  0  0  0  0  0  0  0  0
    3.1315   -5.3231    1.2495 H   0  0  0  1  0  0  0  0  0  0  0  0
    5.4236   -3.6102    2.1597 H   0  0  0  1  0  0  0  0  0  0  0  0
    5.3084   -2.3476    0.2350 H   0  0  0  1  0  0  0  0  0  0  0  0
    4.8355   -3.7238   -0.7329 H   0  0  0  1  0  0  0  0  0  0  0  0
    5.9059   -5.8553    1.7669 H   0  0  0  1  0  0  0  0  0  0  0  0
    6.4908   -5.0578    0.5090 H   0  0  0  1  0  0  0  0  0  0  0  0
  1  2  4  0  0  0  0
  1  6  4  0  0  0  0
  1 18  1  0  0  0  0
  2  3  4  0  0  0  0
  3  4  4  0  0  0  0
  3 25  1  0  0  0  0
  4  5  4  0  0  0  0
  4  7  4  0  0  0  0
  5  6  4  0  0  0  0
  5  9  4  0  0  0  0
  7  8  4  0  0  0  0
  7 26  1  0  0  0  0
  8  9  4  0  0  0  0
  9 10  1  0  0  0  0
 10 11  4  0  0  0  0
 10 15  4  0  0  0  0
 11 12  4  0  0  0  0
 11 27  1  0  0  0  0
 12 13  4  0  0  0  0
 12 28  1  0  0  0  0
 13 14  4  0  0  0  0
 13 16  1  0  0  0  0
 14 15  4  0  0  0  0
 14 29  1  0  0  0  0
 15 30  1  0  0  0  0
 16 17  1  0  0  0  0
 17 31  1  0  0  0  0
 17 32  1  0  0  0  0
 17 33  1  0  0  0  0
 18 19  1  0  0  0  0
 18 34  1  0  0  0  0
 19 20  1  0  0  0  0
 19 23  1  0  0  0  0
 19 35  1  0  0  0  0
 20 21  1  0  0  0  0
 20 36  1  0  0  0  0
 20 37  1  0  0  0  0
 21 22  1  0  0  0  0
 21 38  1  0  0  0  0
 21 39  1  0  0  0  0
 22 23  1  0  0  0  0
 22 24  1  0  0  0  0
 22 40  1  0  0  0  0
 23 41  1  0  0  0  0
 23 42  1  0  0  0  0
 24 43  1  0  0  0  0
 24 44  1  0  0  0  0
M  END
> <ConfClashScore>
0 

> <ConfOneFourInteractionScore>
-0.981848 

> <ConfScore>
-0.0435206 

> <ConfScorePBest>
0.00341997 

> <ConfTolerance>
0.382347 

$$$$
c22.sdf
 OpenBabel04162418103D

 44 47  0  0  0  0  0  0  0  0999 V2000
    1.9453   -0.6102    0.1256 C   0  0  0  1  0  0  0  0  0  0  0  0
    2.0363    0.7234    0.1482 N   0  0  0  1  0  0  0  0  0  0  0  0
    0.8946    1.4376    0.0881 C   0  0  0  1  0  0  0  0  0  0  0  0
   -0.3453    0.7386    0.0096 C   0  0  0  1  0  0  0  0  0  0  0  0
   -0.2528   -0.6477    0.0020 C   0  0  0  1  0  0  0  0  0  0  0  0
    0.8779   -1.3913    0.0540 N   0  0  0  1  0  0  0  0  0  0  0  0
   -1.7304    0.9921   -0.0538 C   0  0  0  1  0  0  0  0  0  0  0  0
   -2.4282   -0.1191   -0.1029 N   0  0  0  1  0  0  0  0  0  0  0  0
   -1.5126   -1.1342   -0.0681 N   0  0  0  1  0  0  0  0  0  0  0  0
   -1.8419   -2.5192   -0.1013 C   0  0  0  1  0  0  0  0  0  0  0  0
   -1.3207   -3.3298   -1.0920 C   0  0  0  1  0  0  0  0  0  0  0  0
   -1.6371   -4.6791   -1.1212 C   0  0  0  1  0  0  0  0  0  0  0  0
   -2.4778   -5.2128   -0.1628 C   0  0  0  1  0  0  0  0  0  0  0  0
   -3.0005   -4.3997    0.8308 C   0  0  0  1  0  0  0  0  0  0  0  0
   -2.6852   -3.0543    0.8600 C   0  0  0  1  0  0  0  0  0  0  0  0
   -2.8486   -6.5089   -0.2908 O   0  0  0  1  0  0  0  0  0  0  0  0
   -3.7868   -7.0208    0.6685 C   0  0  0  1  0  0  0  0  0  0  0  0
    3.1148   -1.2568    0.1847 N   0  0  0  1  0  0  0  0  0  0  0  0
    4.4393   -0.6491    0.2190 C   0  0  0  1  0  0  0  0  0  0  0  0
    5.4968   -1.6618    0.6991 C   0  0  0  1  0  0  0  0  0  0  0  0
    6.6256   -0.8297    1.3329 C   0  0  0  1  0  0  0  0  0  0  0  0
    6.0336    0.5789    1.6199 C   0  0  0  1  0  0  0  0  0  0  0  0
    4.5048    0.4886    1.2936 C   0  0  0  1  0  0  0  0  0  0  0  0
    6.6889    1.6028    0.7491 N   0  0  0  1  0  0  0  0  0  0  0  0
    0.9179    2.4772    0.0988 H   0  0  0  1  0  0  0  0  0  0  0  0
   -2.1490    1.9441   -0.0608 H   0  0  0  1  0  0  0  0  0  0  0  0
   -0.6913   -2.9275   -1.8156 H   0  0  0  1  0  0  0  0  0  0  0  0
   -1.2417   -5.2898   -1.8643 H   0  0  0  1  0  0  0  0  0  0  0  0
   -3.6300   -4.8020    1.5544 H   0  0  0  1  0  0  0  0  0  0  0  0
   -3.0805   -2.4434    1.6030 H   0  0  0  1  0  0  0  0  0  0  0  0
   -3.3579   -6.9740    1.6476 H   0  0  0  1  0  0  0  0  0  0  0  0
   -4.0213   -8.0373    0.4304 H   0  0  0  1  0  0  0  0  0  0  0  0
   -4.6803   -6.4326    0.6422 H   0  0  0  1  0  0  0  0  0  0  0  0
    3.0774   -2.2358    0.2071 H   0  0  0  1  0  0  0  0  0  0  0  0
    4.6844   -0.2720   -0.7519 H   0  0  0  1  0  0  0  0  0  0  0  0
    5.8719   -2.2274   -0.1282 H   0  0  0  1  0  0  0  0  0  0  0  0
    5.0733   -2.3260    1.4232 H   0  0  0  1  0  0  0  0  0  0  0  0
    7.4510   -0.7522    0.6565 H   0  0  0  1  0  0  0  0  0  0  0  0
    6.9522   -1.2852    2.2444 H   0  0  0  1  0  0  0  0  0  0  0  0
    6.1782    0.8390    2.6477 H   0  0  0  1  0  0  0  0  0  0  0  0
    3.9408    0.2272    2.1646 H   0  0  0  1  0  0  0  0  0  0  0  0
    4.1412    1.4134    0.8969 H   0  0  0  1  0  0  0  0  0  0  0  0
    6.3143    2.4869    0.9451 H   0  0  0  1  0  0  0  0  0  0  0  0
    6.5285    1.3816   -0.1921 H   0  0  0  1  0  0  0  0  0  0  0  0
  1  2  4  0  0  0  0
  1  6  4  0  0  0  0
  1 18  1  0  0  0  0
  2  3  4  0  0  0  0
  3  4  4  0  0  0  0
  3 25  1  0  0  0  0
  4  5  4  0  0  0  0
  4  7  4  0  0  0  0
  5  6  4  0  0  0  0
  5  9  4  0  0  0  0
  7  8  4  0  0  0  0
  7 26  1  0  0  0  0
  8  9  4  0  0  0  0
  9 10  1  0  0  0  0
 10 11  4  0  0  0  0
 10 15  4  0  0  0  0
 11 12  4  0  0  0  0
 11 27  1  0  0  0  0
 12 13  4  0  0  0  0
 12 28  1  0  0  0  0
 13 14  4  0  0  0  0
 13 16  1  0  0  0  0
 14 15  4  0  0  0  0
 14 29  1  0  0  0  0
 15 30  1  0  0  0  0
 16 17  1  0  0  0  0
 17 31  1  0  0  0  0
 17 32  1  0  0  0  0
 17 33  1  0  0  0  0
 18 19  1  0  0  0  0
 18 34  1  0  0  0  0
 19 20  1  0  0  0  0
 19 23  1  0  0  0  0
 19 35  1  0  0  0  0
 20 21  1  0  0  0  0
 20 36  1  0  0  0  0
 20 37  1  0  0  0  0
 21 22  1  0  0  0  0
 21 38  1  0  0  0  0
 21 39  1  0  0  0  0
 22 23  1  0  0  0  0
 22 24  1  0  0  0  0
 22 40  1  0  0  0  0
 23 41  1  0  0  0  0
 23 42  1  0  0  0  0
 24 43  1  0  0  0  0
 24 44  1  0  0  0  0
M  END
> <ConfClashScore>
0 

> <ConfOneFourInteractionScore>
-0.985399 

> <ConfScore>
-0.0429332 

> <ConfScorePBest>
0.00340664 

> <ConfTolerance>
0.310655 

$$$$
c22.sdf
 OpenBabel04162418103D

 44 47  0  0  0  0  0  0  0  0999 V2000
    1.9452   -0.6103    0.1255 C   0  0  0  1  0  0  0  0  0  0  0  0
    2.0363    0.7233    0.1481 N   0  0  0  1  0  0  0  0  0  0  0  0
    0.8946    1.4376    0.0881 C   0  0  0  1  0  0  0  0  0  0  0  0
   -0.3452    0.7386    0.0096 C   0  0  0  1  0  0  0  0  0  0  0  0
   -0.2529   -0.6477    0.0020 C   0  0  0  1  0  0  0  0  0  0  0  0
    0.8779   -1.3913    0.0538 N   0  0  0  1  0  0  0  0  0  0  0  0
   -1.7304    0.9921   -0.0538 C   0  0  0  1  0  0  0  0  0  0  0  0
   -2.4282   -0.1191   -0.1028 N   0  0  0  1  0  0  0  0  0  0  0  0
   -1.5125   -1.1341   -0.0681 N   0  0  0  1  0  0  0  0  0  0  0  0
   -1.8397   -2.5099   -0.1012 C   0  0  0  1  0  0  0  0  0  0  0  0
   -1.3682   -3.3078   -1.1263 C   0  0  0  1  0  0  0  0  0  0  0  0
   -1.6843   -4.6571   -1.1558 C   0  0  0  1  0  0  0  0  0  0  0  0
   -2.4755   -5.2035   -0.1629 C   0  0  0  1  0  0  0  0  0  0  0  0
   -2.9484   -4.4030    0.8653 C   0  0  0  1  0  0  0  0  0  0  0  0
   -2.6332   -3.0576    0.8948 C   0  0  0  1  0  0  0  0  0  0  0  0
   -2.9194   -6.4817   -0.2165 O   0  0  0  1  0  0  0  0  0  0  0  0
   -3.6296   -6.9783    0.9288 C   0  0  0  1  0  0  0  0  0  0  0  0
    3.1274   -1.2639    0.1851 N   0  0  0  1  0  0  0  0  0  0  0  0
    4.4253   -0.5950    0.3217 C   0  0  0  1  0  0  0  0  0  0  0  0
    4.7593    0.1931   -0.9592 C   0  0  0  1  0  0  0  0  0  0  0  0
    6.2794    0.0778   -1.0333 C   0  0  0  1  0  0  0  0  0  0  0  0
    6.6023   -1.3381   -0.5891 C   0  0  0  1  0  0  0  0  0  0  0  0
    5.5353   -1.6222    0.4808 C   0  0  0  1  0  0  0  0  0  0  0  0
    7.9755   -1.4171   -0.0095 N   0  0  0  1  0  0  0  0  0  0  0  0
    0.9179    2.4772    0.0988 H   0  0  0  1  0  0  0  0  0  0  0  0
   -2.1489    1.9440   -0.0607 H   0  0  0  1  0  0  0  0  0  0  0  0
   -0.7761   -2.8959   -1.8757 H   0  0  0  1  0  0  0  0  0  0  0  0
   -1.3262   -5.2584   -1.9250 H   0  0  0  1  0  0  0  0  0  0  0  0
   -3.5404   -4.8149    1.6146 H   0  0  0  1  0  0  0  0  0  0  0  0
   -2.9913   -2.4563    1.6640 H   0  0  0  1  0  0  0  0  0  0  0  0
   -2.9407   -7.1513    1.7290 H   0  0  0  1  0  0  0  0  0  0  0  0
   -4.1185   -7.8955    0.6748 H   0  0  0  1  0  0  0  0  0  0  0  0
   -4.3588   -6.2579    1.2359 H   0  0  0  1  0  0  0  0  0  0  0  0
    3.1162   -2.2424    0.1339 H   0  0  0  1  0  0  0  0  0  0  0  0
    4.4018    0.0611    1.1667 H   0  0  0  1  0  0  0  0  0  0  0  0
    4.2961   -0.2490   -1.8166 H   0  0  0  1  0  0  0  0  0  0  0  0
    4.4530    1.2149   -0.8750 H   0  0  0  1  0  0  0  0  0  0  0  0
    6.7403    0.7886   -0.3797 H   0  0  0  1  0  0  0  0  0  0  0  0
    6.6181    0.2415   -2.0349 H   0  0  0  1  0  0  0  0  0  0  0  0
    6.5192   -2.0247   -1.4056 H   0  0  0  1  0  0  0  0  0  0  0  0
    5.9682   -1.5407    1.4559 H   0  0  0  1  0  0  0  0  0  0  0  0
    5.1399   -2.6074    0.3467 H   0  0  0  1  0  0  0  0  0  0  0  0
    8.1007   -2.2903    0.4175 H   0  0  0  1  0  0  0  0  0  0  0  0
    8.0896   -0.7082    0.6576 H   0  0  0  1  0  0  0  0  0  0  0  0
  1  2  4  0  0  0  0
  1  6  4  0  0  0  0
  1 18  1  0  0  0  0
  2  3  4  0  0  0  0
  3  4  4  0  0  0  0
  3 25  1  0  0  0  0
  4  5  4  0  0  0  0
  4  7  4  0  0  0  0
  5  6  4  0  0  0  0
  5  9  4  0  0  0  0
  7  8  4  0  0  0  0
  7 26  1  0  0  0  0
  8  9  4  0  0  0  0
  9 10  1  0  0  0  0
 10 11  4  0  0  0  0
 10 15  4  0  0  0  0
 11 12  4  0  0  0  0
 11 27  1  0  0  0  0
 12 13  4  0  0  0  0
 12 28  1  0  0  0  0
 13 14  4  0  0  0  0
 13 16  1  0  0  0  0
 14 15  4  0  0  0  0
 14 29  1  0  0  0  0
 15 30  1  0  0  0  0
 16 17  1  0  0  0  0
 17 31  1  0  0  0  0
 17 32  1  0  0  0  0
 17 33  1  0  0  0  0
 18 19  1  0  0  0  0
 18 34  1  0  0  0  0
 19 20  1  0  0  0  0
 19 23  1  0  0  0  0
 19 35  1  0  0  0  0
 20 21  1  0  0  0  0
 20 36  1  0  0  0  0
 20 37  1  0  0  0  0
 21 22  1  0  0  0  0
 21 38  1  0  0  0  0
 21 39  1  0  0  0  0
 22 23  1  0  0  0  0
 22 24  1  0  0  0  0
 22 40  1  0  0  0  0
 23 41  1  0  0  0  0
 23 42  1  0  0  0  0
 24 43  1  0  0  0  0
 24 44  1  0  0  0  0
M  END
> <ConfClashScore>
0 

> <ConfOneFourInteractionScore>
-0.981848 

> <ConfScore>
-0.0421042 

> <ConfScorePBest>
0.00339331 

> <ConfTolerance>
0.258394 

$$$$
c22.sdf
 OpenBabel04162418103D

 44 47  0  0  0  0  0  0  0  0999 V2000
    1.9452   -0.6102    0.1255 C   0  0  0  1  0  0  0  0  0  0  0  0
    2.0363    0.7233    0.1481 N   0  0  0  1  0  0  0  0  0  0  0  0
    0.8946    1.4376    0.0881 C   0  0  0  1  0  0  0  0  0  0  0  0
   -0.3452    0.7386    0.0096 C   0  0  0  1  0  0  0  0  0  0  0  0
   -0.2528   -0.6478    0.0020 C   0  0  0  1  0  0  0  0  0  0  0  0
    0.8779   -1.3913    0.0539 N   0  0  0  1  0  0  0  0  0  0  0  0
   -1.7303    0.9921   -0.0538 C   0  0  0  1  0  0  0  0  0  0  0  0
   -2.4281   -0.1192   -0.1029 N   0  0  0  1  0  0  0  0  0  0  0  0
   -1.5126   -1.1342   -0.0681 N   0  0  0  1  0  0  0  0  0  0  0  0
   -1.8385   -2.5051   -0.1010 C   0  0  0  1  0  0  0  0  0  0  0  0
   -3.1180   -2.8683    0.2746 C   0  0  0  1  0  0  0  0  0  0  0  0
   -3.4934   -4.2026    0.2556 C   0  0  0  1  0  0  0  0  0  0  0  0
   -2.5865   -5.1702   -0.1338 C   0  0  0  1  0  0  0  0  0  0  0  0
   -1.3032   -4.8058   -0.5105 C   0  0  0  1  0  0  0  0  0  0  0  0
   -0.9289   -3.4754   -0.4916 C   0  0  0  1  0  0  0  0  0  0  0  0
   -3.0641   -6.4371   -0.1074 O   0  0  0  1  0  0  0  0  0  0  0  0
   -2.1788   -7.4815   -0.5406 C   0  0  0  1  0  0  0  0  0  0  0  0
    3.1213   -1.2604    0.1849 N   0  0  0  1  0  0  0  0  0  0  0  0
    3.4719   -2.6751    0.0500 C   0  0  0  1  0  0  0  0  0  0  0  0
    4.8460   -2.9464    0.6401 C   0  0  0  1  0  0  0  0  0  0  0  0
    5.7738   -2.4661   -0.4812 C   0  0  0  1  0  0  0  0  0  0  0  0
    5.0958   -2.9387   -1.7702 C   0  0  0  1  0  0  0  0  0  0  0  0
    3.6052   -3.0613   -1.4269 C   0  0  0  1  0  0  0  0  0  0  0  0
    5.6461   -4.2651   -2.1951 N   0  0  0  1  0  0  0  0  0  0  0  0
    0.9179    2.4772    0.0987 H   0  0  0  1  0  0  0  0  0  0  0  0
   -2.1490    1.9441   -0.0608 H   0  0  0  1  0  0  0  0  0  0  0  0
   -3.7991   -2.1407    0.5715 H   0  0  0  1  0  0  0  0  0  0  0  0
   -4.4573   -4.4755    0.5344 H   0  0  0  1  0  0  0  0  0  0  0  0
   -0.6220   -5.5334   -0.8074 H   0  0  0  1  0  0  0  0  0  0  0  0
    0.0352   -3.2024   -0.7703 H   0  0  0  1  0  0  0  0  0  0  0  0
   -1.6304   -7.1519   -1.3984 H   0  0  0  1  0  0  0  0  0  0  0  0
   -2.7495   -8.3501   -0.7946 H   0  0  0  1  0  0  0  0  0  0  0  0
   -1.4964   -7.7204    0.2482 H   0  0  0  1  0  0  0  0  0  0  0  0
    3.8900   -0.6753    0.3500 H   0  0  0  1  0  0  0  0  0  0  0  0
    2.7285   -3.2748    0.5320 H   0  0  0  1  0  0  0  0  0  0  0  0
    4.9846   -3.9884    0.8397 H   0  0  0  1  0  0  0  0  0  0  0  0
    5.0005   -2.3868    1.5389 H   0  0  0  1  0  0  0  0  0  0  0  0
    5.8608   -1.3996   -0.4689 H   0  0  0  1  0  0  0  0  0  0  0  0
    6.7448   -2.9047   -0.3822 H   0  0  0  1  0  0  0  0  0  0  0  0
    5.2417   -2.2241   -2.5532 H   0  0  0  1  0  0  0  0  0  0  0  0
    3.0287   -2.3977   -2.0369 H   0  0  0  1  0  0  0  0  0  0  0  0
    3.2716   -4.0666   -1.5786 H   0  0  0  1  0  0  0  0  0  0  0  0
    6.6135   -4.1894   -2.3323 H   0  0  0  1  0  0  0  0  0  0  0  0
    5.2185   -4.5430   -3.0320 H   0  0  0  1  0  0  0  0  0  0  0  0
  1  2  4  0  0  0  0
  1  6  4  0  0  0  0
  1 18  1  0  0  0  0
  2  3  4  0  0  0  0
  3  4  4  0  0  0  0
  3 25  1  0  0  0  0
  4  5  4  0  0  0  0
  4  7  4  0  0  0  0
  5  6  4  0  0  0  0
  5  9  4  0  0  0  0
  7  8  4  0  0  0  0
  7 26  1  0  0  0  0
  8  9  4  0  0  0  0
  9 10  1  0  0  0  0
 10 11  4  0  0  0  0
 10 15  4  0  0  0  0
 11 12  4  0  0  0  0
 11 27  1  0  0  0  0
 12 13  4  0  0  0  0
 12 28  1  0  0  0  0
 13 14  4  0  0  0  0
 13 16  1  0  0  0  0
 14 15  4  0  0  0  0
 14 29  1  0  0  0  0
 15 30  1  0  0  0  0
 16 17  1  0  0  0  0
 17 31  1  0  0  0  0
 17 32  1  0  0  0  0
 17 33  1  0  0  0  0
 18 19  1  0  0  0  0
 18 34  1  0  0  0  0
 19 20  1  0  0  0  0
 19 23  1  0  0  0  0
 19 35  1  0  0  0  0
 20 21  1  0  0  0  0
 20 36  1  0  0  0  0
 20 37  1  0  0  0  0
 21 22  1  0  0  0  0
 21 38  1  0  0  0  0
 21 39  1  0  0  0  0
 22 23  1  0  0  0  0
 22 24  1  0  0  0  0
 22 40  1  0  0  0  0
 23 41  1  0  0  0  0
 23 42  1  0  0  0  0
 24 43  1  0  0  0  0
 24 44  1  0  0  0  0
M  END
> <ConfClashScore>
0 

> <ConfOneFourInteractionScore>
-0.984337 

> <ConfScore>
-0.0420425 

> <ConfScorePBest>
0.00337998 

> <ConfTolerance>
0.430825 

$$$$
c22.sdf
 OpenBabel04162418103D

 44 47  0  0  0  0  0  0  0  0999 V2000
    1.9453   -0.6103    0.1255 C   0  0  0  1  0  0  0  0  0  0  0  0
    2.0363    0.7233    0.1481 N   0  0  0  1  0  0  0  0  0  0  0  0
    0.8946    1.4376    0.0881 C   0  0  0  1  0  0  0  0  0  0  0  0
   -0.3453    0.7386    0.0096 C   0  0  0  1  0  0  0  0  0  0  0  0
   -0.2528   -0.6477    0.0020 C   0  0  0  1  0  0  0  0  0  0  0  0
    0.8779   -1.3913    0.0539 N   0  0  0  1  0  0  0  0  0  0  0  0
   -1.7303    0.9920   -0.0538 C   0  0  0  1  0  0  0  0  0  0  0  0
   -2.4282   -0.1191   -0.1028 N   0  0  0  1  0  0  0  0  0  0  0  0
   -1.5126   -1.1341   -0.0681 N   0  0  0  1  0  0  0  0  0  0  0  0
   -1.8421   -2.5200   -0.1013 C   0  0  0  1  0  0  0  0  0  0  0  0
   -2.8657   -3.0071    0.6892 C   0  0  0  1  0  0  0  0  0  0  0  0
   -3.1283   -4.3677    0.7224 C   0  0  0  1  0  0  0  0  0  0  0  0
   -2.3631   -5.2379   -0.0309 C   0  0  0  1  0  0  0  0  0  0  0  0
   -1.3365   -4.7493   -0.8238 C   0  0  0  1  0  0  0  0  0  0  0  0
   -1.0745   -3.3926   -0.8570 C   0  0  0  1  0  0  0  0  0  0  0  0
   -2.4870   -6.5845   -0.1047 O   0  0  0  1  0  0  0  0  0  0  0  0
   -3.5482   -7.1883    0.6513 C   0  0  0  1  0  0  0  0  0  0  0  0
    3.1162   -1.2576    0.1846 N   0  0  0  1  0  0  0  0  0  0  0  0
    3.3080   -2.7197    0.3629 C   0  0  0  1  0  0  0  0  0  0  0  0
    4.6632   -3.0038    1.0383 C   0  0  0  1  0  0  0  0  0  0  0  0
    5.0749   -4.3327    0.4105 C   0  0  0  1  0  0  0  0  0  0  0  0
    4.6565   -4.2415   -1.0466 C   0  0  0  1  0  0  0  0  0  0  0  0
    3.3616   -3.4145   -0.9887 C   0  0  0  1  0  0  0  0  0  0  0  0
    4.4003   -5.5982   -1.6160 N   0  0  0  1  0  0  0  0  0  0  0  0
    0.9179    2.4773    0.0987 H   0  0  0  1  0  0  0  0  0  0  0  0
   -2.1490    1.9441   -0.0608 H   0  0  0  1  0  0  0  0  0  0  0  0
   -3.4391   -2.3527    1.2592 H   0  0  0  1  0  0  0  0  0  0  0  0
   -3.9012   -4.7338    1.3142 H   0  0  0  1  0  0  0  0  0  0  0  0
   -0.7632   -5.4036   -1.3938 H   0  0  0  1  0  0  0  0  0  0  0  0
   -0.3016   -3.0265   -1.4488 H   0  0  0  1  0  0  0  0  0  0  0  0
   -4.3123   -6.4625    0.8369 H   0  0  0  1  0  0  0  0  0  0  0  0
   -3.1630   -7.5464    1.5831 H   0  0  0  1  0  0  0  0  0  0  0  0
   -3.9601   -8.0057    0.0972 H   0  0  0  1  0  0  0  0  0  0  0  0
    3.9266   -0.7129    0.1021 H   0  0  0  1  0  0  0  0  0  0  0  0
    2.5079   -3.1155    0.9530 H   0  0  0  1  0  0  0  0  0  0  0  0
    5.3738   -2.2353    0.8166 H   0  0  0  1  0  0  0  0  0  0  0  0
    4.5546   -3.0948    2.0988 H   0  0  0  1  0  0  0  0  0  0  0  0
    4.5732   -5.1453    0.8931 H   0  0  0  1  0  0  0  0  0  0  0  0
    6.1334   -4.4702    0.4873 H   0  0  0  1  0  0  0  0  0  0  0  0
    5.4034   -3.7446   -1.6298 H   0  0  0  1  0  0  0  0  0  0  0  0
    3.3613   -2.6854   -1.7719 H   0  0  0  1  0  0  0  0  0  0  0  0
    2.5144   -4.0584   -1.0997 H   0  0  0  1  0  0  0  0  0  0  0  0
    3.6024   -5.9834   -1.1974 H   0  0  0  1  0  0  0  0  0  0  0  0
    5.1719   -6.1765   -1.4415 H   0  0  0  1  0  0  0  0  0  0  0  0
  1  2  4  0  0  0  0
  1  6  4  0  0  0  0
  1 18  1  0  0  0  0
  2  3  4  0  0  0  0
  3  4  4  0  0  0  0
  3 25  1  0  0  0  0
  4  5  4  0  0  0  0
  4  7  4  0  0  0  0
  5  6  4  0  0  0  0
  5  9  4  0  0  0  0
  7  8  4  0  0  0  0
  7 26  1  0  0  0  0
  8  9  4  0  0  0  0
  9 10  1  0  0  0  0
 10 11  4  0  0  0  0
 10 15  4  0  0  0  0
 11 12  4  0  0  0  0
 11 27  1  0  0  0  0
 12 13  4  0  0  0  0
 12 28  1  0  0  0  0
 13 14  4  0  0  0  0
 13 16  1  0  0  0  0
 14 15  4  0  0  0  0
 14 29  1  0  0  0  0
 15 30  1  0  0  0  0
 16 17  1  0  0  0  0
 17 31  1  0  0  0  0
 17 32  1  0  0  0  0
 17 33  1  0  0  0  0
 18 19  1  0  0  0  0
 18 34  1  0  0  0  0
 19 20  1  0  0  0  0
 19 23  1  0  0  0  0
 19 35  1  0  0  0  0
 20 21  1  0  0  0  0
 20 36  1  0  0  0  0
 20 37  1  0  0  0  0
 21 22  1  0  0  0  0
 21 38  1  0  0  0  0
 21 39  1  0  0  0  0
 22 23  1  0  0  0  0
 22 24  1  0  0  0  0
 22 40  1  0  0  0  0
 23 41  1  0  0  0  0
 23 42  1  0  0  0  0
 24 43  1  0  0  0  0
 24 44  1  0  0  0  0
M  END
> <ConfClashScore>
0 

> <ConfOneFourInteractionScore>
-0.984337 

> <ConfScore>
-0.0418337 

> <ConfScorePBest>
0.00336665 

> <ConfTolerance>
0.323685 

$$$$
c22.sdf
 OpenBabel04162418103D

 44 47  0  0  0  0  0  0  0  0999 V2000
    1.9452   -0.6102    0.1256 C   0  0  0  1  0  0  0  0  0  0  0  0
    2.0363    0.7233    0.1481 N   0  0  0  1  0  0  0  0  0  0  0  0
    0.8946    1.4376    0.0881 C   0  0  0  1  0  0  0  0  0  0  0  0
   -0.3453    0.7386    0.0096 C   0  0  0  1  0  0  0  0  0  0  0  0
   -0.2528   -0.6477    0.0020 C   0  0  0  1  0  0  0  0  0  0  0  0
    0.8779   -1.3912    0.0539 N   0  0  0  1  0  0  0  0  0  0  0  0
   -1.7303    0.9921   -0.0538 C   0  0  0  1  0  0  0  0  0  0  0  0
   -2.4282   -0.1191   -0.1029 N   0  0  0  1  0  0  0  0  0  0  0  0
   -1.5126   -1.1342   -0.0681 N   0  0  0  1  0  0  0  0  0  0  0  0
   -1.8397   -2.5099   -0.1011 C   0  0  0  1  0  0  0  0  0  0  0  0
   -0.9752   -3.4874    0.3543 C   0  0  0  1  0  0  0  0  0  0  0  0
   -1.3490   -4.8213    0.3034 C   0  0  0  1  0  0  0  0  0  0  0  0
   -2.5838   -5.1742   -0.2075 C   0  0  0  1  0  0  0  0  0  0  0  0
   -3.4507   -4.1935   -0.6641 C   0  0  0  1  0  0  0  0  0  0  0  0
   -3.0782   -2.8636   -0.6136 C   0  0  0  1  0  0  0  0  0  0  0  0
   -3.0071   -6.4579   -0.2897 O   0  0  0  1  0  0  0  0  0  0  0  0
   -2.1254   -7.4731    0.2149 C   0  0  0  1  0  0  0  0  0  0  0  0
    3.1214   -1.2604    0.1849 N   0  0  0  1  0  0  0  0  0  0  0  0
    4.4234   -0.5919    0.2013 C   0  0  0  1  0  0  0  0  0  0  0  0
    4.9230   -0.3219   -1.2115 C   0  0  0  1  0  0  0  0  0  0  0  0
    6.4381   -0.2031   -1.1185 C   0  0  0  1  0  0  0  0  0  0  0  0
    6.8328   -0.8644    0.2035 C   0  0  0  1  0  0  0  0  0  0  0  0
    5.5437   -1.5380    0.7744 C   0  0  0  1  0  0  0  0  0  0  0  0
    7.3449    0.1679    1.1647 N   0  0  0  1  0  0  0  0  0  0  0  0
    0.9179    2.4773    0.0988 H   0  0  0  1  0  0  0  0  0  0  0  0
   -2.1490    1.9440   -0.0608 H   0  0  0  1  0  0  0  0  0  0  0  0
   -0.0444   -3.2222    0.7349 H   0  0  0  1  0  0  0  0  0  0  0  0
   -0.7001   -5.5566    0.6498 H   0  0  0  1  0  0  0  0  0  0  0  0
   -4.3815   -4.4587   -1.0448 H   0  0  0  1  0  0  0  0  0  0  0  0
   -3.7269   -2.1282   -0.9598 H   0  0  0  1  0  0  0  0  0  0  0  0
   -2.5879   -8.4323    0.1096 H   0  0  0  1  0  0  0  0  0  0  0  0
   -1.9223   -7.2870    1.2488 H   0  0  0  1  0  0  0  0  0  0  0  0
   -1.2094   -7.4565   -0.3378 H   0  0  0  1  0  0  0  0  0  0  0  0
    3.1055   -2.2396    0.2193 H   0  0  0  1  0  0  0  0  0  0  0  0
    4.3530    0.3134    0.7675 H   0  0  0  1  0  0  0  0  0  0  0  0
    4.6547   -1.1304   -1.8591 H   0  0  0  1  0  0  0  0  0  0  0  0
    4.5030    0.5888   -1.5843 H   0  0  0  1  0  0  0  0  0  0  0  0
    6.7310    0.8261   -1.1212 H   0  0  0  1  0  0  0  0  0  0  0  0
    6.9016   -0.7084   -1.9400 H   0  0  0  1  0  0  0  0  0  0  0  0
    7.5896   -1.6018    0.0348 H   0  0  0  1  0  0  0  0  0  0  0  0
    5.5443   -1.5412    1.8444 H   0  0  0  1  0  0  0  0  0  0  0  0
    5.4326   -2.5395    0.4144 H   0  0  0  1  0  0  0  0  0  0  0  0
    6.6986    0.9016    1.2316 H   0  0  0  1  0  0  0  0  0  0  0  0
    8.2024    0.5166    0.8430 H   0  0  0  1  0  0  0  0  0  0  0  0
  1  2  4  0  0  0  0
  1  6  4  0  0  0  0
  1 18  1  0  0  0  0
  2  3  4  0  0  0  0
  3  4  4  0  0  0  0
  3 25  1  0  0  0  0
  4  5  4  0  0  0  0
  4  7  4  0  0  0  0
  5  6  4  0  0  0  0
  5  9  4  0  0  0  0
  7  8  4  0  0  0  0
  7 26  1  0  0  0  0
  8  9  4  0  0  0  0
  9 10  1  0  0  0  0
 10 11  4  0  0  0  0
 10 15  4  0  0  0  0
 11 12  4  0  0  0  0
 11 27  1  0  0  0  0
 12 13  4  0  0  0  0
 12 28  1  0  0  0  0
 13 14  4  0  0  0  0
 13 16  1  0  0  0  0
 14 15  4  0  0  0  0
 14 29  1  0  0  0  0
 15 30  1  0  0  0  0
 16 17  1  0  0  0  0
 17 31  1  0  0  0  0
 17 32  1  0  0  0  0
 17 33  1  0  0  0  0
 18 19  1  0  0  0  0
 18 34  1  0  0  0  0
 19 20  1  0  0  0  0
 19 23  1  0  0  0  0
 19 35  1  0  0  0  0
 20 21  1  0  0  0  0
 20 36  1  0  0  0  0
 20 37  1  0  0  0  0
 21 22  1  0  0  0  0
 21 38  1  0  0  0  0
 21 39  1  0  0  0  0
 22 23  1  0  0  0  0
 22 24  1  0  0  0  0
 22 40  1  0  0  0  0
 23 41  1  0  0  0  0
 23 42  1  0  0  0  0
 24 43  1  0  0  0  0
 24 44  1  0  0  0  0
M  END
> <ConfClashScore>
0 

> <ConfOneFourInteractionScore>
-0.984337 

> <ConfScore>
-0.0417374 

> <ConfScorePBest>
0.00335333 

> <ConfTolerance>
0.284191 

$$$$
c22.sdf
 OpenBabel04162418103D

 44 47  0  0  0  0  0  0  0  0999 V2000
    1.9452   -0.6102    0.1256 C   0  0  0  1  0  0  0  0  0  0  0  0
    2.0363    0.7234    0.1482 N   0  0  0  1  0  0  0  0  0  0  0  0
    0.8945    1.4375    0.0881 C   0  0  0  1  0  0  0  0  0  0  0  0
   -0.3452    0.7386    0.0096 C   0  0  0  1  0  0  0  0  0  0  0  0
   -0.2528   -0.6478    0.0020 C   0  0  0  1  0  0  0  0  0  0  0  0
    0.8779   -1.3912    0.0539 N   0  0  0  1  0  0  0  0  0  0  0  0
   -1.7303    0.9921   -0.0538 C   0  0  0  1  0  0  0  0  0  0  0  0
   -2.4281   -0.1191   -0.1029 N   0  0  0  1  0  0  0  0  0  0  0  0
   -1.5125   -1.1341   -0.0681 N   0  0  0  1  0  0  0  0  0  0  0  0
   -1.8397   -2.5099   -0.1012 C   0  0  0  1  0  0  0  0  0  0  0  0
   -1.4827   -3.2789   -1.1926 C   0  0  0  1  0  0  0  0  0  0  0  0
   -1.7986   -4.6283   -1.2226 C   0  0  0  1  0  0  0  0  0  0  0  0
   -2.4751   -5.2035   -0.1634 C   0  0  0  1  0  0  0  0  0  0  0  0
   -2.8331   -4.4320    0.9313 C   0  0  0  1  0  0  0  0  0  0  0  0
   -2.5181   -3.0866    0.9612 C   0  0  0  1  0  0  0  0  0  0  0  0
   -2.7299   -6.5094   -0.3055 O   0  0  0  1  0  0  0  0  0  0  0  0
   -3.3155   -7.3032    0.7807 C   0  0  0  1  0  0  0  0  0  0  0  0
    3.1214   -1.2604    0.1849 N   0  0  0  1  0  0  0  0  0  0  0  0
    3.2457   -2.7215    0.2784 C   0  0  0  1  0  0  0  0  0  0  0  0
    2.3433   -3.2717    1.3880 C   0  0  0  1  0  0  0  0  0  0  0  0
    3.1141   -4.4312    2.0333 C   0  0  0  1  0  0  0  0  0  0  0  0
    4.4326   -4.5247    1.2604 C   0  0  0  1  0  0  0  0  0  0  0  0
    4.6516   -3.1148    0.7009 C   0  0  0  1  0  0  0  0  0  0  0  0
    4.3249   -5.5256    0.1477 N   0  0  0  1  0  0  0  0  0  0  0  0
    0.9179    2.4772    0.0988 H   0  0  0  1  0  0  0  0  0  0  0  0
   -2.1490    1.9441   -0.0608 H   0  0  0  1  0  0  0  0  0  0  0  0
   -0.9772   -2.8454   -1.9914 H   0  0  0  1  0  0  0  0  0  0  0  0
   -1.5265   -5.2080   -2.0420 H   0  0  0  1  0  0  0  0  0  0  0  0
   -3.3386   -4.8656    1.7300 H   0  0  0  1  0  0  0  0  0  0  0  0
   -2.7902   -2.5069    1.7807 H   0  0  0  1  0  0  0  0  0  0  0  0
   -2.6736   -7.2669    1.6359 H   0  0  0  1  0  0  0  0  0  0  0  0
   -3.4259   -8.3183    0.4607 H   0  0  0  1  0  0  0  0  0  0  0  0
   -4.2743   -6.9035    1.0374 H   0  0  0  1  0  0  0  0  0  0  0  0
    3.9439   -0.7281    0.1646 H   0  0  0  1  0  0  0  0  0  0  0  0
    2.9971   -3.1623   -0.6644 H   0  0  0  1  0  0  0  0  0  0  0  0
    1.4212   -3.6241    0.9750 H   0  0  0  1  0  0  0  0  0  0  0  0
    2.1423   -2.5113    2.1134 H   0  0  0  1  0  0  0  0  0  0  0  0
    3.3002   -4.2272    3.0670 H   0  0  0  1  0  0  0  0  0  0  0  0
    2.5622   -5.3433    1.9430 H   0  0  0  1  0  0  0  0  0  0  0  0
    5.2344   -4.8010    1.9129 H   0  0  0  1  0  0  0  0  0  0  0  0
    5.3195   -3.1276   -0.1350 H   0  0  0  1  0  0  0  0  0  0  0  0
    5.0314   -2.4534    1.4514 H   0  0  0  1  0  0  0  0  0  0  0  0
    5.1468   -5.5114   -0.3859 H   0  0  0  1  0  0  0  0  0  0  0  0
    3.5612   -5.2982   -0.4231 H   0  0  0  1  0  0  0  0  0  0  0  0
  1  2  4  0  0  0  0
  1  6  4  0  0  0  0
  1 18  1  0  0  0  0
  2  3  4  0  0  0  0
  3  4  4  0  0  0  0
  3 25  1  0  0  0  0
  4  5  4  0  0  0  0
  4  7  4  0  0  0  0
  5  6  4  0  0  0  0
  5  9  4  0  0  0  0
  7  8  4  0  0  0  0
  7 26  1  0  0  0  0
  8  9  4  0  0  0  0
  9 10  1  0  0  0  0
 10 11  4  0  0  0  0
 10 15  4  0  0  0  0
 11 12  4  0  0  0  0
 11 27  1  0  0  0  0
 12 13  4  0  0  0  0
 12 28  1  0  0  0  0
 13 14  4  0  0  0  0
 13 16  1  0  0  0  0
 14 15  4  0  0  0  0
 14 29  1  0  0  0  0
 15 30  1  0  0  0  0
 16 17  1  0  0  0  0
 17 31  1  0  0  0  0
 17 32  1  0  0  0  0
 17 33  1  0  0  0  0
 18 19  1  0  0  0  0
 18 34  1  0  0  0  0
 19 20  1  0  0  0  0
 19 23  1  0  0  0  0
 19 35  1  0  0  0  0
 20 21  1  0  0  0  0
 20 36  1  0  0  0  0
 20 37  1  0  0  0  0
 21 22  1  0  0  0  0
 21 38  1  0  0  0  0
 21 39  1  0  0  0  0
 22 23  1  0  0  0  0
 22 24  1  0  0  0  0
 22 40  1  0  0  0  0
 23 41  1  0  0  0  0
 23 42  1  0  0  0  0
 24 43  1  0  0  0  0
 24 44  1  0  0  0  0
M  END
> <ConfClashScore>
0 

> <ConfOneFourInteractionScore>
-0.985399 

> <ConfScore>
-0.0415245 

> <ConfScorePBest>
0.00334 

> <ConfTolerance>
0.315746 

$$$$
c22.sdf
 OpenBabel04162418103D

 44 47  0  0  0  0  0  0  0  0999 V2000
    1.9453   -0.6102    0.1257 C   0  0  0  1  0  0  0  0  0  0  0  0
    2.0363    0.7233    0.1482 N   0  0  0  1  0  0  0  0  0  0  0  0
    0.8946    1.4376    0.0881 C   0  0  0  1  0  0  0  0  0  0  0  0
   -0.3453    0.7386    0.0096 C   0  0  0  1  0  0  0  0  0  0  0  0
   -0.2528   -0.6477    0.0021 C   0  0  0  1  0  0  0  0  0  0  0  0
    0.8780   -1.3913    0.0540 N   0  0  0  1  0  0  0  0  0  0  0  0
   -1.7304    0.9921   -0.0538 C   0  0  0  1  0  0  0  0  0  0  0  0
   -2.4281   -0.1192   -0.1029 N   0  0  0  1  0  0  0  0  0  0  0  0
   -1.5125   -1.1341   -0.0681 N   0  0  0  1  0  0  0  0  0  0  0  0
   -1.8397   -2.5099   -0.1011 C   0  0  0  1  0  0  0  0  0  0  0  0
   -0.9828   -3.4375    0.4606 C   0  0  0  1  0  0  0  0  0  0  0  0
   -1.3060   -4.7852    0.4329 C   0  0  0  1  0  0  0  0  0  0  0  0
   -2.4824   -5.2019   -0.1608 C   0  0  0  1  0  0  0  0  0  0  0  0
   -3.3417   -4.2713   -0.7242 C   0  0  0  1  0  0  0  0  0  0  0  0
   -3.0196   -2.9276   -0.6968 C   0  0  0  1  0  0  0  0  0  0  0  0
   -2.8540   -6.5025   -0.2259 O   0  0  0  1  0  0  0  0  0  0  0  0
   -4.2170   -6.7783   -0.5845 C   0  0  0  1  0  0  0  0  0  0  0  0
    3.1213   -1.2604    0.1851 N   0  0  0  1  0  0  0  0  0  0  0  0
    3.2466   -2.7202    0.2297 C   0  0  0  1  0  0  0  0  0  0  0  0
    3.4065   -3.2144    1.6805 C   0  0  0  1  0  0  0  0  0  0  0  0
    4.1762   -4.5442    1.5945 C   0  0  0  1  0  0  0  0  0  0  0  0
    4.8358   -4.5872    0.1872 C   0  0  0  1  0  0  0  0  0  0  0  0
    4.5688   -3.1895   -0.4666 C   0  0  0  1  0  0  0  0  0  0  0  0
    4.2191   -5.6748   -0.6423 N   0  0  0  1  0  0  0  0  0  0  0  0
    0.9179    2.4772    0.0988 H   0  0  0  1  0  0  0  0  0  0  0  0
   -2.1490    1.9440   -0.0609 H   0  0  0  1  0  0  0  0  0  0  0  0
   -0.0957   -3.1244    0.9039 H   0  0  0  1  0  0  0  0  0  0  0  0
   -0.6632   -5.4829    0.8592 H   0  0  0  1  0  0  0  0  0  0  0  0
   -4.2288   -4.5844   -1.1675 H   0  0  0  1  0  0  0  0  0  0  0  0
   -3.6623   -2.2299   -1.1230 H   0  0  0  1  0  0  0  0  0  0  0  0
   -4.3351   -7.8274   -0.7591 H   0  0  0  1  0  0  0  0  0  0  0  0
   -4.4679   -6.2386   -1.4736 H   0  0  0  1  0  0  0  0  0  0  0  0
   -4.8636   -6.4747    0.2121 H   0  0  0  1  0  0  0  0  0  0  0  0
    3.9430   -0.7266    0.1993 H   0  0  0  1  0  0  0  0  0  0  0  0
    2.3917   -3.1665   -0.2338 H   0  0  0  1  0  0  0  0  0  0  0  0
    2.4469   -3.3689    2.1281 H   0  0  0  1  0  0  0  0  0  0  0  0
    3.9589   -2.5021    2.2568 H   0  0  0  1  0  0  0  0  0  0  0  0
    3.5034   -5.3680    1.7118 H   0  0  0  1  0  0  0  0  0  0  0  0
    4.9274   -4.5854    2.3554 H   0  0  0  1  0  0  0  0  0  0  0  0
    5.8881   -4.7592    0.2766 H   0  0  0  1  0  0  0  0  0  0  0  0
    4.4350   -3.2795   -1.5244 H   0  0  0  1  0  0  0  0  0  0  0  0
    5.3712   -2.5111   -0.2645 H   0  0  0  1  0  0  0  0  0  0  0  0
    3.2514   -5.5321   -0.7019 H   0  0  0  1  0  0  0  0  0  0  0  0
    4.3959   -6.5437   -0.2250 H   0  0  0  1  0  0  0  0  0  0  0  0
  1  2  4  0  0  0  0
  1  6  4  0  0  0  0
  1 18  1  0  0  0  0
  2  3  4  0  0  0  0
  3  4  4  0  0  0  0
  3 25  1  0  0  0  0
  4  5  4  0  0  0  0
  4  7  4  0  0  0  0
  5  6  4  0  0  0  0
  5  9  4  0  0  0  0
  7  8  4  0  0  0  0
  7 26  1  0  0  0  0
  8  9  4  0  0  0  0
  9 10  1  0  0  0  0
 10 11  4  0  0  0  0
 10 15  4  0  0  0  0
 11 12  4  0  0  0  0
 11 27  1  0  0  0  0
 12 13  4  0  0  0  0
 12 28  1  0  0  0  0
 13 14  4  0  0  0  0
 13 16  1  0  0  0  0
 14 15  4  0  0  0  0
 14 29  1  0  0  0  0
 15 30  1  0  0  0  0
 16 17  1  0  0  0  0
 17 31  1  0  0  0  0
 17 32  1  0  0  0  0
 17 33  1  0  0  0  0
 18 19  1  0  0  0  0
 18 34  1  0  0  0  0
 19 20  1  0  0  0  0
 19 23  1  0  0  0  0
 19 35  1  0  0  0  0
 20 21  1  0  0  0  0
 20 36  1  0  0  0  0
 20 37  1  0  0  0  0
 21 22  1  0  0  0  0
 21 38  1  0  0  0  0
 21 39  1  0  0  0  0
 22 23  1  0  0  0  0
 22 24  1  0  0  0  0
 22 40  1  0  0  0  0
 23 41  1  0  0  0  0
 23 42  1  0  0  0  0
 24 43  1  0  0  0  0
 24 44  1  0  0  0  0
M  END
> <ConfClashScore>
1.94413e-05 

> <ConfOneFourInteractionScore>
-0.984337 

> <ConfScore>
-0.0397933 

> <ConfScorePBest>
0.00332667 

> <ConfTolerance>
0.255165 

$$$$
c22.sdf
 OpenBabel04162418103D

 44 47  0  0  0  0  0  0  0  0999 V2000
    1.9453   -0.6102    0.1255 C   0  0  0  1  0  0  0  0  0  0  0  0
    2.0363    0.7233    0.1481 N   0  0  0  1  0  0  0  0  0  0  0  0
    0.8946    1.4376    0.0881 C   0  0  0  1  0  0  0  0  0  0  0  0
   -0.3453    0.7386    0.0096 C   0  0  0  1  0  0  0  0  0  0  0  0
   -0.2528   -0.6477    0.0021 C   0  0  0  1  0  0  0  0  0  0  0  0
    0.8780   -1.3913    0.0539 N   0  0  0  1  0  0  0  0  0  0  0  0
   -1.7304    0.9921   -0.0538 C   0  0  0  1  0  0  0  0  0  0  0  0
   -2.4281   -0.1192   -0.1028 N   0  0  0  1  0  0  0  0  0  0  0  0
   -1.5125   -1.1342   -0.0681 N   0  0  0  1  0  0  0  0  0  0  0  0
   -1.8419   -2.5193   -0.1013 C   0  0  0  1  0  0  0  0  0  0  0  0
   -1.5628   -3.2690   -1.2283 C   0  0  0  1  0  0  0  0  0  0  0  0
   -1.8785   -4.6184   -1.2586 C   0  0  0  1  0  0  0  0  0  0  0  0
   -2.4772   -5.2129   -0.1638 C   0  0  0  1  0  0  0  0  0  0  0  0
   -2.7570   -4.4608    0.9665 C   0  0  0  1  0  0  0  0  0  0  0  0
   -2.4423   -3.1153    0.9967 C   0  0  0  1  0  0  0  0  0  0  0  0
   -2.6524   -6.5390   -0.1985 O   0  0  0  1  0  0  0  0  0  0  0  0
   -2.4446   -7.3122   -1.4280 C   0  0  0  1  0  0  0  0  0  0  0  0
    3.1213   -1.2604    0.1849 N   0  0  0  1  0  0  0  0  0  0  0  0
    3.3854   -2.6960    0.0437 C   0  0  0  1  0  0  0  0  0  0  0  0
    3.4193   -3.3773    1.4559 C   0  0  0  1  0  0  0  0  0  0  0  0
    4.8697   -3.8152    1.6331 C   0  0  0  1  0  0  0  0  0  0  0  0
    5.7166   -3.0130    0.6377 C   0  0  0  1  0  0  0  0  0  0  0  0
    4.7656   -2.9174   -0.6023 C   0  0  0  1  0  0  0  0  0  0  0  0
    6.9629   -3.7240    0.3017 N   0  0  0  1  0  0  0  0  0  0  0  0
    0.9179    2.4772    0.0988 H   0  0  0  1  0  0  0  0  0  0  0  0
   -2.1490    1.9441   -0.0608 H   0  0  0  1  0  0  0  0  0  0  0  0
   -1.1159   -2.8208   -2.0536 H   0  0  0  1  0  0  0  0  0  0  0  0
   -1.6648   -5.1835   -2.1051 H   0  0  0  1  0  0  0  0  0  0  0  0
   -3.2039   -4.9089    1.7918 H   0  0  0  1  0  0  0  0  0  0  0  0
   -2.6560   -2.5502    1.8433 H   0  0  0  1  0  0  0  0  0  0  0  0
   -1.6432   -6.8806   -1.9903 H   0  0  0  1  0  0  0  0  0  0  0  0
   -3.3397   -7.2972   -2.0141 H   0  0  0  1  0  0  0  0  0  0  0  0
   -2.1994   -8.3229   -1.1762 H   0  0  0  1  0  0  0  0  0  0  0  0
    3.9084   -0.6986    0.3441 H   0  0  0  1  0  0  0  0  0  0  0  0
    2.6225   -3.1417   -0.5600 H   0  0  0  1  0  0  0  0  0  0  0  0
    3.1385   -2.6813    2.2185 H   0  0  0  1  0  0  0  0  0  0  0  0
    2.7631   -4.2220    1.4842 H   0  0  0  1  0  0  0  0  0  0  0  0
    5.1926   -3.6140    2.6331 H   0  0  0  1  0  0  0  0  0  0  0  0
    4.9626   -4.8620    1.4316 H   0  0  0  1  0  0  0  0  0  0  0  0
    5.9517   -2.0424    1.0221 H   0  0  0  1  0  0  0  0  0  0  0  0
    5.0334   -2.0940   -1.2309 H   0  0  0  1  0  0  0  0  0  0  0  0
    4.7836   -3.8226   -1.1725 H   0  0  0  1  0  0  0  0  0  0  0  0
    7.4929   -3.8576    1.1152 H   0  0  0  1  0  0  0  0  0  0  0  0
    7.4788   -3.1930   -0.3404 H   0  0  0  1  0  0  0  0  0  0  0  0
  1  2  4  0  0  0  0
  1  6  4  0  0  0  0
  1 18  1  0  0  0  0
  2  3  4  0  0  0  0
  3  4  4  0  0  0  0
  3 25  1  0  0  0  0
  4  5  4  0  0  0  0
  4  7  4  0  0  0  0
  5  6  4  0  0  0  0
  5  9  4  0  0  0  0
  7  8  4  0  0  0  0
  7 26  1  0  0  0  0
  8  9  4  0  0  0  0
  9 10  1  0  0  0  0
 10 11  4  0  0  0  0
 10 15  4  0  0  0  0
 11 12  4  0  0  0  0
 11 27  1  0  0  0  0
 12 13  4  0  0  0  0
 12 28  1  0  0  0  0
 13 14  4  0  0  0  0
 13 16  1  0  0  0  0
 14 15  4  0  0  0  0
 14 29  1  0  0  0  0
 15 30  1  0  0  0  0
 16 17  1  0  0  0  0
 17 31  1  0  0  0  0
 17 32  1  0  0  0  0
 17 33  1  0  0  0  0
 18 19  1  0  0  0  0
 18 34  1  0  0  0  0
 19 20  1  0  0  0  0
 19 23  1  0  0  0  0
 19 35  1  0  0  0  0
 20 21  1  0  0  0  0
 20 36  1  0  0  0  0
 20 37  1  0  0  0  0
 21 22  1  0  0  0  0
 21 38  1  0  0  0  0
 21 39  1  0  0  0  0
 22 23  1  0  0  0  0
 22 24  1  0  0  0  0
 22 40  1  0  0  0  0
 23 41  1  0  0  0  0
 23 42  1  0  0  0  0
 24 43  1  0  0  0  0
 24 44  1  0  0  0  0
M  END
> <ConfClashScore>
0 

> <ConfOneFourInteractionScore>
-0.984337 

> <ConfScore>
-0.0393159 

> <ConfScorePBest>
0.00331334 

> <ConfTolerance>
0.384926 

$$$$
c22.sdf
 OpenBabel04162418103D

 44 47  0  0  0  0  0  0  0  0999 V2000
    1.9452   -0.6102    0.1255 C   0  0  0  1  0  0  0  0  0  0  0  0
    2.0362    0.7233    0.1480 N   0  0  0  1  0  0  0  0  0  0  0  0
    0.8946    1.4376    0.0881 C   0  0  0  1  0  0  0  0  0  0  0  0
   -0.3452    0.7386    0.0095 C   0  0  0  1  0  0  0  0  0  0  0  0
   -0.2528   -0.6478    0.0020 C   0  0  0  1  0  0  0  0  0  0  0  0
    0.8779   -1.3912    0.0538 N   0  0  0  1  0  0  0  0  0  0  0  0
   -1.7303    0.9921   -0.0538 C   0  0  0  1  0  0  0  0  0  0  0  0
   -2.4281   -0.1192   -0.1028 N   0  0  0  1  0  0  0  0  0  0  0  0
   -1.5125   -1.1341   -0.0681 N   0  0  0  1  0  0  0  0  0  0  0  0
   -1.8369   -2.4987   -0.1008 C   0  0  0  1  0  0  0  0  0  0  0  0
   -1.4357   -3.4231    0.8449 C   0  0  0  1  0  0  0  0  0  0  0  0
   -1.8164   -4.7503    0.7218 C   0  0  0  1  0  0  0  0  0  0  0  0
   -2.5927   -5.1501   -0.3495 C   0  0  0  1  0  0  0  0  0  0  0  0
   -2.9950   -4.2228   -1.2981 C   0  0  0  1  0  0  0  0  0  0  0  0
   -2.6155   -2.8994   -1.1754 C   0  0  0  1  0  0  0  0  0  0  0  0
   -3.0319   -6.4122   -0.4176 O   0  0  0  1  0  0  0  0  0  0  0  0
   -2.7174   -7.3953    0.6251 C   0  0  0  1  0  0  0  0  0  0  0  0
    3.1380   -1.2696    0.1856 N   0  0  0  1  0  0  0  0  0  0  0  0
    4.4143   -0.5488    0.2882 C   0  0  0  1  0  0  0  0  0  0  0  0
    5.3721   -0.9616   -0.8211 C   0  0  0  1  0  0  0  0  0  0  0  0
    6.7758   -0.6591   -0.3148 C   0  0  0  1  0  0  0  0  0  0  0  0
    6.6587   -0.5382    1.2059 C   0  0  0  1  0  0  0  0  0  0  0  0
    5.2050   -0.9695    1.5830 C   0  0  0  1  0  0  0  0  0  0  0  0
    6.9000    0.8607    1.6258 N   0  0  0  1  0  0  0  0  0  0  0  0
    0.9179    2.4773    0.0988 H   0  0  0  1  0  0  0  0  0  0  0  0
   -2.1490    1.9441   -0.0607 H   0  0  0  1  0  0  0  0  0  0  0  0
   -0.8482   -3.1230    1.6489 H   0  0  0  1  0  0  0  0  0  0  0  0
   -1.5178   -5.4452    1.4356 H   0  0  0  1  0  0  0  0  0  0  0  0
   -3.5825   -4.5228   -2.1021 H   0  0  0  1  0  0  0  0  0  0  0  0
   -2.9141   -2.2045   -1.8892 H   0  0  0  1  0  0  0  0  0  0  0  0
   -1.6882   -7.6785    0.5502 H   0  0  0  1  0  0  0  0  0  0  0  0
   -3.3350   -8.2597    0.4980 H   0  0  0  1  0  0  0  0  0  0  0  0
   -2.8994   -6.9647    1.5876 H   0  0  0  1  0  0  0  0  0  0  0  0
    3.1437   -2.2492    0.1598 H   0  0  0  1  0  0  0  0  0  0  0  0
    4.2316    0.5053    0.2705 H   0  0  0  1  0  0  0  0  0  0  0  0
    5.1712   -0.4014   -1.7104 H   0  0  0  1  0  0  0  0  0  0  0  0
    5.2708   -2.0068   -1.0269 H   0  0  0  1  0  0  0  0  0  0  0  0
    7.4437   -1.4536   -0.5741 H   0  0  0  1  0  0  0  0  0  0  0  0
    7.1324    0.2585   -0.7342 H   0  0  0  1  0  0  0  0  0  0  0  0
    7.3689   -1.1815    1.6822 H   0  0  0  1  0  0  0  0  0  0  0  0
    5.1415   -2.0236    1.7556 H   0  0  0  1  0  0  0  0  0  0  0  0
    4.8518   -0.4444    2.4457 H   0  0  0  1  0  0  0  0  0  0  0  0
    7.7798    1.1510    1.3065 H   0  0  0  1  0  0  0  0  0  0  0  0
    6.8726    0.9173    2.6038 H   0  0  0  1  0  0  0  0  0  0  0  0
  1  2  4  0  0  0  0
  1  6  4  0  0  0  0
  1 18  1  0  0  0  0
  2  3  4  0  0  0  0
  3  4  4  0  0  0  0
  3 25  1  0  0  0  0
  4  5  4  0  0  0  0
  4  7  4  0  0  0  0
  5  6  4  0  0  0  0
  5  9  4  0  0  0  0
  7  8  4  0  0  0  0
  7 26  1  0  0  0  0
  8  9  4  0  0  0  0
  9 10  1  0  0  0  0
 10 11  4  0  0  0  0
 10 15  4  0  0  0  0
 11 12  4  0  0  0  0
 11 27  1  0  0  0  0
 12 13  4  0  0  0  0
 12 28  1  0  0  0  0
 13 14  4  0  0  0  0
 13 16  1  0  0  0  0
 14 15  4  0  0  0  0
 14 29  1  0  0  0  0
 15 30  1  0  0  0  0
 16 17  1  0  0  0  0
 17 31  1  0  0  0  0
 17 32  1  0  0  0  0
 17 33  1  0  0  0  0
 18 19  1  0  0  0  0
 18 34  1  0  0  0  0
 19 20  1  0  0  0  0
 19 23  1  0  0  0  0
 19 35  1  0  0  0  0
 20 21  1  0  0  0  0
 20 36  1  0  0  0  0
 20 37  1  0  0  0  0
 21 22  1  0  0  0  0
 21 38  1  0  0  0  0
 21 39  1  0  0  0  0
 22 23  1  0  0  0  0
 22 24  1  0  0  0  0
 22 40  1  0  0  0  0
 23 41  1  0  0  0  0
 23 42  1  0  0  0  0
 24 43  1  0  0  0  0
 24 44  1  0  0  0  0
M  END
> <ConfClashScore>
0 

> <ConfOneFourInteractionScore>
-0.984337 

> <ConfScore>
-0.0390292 

> <ConfScorePBest>
0.00330001 

> <ConfTolerance>
0.369432 

$$$$
c22.sdf
 OpenBabel04162418103D

 44 47  0  0  0  0  0  0  0  0999 V2000
    1.9453   -0.6103    0.1255 C   0  0  0  1  0  0  0  0  0  0  0  0
    2.0363    0.7233    0.1481 N   0  0  0  1  0  0  0  0  0  0  0  0
    0.8946    1.4376    0.0881 C   0  0  0  1  0  0  0  0  0  0  0  0
   -0.3453    0.7386    0.0096 C   0  0  0  1  0  0  0  0  0  0  0  0
   -0.2528   -0.6477    0.0020 C   0  0  0  1  0  0  0  0  0  0  0  0
    0.8780   -1.3913    0.0539 N   0  0  0  1  0  0  0  0  0  0  0  0
   -1.7303    0.9921   -0.0538 C   0  0  0  1  0  0  0  0  0  0  0  0
   -2.4281   -0.1191   -0.1029 N   0  0  0  1  0  0  0  0  0  0  0  0
   -1.5126   -1.1342   -0.0681 N   0  0  0  1  0  0  0  0  0  0  0  0
   -1.8396   -2.5099   -0.1011 C   0  0  0  1  0  0  0  0  0  0  0  0
   -2.6358   -3.0580   -1.0890 C   0  0  0  1  0  0  0  0  0  0  0  0
   -2.9207   -4.4144   -1.0762 C   0  0  0  1  0  0  0  0  0  0  0  0
   -2.4132   -5.2180   -0.0727 C   0  0  0  1  0  0  0  0  0  0  0  0
   -1.6147   -4.6681    0.9180 C   0  0  0  1  0  0  0  0  0  0  0  0
   -1.3305   -3.3155    0.9054 C   0  0  0  1  0  0  0  0  0  0  0  0
   -2.6960   -6.5422   -0.0573 O   0  0  0  1  0  0  0  0  0  0  0  0
   -2.1579   -7.3156    1.0266 C   0  0  0  1  0  0  0  0  0  0  0  0
    3.1543   -1.2786    0.1867 N   0  0  0  1  0  0  0  0  0  0  0  0
    4.4055   -0.5195    0.2650 C   0  0  0  1  0  0  0  0  0  0  0  0
    5.3997   -1.0251   -0.7859 C   0  0  0  1  0  0  0  0  0  0  0  0
    6.7555   -0.9260   -0.1062 C   0  0  0  1  0  0  0  0  0  0  0  0
    6.4295   -1.3799    1.3209 C   0  0  0  1  0  0  0  0  0  0  0  0
    5.0745   -0.7367    1.6289 C   0  0  0  1  0  0  0  0  0  0  0  0
    7.4663   -0.9020    2.2738 N   0  0  0  1  0  0  0  0  0  0  0  0
    0.9179    2.4772    0.0987 H   0  0  0  1  0  0  0  0  0  0  0  0
   -2.1489    1.9441   -0.0609 H   0  0  0  1  0  0  0  0  0  0  0  0
   -3.0210   -2.4527   -1.8419 H   0  0  0  1  0  0  0  0  0  0  0  0
   -3.5165   -4.8276   -1.8218 H   0  0  0  1  0  0  0  0  0  0  0  0
   -1.2294   -5.2733    1.6710 H   0  0  0  1  0  0  0  0  0  0  0  0
   -0.7348   -2.9023    1.6511 H   0  0  0  1  0  0  0  0  0  0  0  0
   -2.3952   -6.8414    1.9559 H   0  0  0  1  0  0  0  0  0  0  0  0
   -1.0951   -7.3839    0.9225 H   0  0  0  1  0  0  0  0  0  0  0  0
   -2.5824   -8.2976    1.0089 H   0  0  0  1  0  0  0  0  0  0  0  0
    3.1744   -2.2584    0.1776 H   0  0  0  1  0  0  0  0  0  0  0  0
    4.2026    0.5200    0.1131 H   0  0  0  1  0  0  0  0  0  0  0  0
    5.3698   -0.4105   -1.6612 H   0  0  0  1  0  0  0  0  0  0  0  0
    5.1841   -2.0384   -1.0534 H   0  0  0  1  0  0  0  0  0  0  0  0
    7.4699   -1.5757   -0.5671 H   0  0  0  1  0  0  0  0  0  0  0  0
    7.1248    0.0781   -0.1200 H   0  0  0  1  0  0  0  0  0  0  0  0
    6.3618   -2.4466    1.3720 H   0  0  0  1  0  0  0  0  0  0  0  0
    5.2098    0.1978    2.1321 H   0  0  0  1  0  0  0  0  0  0  0  0
    4.4812   -1.3873    2.2370 H   0  0  0  1  0  0  0  0  0  0  0  0
    8.2994   -1.3966    2.1259 H   0  0  0  1  0  0  0  0  0  0  0  0
    7.1582   -1.0491    3.1923 H   0  0  0  1  0  0  0  0  0  0  0  0
  1  2  4  0  0  0  0
  1  6  4  0  0  0  0
  1 18  1  0  0  0  0
  2  3  4  0  0  0  0
  3  4  4  0  0  0  0
  3 25  1  0  0  0  0
  4  5  4  0  0  0  0
  4  7  4  0  0  0  0
  5  6  4  0  0  0  0
  5  9  4  0  0  0  0
  7  8  4  0  0  0  0
  7 26  1  0  0  0  0
  8  9  4  0  0  0  0
  9 10  1  0  0  0  0
 10 11  4  0  0  0  0
 10 15  4  0  0  0  0
 11 12  4  0  0  0  0
 11 27  1  0  0  0  0
 12 13  4  0  0  0  0
 12 28  1  0  0  0  0
 13 14  4  0  0  0  0
 13 16  1  0  0  0  0
 14 15  4  0  0  0  0
 14 29  1  0  0  0  0
 15 30  1  0  0  0  0
 16 17  1  0  0  0  0
 17 31  1  0  0  0  0
 17 32  1  0  0  0  0
 17 33  1  0  0  0  0
 18 19  1  0  0  0  0
 18 34  1  0  0  0  0
 19 20  1  0  0  0  0
 19 23  1  0  0  0  0
 19 35  1  0  0  0  0
 20 21  1  0  0  0  0
 20 36  1  0  0  0  0
 20 37  1  0  0  0  0
 21 22  1  0  0  0  0
 21 38  1  0  0  0  0
 21 39  1  0  0  0  0
 22 23  1  0  0  0  0
 22 24  1  0  0  0  0
 22 40  1  0  0  0  0
 23 41  1  0  0  0  0
 23 42  1  0  0  0  0
 24 43  1  0  0  0  0
 24 44  1  0  0  0  0
M  END
> <ConfClashScore>
0 

> <ConfOneFourInteractionScore>
-0.984337 

> <ConfScore>
-0.0390292 

> <ConfScorePBest>
0.00328668 

> <ConfTolerance>
0.352603 

$$$$
c22.sdf
 OpenBabel04162418103D

 44 47  0  0  0  0  0  0  0  0999 V2000
    1.9452   -0.6102    0.1254 C   0  0  0  1  0  0  0  0  0  0  0  0
    2.0363    0.7233    0.1480 N   0  0  0  1  0  0  0  0  0  0  0  0
    0.8946    1.4376    0.0881 C   0  0  0  1  0  0  0  0  0  0  0  0
   -0.3452    0.7386    0.0096 C   0  0  0  1  0  0  0  0  0  0  0  0
   -0.2528   -0.6477    0.0020 C   0  0  0  1  0  0  0  0  0  0  0  0
    0.8780   -1.3912    0.0538 N   0  0  0  1  0  0  0  0  0  0  0  0
   -1.7304    0.9921   -0.0538 C   0  0  0  1  0  0  0  0  0  0  0  0
   -2.4282   -0.1191   -0.1028 N   0  0  0  1  0  0  0  0  0  0  0  0
   -1.5125   -1.1342   -0.0681 N   0  0  0  1  0  0  0  0  0  0  0  0
   -1.8397   -2.5098   -0.1012 C   0  0  0  1  0  0  0  0  0  0  0  0
   -1.5706   -3.2043   -1.2654 C   0  0  0  1  0  0  0  0  0  0  0  0
   -1.8662   -4.5560   -1.3500 C   0  0  0  1  0  0  0  0  0  0  0  0
   -2.4350   -5.2080   -0.2722 C   0  0  0  1  0  0  0  0  0  0  0  0
   -2.7049   -4.5112    0.8954 C   0  0  0  1  0  0  0  0  0  0  0  0
   -2.4101   -3.1636    0.9799 C   0  0  0  1  0  0  0  0  0  0  0  0
   -2.7694   -6.5126   -0.2396 O   0  0  0  1  0  0  0  0  0  0  0  0
   -2.4415   -7.2587   -1.4348 C   0  0  0  1  0  0  0  0  0  0  0  0
    3.1403   -1.2710    0.1857 N   0  0  0  1  0  0  0  0  0  0  0  0
    3.2157   -2.7365    0.1267 C   0  0  0  1  0  0  0  0  0  0  0  0
    4.6749   -3.1885   -0.0038 C   0  0  0  1  0  0  0  0  0  0  0  0
    4.7794   -3.8226   -1.3853 C   0  0  0  1  0  0  0  0  0  0  0  0
    3.3785   -4.3828   -1.6633 C   0  0  0  1  0  0  0  0  0  0  0  0
    2.4915   -3.2570   -1.1248 C   0  0  0  1  0  0  0  0  0  0  0  0
    3.1479   -5.6477   -0.9351 N   0  0  0  1  0  0  0  0  0  0  0  0
    0.9178    2.4773    0.0988 H   0  0  0  1  0  0  0  0  0  0  0  0
   -2.1490    1.9440   -0.0607 H   0  0  0  1  0  0  0  0  0  0  0  0
   -1.1463   -2.7129   -2.0778 H   0  0  0  1  0  0  0  0  0  0  0  0
   -1.6601   -5.0795   -2.2247 H   0  0  0  1  0  0  0  0  0  0  0  0
   -3.1292   -5.0027    1.7079 H   0  0  0  1  0  0  0  0  0  0  0  0
   -2.6162   -2.6400    1.8546 H   0  0  0  1  0  0  0  0  0  0  0  0
   -2.8336   -6.7514   -2.2913 H   0  0  0  1  0  0  0  0  0  0  0  0
   -2.8700   -8.2371   -1.3729 H   0  0  0  1  0  0  0  0  0  0  0  0
   -1.3783   -7.3394   -1.5241 H   0  0  0  1  0  0  0  0  0  0  0  0
    3.9683   -0.7533    0.2704 H   0  0  0  1  0  0  0  0  0  0  0  0
    2.7764   -3.1525    1.0092 H   0  0  0  1  0  0  0  0  0  0  0  0
    4.9146   -3.9035    0.7552 H   0  0  0  1  0  0  0  0  0  0  0  0
    5.3349   -2.3499    0.0741 H   0  0  0  1  0  0  0  0  0  0  0  0
    5.5066   -4.6074   -1.3862 H   0  0  0  1  0  0  0  0  0  0  0  0
    5.0446   -3.0891   -2.1179 H   0  0  0  1  0  0  0  0  0  0  0  0
    3.2201   -4.5392   -2.7100 H   0  0  0  1  0  0  0  0  0  0  0  0
    1.5229   -3.6327   -0.8686 H   0  0  0  1  0  0  0  0  0  0  0  0
    2.3917   -2.4780   -1.8516 H   0  0  0  1  0  0  0  0  0  0  0  0
    2.2005   -5.8912   -0.9942 H   0  0  0  1  0  0  0  0  0  0  0  0
    3.3976   -5.5330    0.0055 H   0  0  0  1  0  0  0  0  0  0  0  0
  1  2  4  0  0  0  0
  1  6  4  0  0  0  0
  1 18  1  0  0  0  0
  2  3  4  0  0  0  0
  3  4  4  0  0  0  0
  3 25  1  0  0  0  0
  4  5  4  0  0  0  0
  4  7  4  0  0  0  0
  5  6  4  0  0  0  0
  5  9  4  0  0  0  0
  7  8  4  0  0  0  0
  7 26  1  0  0  0  0
  8  9  4  0  0  0  0
  9 10  1  0  0  0  0
 10 11  4  0  0  0  0
 10 15  4  0  0  0  0
 11 12  4  0  0  0  0
 11 27  1  0  0  0  0
 12 13  4  0  0  0  0
 12 28  1  0  0  0  0
 13 14  4  0  0  0  0
 13 16  1  0  0  0  0
 14 15  4  0  0  0  0
 14 29  1  0  0  0  0
 15 30  1  0  0  0  0
 16 17  1  0  0  0  0
 17 31  1  0  0  0  0
 17 32  1  0  0  0  0
 17 33  1  0  0  0  0
 18 19  1  0  0  0  0
 18 34  1  0  0  0  0
 19 20  1  0  0  0  0
 19 23  1  0  0  0  0
 19 35  1  0  0  0  0
 20 21  1  0  0  0  0
 20 36  1  0  0  0  0
 20 37  1  0  0  0  0
 21 22  1  0  0  0  0
 21 38  1  0  0  0  0
 21 39  1  0  0  0  0
 22 23  1  0  0  0  0
 22 24  1  0  0  0  0
 22 40  1  0  0  0  0
 23 41  1  0  0  0  0
 23 42  1  0  0  0  0
 24 43  1  0  0  0  0
 24 44  1  0  0  0  0
M  END
> <ConfClashScore>
0 

> <ConfOneFourInteractionScore>
-0.985399 

> <ConfScore>
-0.038887 

> <ConfScorePBest>
0.00327336 

> <ConfTolerance>
0.313284 

$$$$
c22.sdf
 OpenBabel04162418103D

 44 47  0  0  0  0  0  0  0  0999 V2000
    1.9452   -0.6102    0.1256 C   0  0  0  1  0  0  0  0  0  0  0  0
    2.0363    0.7233    0.1481 N   0  0  0  1  0  0  0  0  0  0  0  0
    0.8946    1.4375    0.0881 C   0  0  0  1  0  0  0  0  0  0  0  0
   -0.3452    0.7386    0.0096 C   0  0  0  1  0  0  0  0  0  0  0  0
   -0.2528   -0.6478    0.0020 C   0  0  0  1  0  0  0  0  0  0  0  0
    0.8779   -1.3913    0.0539 N   0  0  0  1  0  0  0  0  0  0  0  0
   -1.7303    0.9921   -0.0538 C   0  0  0  1  0  0  0  0  0  0  0  0
   -2.4281   -0.1191   -0.1029 N   0  0  0  1  0  0  0  0  0  0  0  0
   -1.5125   -1.1341   -0.0681 N   0  0  0  1  0  0  0  0  0  0  0  0
   -1.8415   -2.5177   -0.1013 C   0  0  0  1  0  0  0  0  0  0  0  0
   -1.5159   -3.3311    0.9675 C   0  0  0  1  0  0  0  0  0  0  0  0
   -1.8413   -4.6783    0.9375 C   0  0  0  1  0  0  0  0  0  0  0  0
   -2.4866   -5.2091   -0.1635 C   0  0  0  1  0  0  0  0  0  0  0  0
   -2.8130   -4.3930   -1.2355 C   0  0  0  1  0  0  0  0  0  0  0  0
   -2.4887   -3.0498   -1.2056 C   0  0  0  1  0  0  0  0  0  0  0  0
   -2.7477   -6.5354   -0.0816 O   0  0  0  1  0  0  0  0  0  0  0  0
   -3.3696   -7.1531   -1.2192 C   0  0  0  1  0  0  0  0  0  0  0  0
    3.1214   -1.2604    0.1850 N   0  0  0  1  0  0  0  0  0  0  0  0
    4.4216   -0.5903    0.3077 C   0  0  0  1  0  0  0  0  0  0  0  0
    5.3907   -1.0690   -0.7836 C   0  0  0  1  0  0  0  0  0  0  0  0
    6.0664   -2.3093   -0.2189 C   0  0  0  1  0  0  0  0  0  0  0  0
    5.7011   -2.3719    1.2666 C   0  0  0  1  0  0  0  0  0  0  0  0
    5.1187   -0.9879    1.6037 C   0  0  0  1  0  0  0  0  0  0  0  0
    6.9063   -2.6402    2.0855 N   0  0  0  1  0  0  0  0  0  0  0  0
    0.9179    2.4773    0.0987 H   0  0  0  1  0  0  0  0  0  0  0  0
   -2.1490    1.9441   -0.0609 H   0  0  0  1  0  0  0  0  0  0  0  0
   -1.0268   -2.9326    1.7944 H   0  0  0  1  0  0  0  0  0  0  0  0
   -1.5998   -5.2895    1.7434 H   0  0  0  1  0  0  0  0  0  0  0  0
   -3.3022   -4.7916   -2.0623 H   0  0  0  1  0  0  0  0  0  0  0  0
   -2.7301   -2.4385   -2.0116 H   0  0  0  1  0  0  0  0  0  0  0  0
   -3.5070   -8.1969   -1.0281 H   0  0  0  1  0  0  0  0  0  0  0  0
   -2.7450   -7.0274   -2.0789 H   0  0  0  1  0  0  0  0  0  0  0  0
   -4.3200   -6.6954   -1.3982 H   0  0  0  1  0  0  0  0  0  0  0  0
    3.1094   -2.2395    0.1438 H   0  0  0  1  0  0  0  0  0  0  0  0
    4.2833    0.4696    0.2579 H   0  0  0  1  0  0  0  0  0  0  0  0
    4.8553   -1.3106   -1.6780 H   0  0  0  1  0  0  0  0  0  0  0  0
    6.1170   -0.3124   -0.9954 H   0  0  0  1  0  0  0  0  0  0  0  0
    5.7117   -3.1839   -0.7228 H   0  0  0  1  0  0  0  0  0  0  0  0
    7.1276   -2.2358   -0.3347 H   0  0  0  1  0  0  0  0  0  0  0  0
    4.9733   -3.1366    1.4410 H   0  0  0  1  0  0  0  0  0  0  0  0
    4.4214   -1.0500    2.4129 H   0  0  0  1  0  0  0  0  0  0  0  0
    5.8940   -0.2938    1.8528 H   0  0  0  1  0  0  0  0  0  0  0  0
    6.6838   -2.5469    3.0354 H   0  0  0  1  0  0  0  0  0  0  0  0
    7.6098   -1.9997    1.8507 H   0  0  0  1  0  0  0  0  0  0  0  0
  1  2  4  0  0  0  0
  1  6  4  0  0  0  0
  1 18  1  0  0  0  0
  2  3  4  0  0  0  0
  3  4  4  0  0  0  0
  3 25  1  0  0  0  0
  4  5  4  0  0  0  0
  4  7  4  0  0  0  0
  5  6  4  0  0  0  0
  5  9  4  0  0  0  0
  7  8  4  0  0  0  0
  7 26  1  0  0  0  0
  8  9  4  0  0  0  0
  9 10  1  0  0  0  0
 10 11  4  0  0  0  0
 10 15  4  0  0  0  0
 11 12  4  0  0  0  0
 11 27  1  0  0  0  0
 12 13  4  0  0  0  0
 12 28  1  0  0  0  0
 13 14  4  0  0  0  0
 13 16  1  0  0  0  0
 14 15  4  0  0  0  0
 14 29  1  0  0  0  0
 15 30  1  0  0  0  0
 16 17  1  0  0  0  0
 17 31  1  0  0  0  0
 17 32  1  0  0  0  0
 17 33  1  0  0  0  0
 18 19  1  0  0  0  0
 18 34  1  0  0  0  0
 19 20  1  0  0  0  0
 19 23  1  0  0  0  0
 19 35  1  0  0  0  0
 20 21  1  0  0  0  0
 20 36  1  0  0  0  0
 20 37  1  0  0  0  0
 21 22  1  0  0  0  0
 21 38  1  0  0  0  0
 21 39  1  0  0  0  0
 22 23  1  0  0  0  0
 22 24  1  0  0  0  0
 22 40  1  0  0  0  0
 23 41  1  0  0  0  0
 23 42  1  0  0  0  0
 24 43  1  0  0  0  0
 24 44  1  0  0  0  0
M  END
> <ConfClashScore>
0 

> <ConfOneFourInteractionScore>
-0.984337 

> <ConfScore>
-0.0364345 

> <ConfScorePBest>
0.00326003 

> <ConfTolerance>
0.282801 

$$$$
c22.sdf
 OpenBabel04162418103D

 44 47  0  0  0  0  0  0  0  0999 V2000
    1.9452   -0.6102    0.1255 C   0  0  0  1  0  0  0  0  0  0  0  0
    2.0363    0.7233    0.1481 N   0  0  0  1  0  0  0  0  0  0  0  0
    0.8946    1.4376    0.0881 C   0  0  0  1  0  0  0  0  0  0  0  0
   -0.3452    0.7386    0.0095 C   0  0  0  1  0  0  0  0  0  0  0  0
   -0.2529   -0.6478    0.0020 C   0  0  0  1  0  0  0  0  0  0  0  0
    0.8779   -1.3913    0.0538 N   0  0  0  1  0  0  0  0  0  0  0  0
   -1.7303    0.9921   -0.0538 C   0  0  0  1  0  0  0  0  0  0  0  0
   -2.4282   -0.1191   -0.1029 N   0  0  0  1  0  0  0  0  0  0  0  0
   -1.5125   -1.1341   -0.0681 N   0  0  0  1  0  0  0  0  0  0  0  0
   -1.8386   -2.5051   -0.1010 C   0  0  0  1  0  0  0  0  0  0  0  0
   -2.6548   -3.0948    0.8456 C   0  0  0  1  0  0  0  0  0  0  0  0
   -2.9474   -4.4472    0.7626 C   0  0  0  1  0  0  0  0  0  0  0  0
   -2.4188   -5.2070   -0.2638 C   0  0  0  1  0  0  0  0  0  0  0  0
   -1.6001   -4.6154   -1.2133 C   0  0  0  1  0  0  0  0  0  0  0  0
   -1.3082   -3.2670   -1.1305 C   0  0  0  1  0  0  0  0  0  0  0  0
   -2.7787   -6.5061   -0.3933 O   0  0  0  1  0  0  0  0  0  0  0  0
   -2.1262   -7.2685   -1.4207 C   0  0  0  1  0  0  0  0  0  0  0  0
    3.1379   -1.2696    0.1857 N   0  0  0  1  0  0  0  0  0  0  0  0
    4.4004   -0.5569    0.2706 C   0  0  0  1  0  0  0  0  0  0  0  0
    5.5518   -1.5056    0.6257 C   0  0  0  1  0  0  0  0  0  0  0  0
    6.6439   -0.6713    1.2876 C   0  0  0  1  0  0  0  0  0  0  0  0
    5.9136    0.6403    1.7420 C   0  0  0  1  0  0  0  0  0  0  0  0
    4.4099    0.4393    1.4783 C   0  0  0  1  0  0  0  0  0  0  0  0
    6.4194    1.8056    0.9566 N   0  0  0  1  0  0  0  0  0  0  0  0
    0.9178    2.4773    0.0988 H   0  0  0  1  0  0  0  0  0  0  0  0
   -2.1491    1.9441   -0.0608 H   0  0  0  1  0  0  0  0  0  0  0  0
   -3.0493   -2.5239    1.6202 H   0  0  0  1  0  0  0  0  0  0  0  0
   -3.5649   -4.8901    1.4725 H   0  0  0  1  0  0  0  0  0  0  0  0
   -1.2055   -5.1862   -1.9879 H   0  0  0  1  0  0  0  0  0  0  0  0
   -0.6908   -2.8240   -1.8405 H   0  0  0  1  0  0  0  0  0  0  0  0
   -2.2741   -6.7923   -2.3673 H   0  0  0  1  0  0  0  0  0  0  0  0
   -2.5396   -8.2550   -1.4494 H   0  0  0  1  0  0  0  0  0  0  0  0
   -1.0786   -7.3263   -1.2106 H   0  0  0  1  0  0  0  0  0  0  0  0
    3.1429   -2.2495    0.1713 H   0  0  0  1  0  0  0  0  0  0  0  0
    4.5867   -0.0491   -0.6526 H   0  0  0  1  0  0  0  0  0  0  0  0
    5.2081   -2.2604    1.3018 H   0  0  0  1  0  0  0  0  0  0  0  0
    5.9319   -1.9672   -0.2616 H   0  0  0  1  0  0  0  0  0  0  0  0
    7.0550   -1.1867    2.1304 H   0  0  0  1  0  0  0  0  0  0  0  0
    7.4239   -0.4477    0.5902 H   0  0  0  1  0  0  0  0  0  0  0  0
    6.0831    0.8117    2.7845 H   0  0  0  1  0  0  0  0  0  0  0  0
    3.9372    1.3636    1.2191 H   0  0  0  1  0  0  0  0  0  0  0  0
    3.9223    0.0157    2.3313 H   0  0  0  1  0  0  0  0  0  0  0  0
    6.3095    1.6273   -0.0007 H   0  0  0  1  0  0  0  0  0  0  0  0
    7.3687    1.9461    1.1557 H   0  0  0  1  0  0  0  0  0  0  0  0
  1  2  4  0  0  0  0
  1  6  4  0  0  0  0
  1 18  1  0  0  0  0
  2  3  4  0  0  0  0
  3  4  4  0  0  0  0
  3 25  1  0  0  0  0
  4  5  4  0  0  0  0
  4  7  4  0  0  0  0
  5  6  4  0  0  0  0
  5  9  4  0  0  0  0
  7  8  4  0  0  0  0
  7 26  1  0  0  0  0
  8  9  4  0  0  0  0
  9 10  1  0  0  0  0
 10 11  4  0  0  0  0
 10 15  4  0  0  0  0
 11 12  4  0  0  0  0
 11 27  1  0  0  0  0
 12 13  4  0  0  0  0
 12 28  1  0  0  0  0
 13 14  4  0  0  0  0
 13 16  1  0  0  0  0
 14 15  4  0  0  0  0
 14 29  1  0  0  0  0
 15 30  1  0  0  0  0
 16 17  1  0  0  0  0
 17 31  1  0  0  0  0
 17 32  1  0  0  0  0
 17 33  1  0  0  0  0
 18 19  1  0  0  0  0
 18 34  1  0  0  0  0
 19 20  1  0  0  0  0
 19 23  1  0  0  0  0
 19 35  1  0  0  0  0
 20 21  1  0  0  0  0
 20 36  1  0  0  0  0
 20 37  1  0  0  0  0
 21 22  1  0  0  0  0
 21 38  1  0  0  0  0
 21 39  1  0  0  0  0
 22 23  1  0  0  0  0
 22 24  1  0  0  0  0
 22 40  1  0  0  0  0
 23 41  1  0  0  0  0
 23 42  1  0  0  0  0
 24 43  1  0  0  0  0
 24 44  1  0  0  0  0
M  END
> <ConfClashScore>
0 

> <ConfOneFourInteractionScore>
-0.985399 

> <ConfScore>
-0.0358845 

> <ConfScorePBest>
0.0032467 

> <ConfTolerance>
0.276779 

$$$$
c22.sdf
 OpenBabel04162418103D

 44 47  0  0  0  0  0  0  0  0999 V2000
    1.9453   -0.6102    0.1256 C   0  0  0  1  0  0  0  0  0  0  0  0
    2.0363    0.7234    0.1482 N   0  0  0  1  0  0  0  0  0  0  0  0
    0.8946    1.4376    0.0881 C   0  0  0  1  0  0  0  0  0  0  0  0
   -0.3452    0.7386    0.0095 C   0  0  0  1  0  0  0  0  0  0  0  0
   -0.2527   -0.6478    0.0021 C   0  0  0  1  0  0  0  0  0  0  0  0
    0.8780   -1.3912    0.0540 N   0  0  0  1  0  0  0  0  0  0  0  0
   -1.7303    0.9921   -0.0538 C   0  0  0  1  0  0  0  0  0  0  0  0
   -2.4281   -0.1192   -0.1029 N   0  0  0  1  0  0  0  0  0  0  0  0
   -1.5125   -1.1342   -0.0681 N   0  0  0  1  0  0  0  0  0  0  0  0
   -1.8418   -2.5192   -0.1013 C   0  0  0  1  0  0  0  0  0  0  0  0
   -2.5720   -3.0807    0.9291 C   0  0  0  1  0  0  0  0  0  0  0  0
   -2.8971   -4.4277    0.8941 C   0  0  0  1  0  0  0  0  0  0  0  0
   -2.4866   -5.2105   -0.1684 C   0  0  0  1  0  0  0  0  0  0  0  0
   -1.7542   -4.6472   -1.2018 C   0  0  0  1  0  0  0  0  0  0  0  0
   -1.4300   -3.3042   -1.1671 C   0  0  0  1  0  0  0  0  0  0  0  0
   -2.8580   -6.5105   -0.0905 O   0  0  0  1  0  0  0  0  0  0  0  0
   -2.5420   -7.3515   -1.2109 C   0  0  0  1  0  0  0  0  0  0  0  0
    3.1381   -1.2696    0.1859 N   0  0  0  1  0  0  0  0  0  0  0  0
    3.2104   -2.7335    0.1695 C   0  0  0  1  0  0  0  0  0  0  0  0
    4.6467   -3.2173    0.4282 C   0  0  0  1  0  0  0  0  0  0  0  0
    5.2528   -3.6245   -0.9056 C   0  0  0  1  0  0  0  0  0  0  0  0
    4.2253   -3.2169   -1.9788 C   0  0  0  1  0  0  0  0  0  0  0  0
    2.9053   -3.2782   -1.2149 C   0  0  0  1  0  0  0  0  0  0  0  0
    4.2311   -4.1681   -3.1129 N   0  0  0  1  0  0  0  0  0  0  0  0
    0.9179    2.4772    0.0987 H   0  0  0  1  0  0  0  0  0  0  0  0
   -2.1489    1.9441   -0.0609 H   0  0  0  1  0  0  0  0  0  0  0  0
   -2.8775   -2.4926    1.7306 H   0  0  0  1  0  0  0  0  0  0  0  0
   -3.4500   -4.8494    1.6675 H   0  0  0  1  0  0  0  0  0  0  0  0
   -1.4487   -5.2353   -2.0033 H   0  0  0  1  0  0  0  0  0  0  0  0
   -0.8771   -2.8825   -1.9405 H   0  0  0  1  0  0  0  0  0  0  0  0
   -2.8865   -6.8896   -2.1126 H   0  0  0  1  0  0  0  0  0  0  0  0
   -3.0217   -8.3004   -1.0908 H   0  0  0  1  0  0  0  0  0  0  0  0
   -1.4825   -7.4911   -1.2642 H   0  0  0  1  0  0  0  0  0  0  0  0
    3.9678   -0.7513    0.2416 H   0  0  0  1  0  0  0  0  0  0  0  0
    2.5343   -3.1328    0.8964 H   0  0  0  1  0  0  0  0  0  0  0  0
    4.6331   -4.0565    1.0919 H   0  0  0  1  0  0  0  0  0  0  0  0
    5.2230   -2.4276    0.8628 H   0  0  0  1  0  0  0  0  0  0  0  0
    5.4186   -4.6813   -0.9318 H   0  0  0  1  0  0  0  0  0  0  0  0
    6.1794   -3.1135   -1.0647 H   0  0  0  1  0  0  0  0  0  0  0  0
    4.4164   -2.2283   -2.3408 H   0  0  0  1  0  0  0  0  0  0  0  0
    2.5574   -4.2881   -1.1507 H   0  0  0  1  0  0  0  0  0  0  0  0
    2.1652   -2.6757   -1.6988 H   0  0  0  1  0  0  0  0  0  0  0  0
    3.9249   -5.0465   -2.8047 H   0  0  0  1  0  0  0  0  0  0  0  0
    5.1409   -4.2460   -3.4689 H   0  0  0  1  0  0  0  0  0  0  0  0
  1  2  4  0  0  0  0
  1  6  4  0  0  0  0
  1 18  1  0  0  0  0
  2  3  4  0  0  0  0
  3  4  4  0  0  0  0
  3 25  1  0  0  0  0
  4  5  4  0  0  0  0
  4  7  4  0  0  0  0
  5  6  4  0  0  0  0
  5  9  4  0  0  0  0
  7  8  4  0  0  0  0
  7 26  1  0  0  0  0
  8  9  4  0  0  0  0
  9 10  1  0  0  0  0
 10 11  4  0  0  0  0
 10 15  4  0  0  0  0
 11 12  4  0  0  0  0
 11 27  1  0  0  0  0
 12 13  4  0  0  0  0
 12 28  1  0  0  0  0
 13 14  4  0  0  0  0
 13 16  1  0  0  0  0
 14 15  4  0  0  0  0
 14 29  1  0  0  0  0
 15 30  1  0  0  0  0
 16 17  1  0  0  0  0
 17 31  1  0  0  0  0
 17 32  1  0  0  0  0
 17 33  1  0  0  0  0
 18 19  1  0  0  0  0
 18 34  1  0  0  0  0
 19 20  1  0  0  0  0
 19 23  1  0  0  0  0
 19 35  1  0  0  0  0
 20 21  1  0  0  0  0
 20 36  1  0  0  0  0
 20 37  1  0  0  0  0
 21 22  1  0  0  0  0
 21 38  1  0  0  0  0
 21 39  1  0  0  0  0
 22 23  1  0  0  0  0
 22 24  1  0  0  0  0
 22 40  1  0  0  0  0
 23 41  1  0  0  0  0
 23 42  1  0  0  0  0
 24 43  1  0  0  0  0
 24 44  1  0  0  0  0
M  END
> <ConfClashScore>
0 

> <ConfOneFourInteractionScore>
-0.984337 

> <ConfScore>
-0.0358845 

> <ConfScorePBest>
0.00323337 

> <ConfTolerance>
0.26759 

$$$$
c22.sdf
 OpenBabel04162418103D

 44 47  0  0  0  0  0  0  0  0999 V2000
    1.9452   -0.6103    0.1255 C   0  0  0  1  0  0  0  0  0  0  0  0
    2.0363    0.7233    0.1481 N   0  0  0  1  0  0  0  0  0  0  0  0
    0.8946    1.4375    0.0881 C   0  0  0  1  0  0  0  0  0  0  0  0
   -0.3453    0.7386    0.0096 C   0  0  0  1  0  0  0  0  0  0  0  0
   -0.2529   -0.6477    0.0020 C   0  0  0  1  0  0  0  0  0  0  0  0
    0.8779   -1.3912    0.0538 N   0  0  0  1  0  0  0  0  0  0  0  0
   -1.7304    0.9921   -0.0538 C   0  0  0  1  0  0  0  0  0  0  0  0
   -2.4282   -0.1191   -0.1028 N   0  0  0  1  0  0  0  0  0  0  0  0
   -1.5125   -1.1342   -0.0681 N   0  0  0  1  0  0  0  0  0  0  0  0
   -1.8397   -2.5099   -0.1012 C   0  0  0  1  0  0  0  0  0  0  0  0
   -1.6046   -3.2487   -1.2452 C   0  0  0  1  0  0  0  0  0  0  0  0
   -1.9203   -4.5981   -1.2757 C   0  0  0  1  0  0  0  0  0  0  0  0
   -2.4749   -5.2036   -0.1639 C   0  0  0  1  0  0  0  0  0  0  0  0
   -2.7107   -4.4623    0.9835 C   0  0  0  1  0  0  0  0  0  0  0  0
   -2.3961   -3.1169    1.0140 C   0  0  0  1  0  0  0  0  0  0  0  0
   -2.8281   -6.5080   -0.0776 O   0  0  0  1  0  0  0  0  0  0  0  0
   -2.4226   -7.3701   -1.1522 C   0  0  0  1  0  0  0  0  0  0  0  0
    3.1256   -1.2629    0.1851 N   0  0  0  1  0  0  0  0  0  0  0  0
    3.2537   -2.7260    0.1752 C   0  0  0  1  0  0  0  0  0  0  0  0
    4.3906   -3.1660    1.1049 C   0  0  0  1  0  0  0  0  0  0  0  0
    5.4527   -3.7630    0.1899 C   0  0  0  1  0  0  0  0  0  0  0  0
    4.6678   -4.3238   -1.0031 C   0  0  0  1  0  0  0  0  0  0  0  0
    3.6339   -3.2177   -1.2303 C   0  0  0  1  0  0  0  0  0  0  0  0
    4.0120   -5.6241   -0.6637 N   0  0  0  1  0  0  0  0  0  0  0  0
    0.9179    2.4772    0.0987 H   0  0  0  1  0  0  0  0  0  0  0  0
   -2.1489    1.9441   -0.0608 H   0  0  0  1  0  0  0  0  0  0  0  0
   -1.1909   -2.7924   -2.0831 H   0  0  0  1  0  0  0  0  0  0  0  0
   -1.7396   -5.1551   -2.1352 H   0  0  0  1  0  0  0  0  0  0  0  0
   -3.1244   -4.9187    1.8215 H   0  0  0  1  0  0  0  0  0  0  0  0
   -2.5766   -2.5599    1.8735 H   0  0  0  1  0  0  0  0  0  0  0  0
   -1.4805   -7.0407   -1.5383 H   0  0  0  1  0  0  0  0  0  0  0  0
   -3.1567   -7.3398   -1.9300 H   0  0  0  1  0  0  0  0  0  0  0  0
   -2.3281   -8.3722   -0.7892 H   0  0  0  1  0  0  0  0  0  0  0  0
    3.9457   -0.7287    0.2380 H   0  0  0  1  0  0  0  0  0  0  0  0
    2.3296   -3.1675    0.4850 H   0  0  0  1  0  0  0  0  0  0  0  0
    4.7848   -2.3260    1.6376 H   0  0  0  1  0  0  0  0  0  0  0  0
    4.0419   -3.8992    1.8017 H   0  0  0  1  0  0  0  0  0  0  0  0
    6.1405   -3.0091   -0.1319 H   0  0  0  1  0  0  0  0  0  0  0  0
    5.9867   -4.5433    0.6906 H   0  0  0  1  0  0  0  0  0  0  0  0
    5.2966   -4.4537   -1.8590 H   0  0  0  1  0  0  0  0  0  0  0  0
    2.7750   -3.6055   -1.7371 H   0  0  0  1  0  0  0  0  0  0  0  0
    4.0577   -2.4206   -1.8047 H   0  0  0  1  0  0  0  0  0  0  0  0
    3.3948   -5.4932    0.0863 H   0  0  0  1  0  0  0  0  0  0  0  0
    4.6963   -6.2791   -0.4128 H   0  0  0  1  0  0  0  0  0  0  0  0
  1  2  4  0  0  0  0
  1  6  4  0  0  0  0
  1 18  1  0  0  0  0
  2  3  4  0  0  0  0
  3  4  4  0  0  0  0
  3 25  1  0  0  0  0
  4  5  4  0  0  0  0
  4  7  4  0  0  0  0
  5  6  4  0  0  0  0
  5  9  4  0  0  0  0
  7  8  4  0  0  0  0
  7 26  1  0  0  0  0
  8  9  4  0  0  0  0
  9 10  1  0  0  0  0
 10 11  4  0  0  0  0
 10 15  4  0  0  0  0
 11 12  4  0  0  0  0
 11 27  1  0  0  0  0
 12 13  4  0  0  0  0
 12 28  1  0  0  0  0
 13 14  4  0  0  0  0
 13 16  1  0  0  0  0
 14 15  4  0  0  0  0
 14 29  1  0  0  0  0
 15 30  1  0  0  0  0
 16 17  1  0  0  0  0
 17 31  1  0  0  0  0
 17 32  1  0  0  0  0
 17 33  1  0  0  0  0
 18 19  1  0  0  0  0
 18 34  1  0  0  0  0
 19 20  1  0  0  0  0
 19 23  1  0  0  0  0
 19 35  1  0  0  0  0
 20 21  1  0  0  0  0
 20 36  1  0  0  0  0
 20 37  1  0  0  0  0
 21 22  1  0  0  0  0
 21 38  1  0  0  0  0
 21 39  1  0  0  0  0
 22 23  1  0  0  0  0
 22 24  1  0  0  0  0
 22 40  1  0  0  0  0
 23 41  1  0  0  0  0
 23 42  1  0  0  0  0
 24 43  1  0  0  0  0
 24 44  1  0  0  0  0
M  END
> <ConfClashScore>
0 

> <ConfOneFourInteractionScore>
-0.984337 

> <ConfScore>
-0.0338307 

> <ConfScorePBest>
0.00322004 

> <ConfTolerance>
0.393026 

$$$$
c22.sdf
 OpenBabel04162418103D

 44 47  0  0  0  0  0  0  0  0999 V2000
    1.9453   -0.6102    0.1255 C   0  0  0  1  0  0  0  0  0  0  0  0
    2.0363    0.7234    0.1481 N   0  0  0  1  0  0  0  0  0  0  0  0
    0.8946    1.4376    0.0881 C   0  0  0  1  0  0  0  0  0  0  0  0
   -0.3453    0.7386    0.0096 C   0  0  0  1  0  0  0  0  0  0  0  0
   -0.2527   -0.6477    0.0020 C   0  0  0  1  0  0  0  0  0  0  0  0
    0.8780   -1.3912    0.0539 N   0  0  0  1  0  0  0  0  0  0  0  0
   -1.7304    0.9921   -0.0538 C   0  0  0  1  0  0  0  0  0  0  0  0
   -2.4281   -0.1191   -0.1028 N   0  0  0  1  0  0  0  0  0  0  0  0
   -1.5125   -1.1341   -0.0681 N   0  0  0  1  0  0  0  0  0  0  0  0
   -1.8421   -2.5202   -0.1013 C   0  0  0  1  0  0  0  0  0  0  0  0
   -1.5089   -3.2844   -1.2037 C   0  0  0  1  0  0  0  0  0  0  0  0
   -1.9065   -4.6105   -1.2732 C   0  0  0  1  0  0  0  0  0  0  0  0
   -2.6406   -5.1670   -0.2429 C   0  0  0  1  0  0  0  0  0  0  0  0
   -2.9747   -4.4004    0.8627 C   0  0  0  1  0  0  0  0  0  0  0  0
   -2.5784   -3.0781    0.9322 C   0  0  0  1  0  0  0  0  0  0  0  0
   -2.8993   -6.4915   -0.3042 O   0  0  0  1  0  0  0  0  0  0  0  0
   -2.6122   -7.2128   -1.5125 C   0  0  0  1  0  0  0  0  0  0  0  0
    3.1379   -1.2695    0.1858 N   0  0  0  1  0  0  0  0  0  0  0  0
    4.4150   -0.5499    0.2268 C   0  0  0  1  0  0  0  0  0  0  0  0
    4.5330    0.4069   -0.9930 C   0  0  0  1  0  0  0  0  0  0  0  0
    5.6685   -0.1411   -1.8754 C   0  0  0  1  0  0  0  0  0  0  0  0
    5.8904   -1.5986   -1.4273 C   0  0  0  1  0  0  0  0  0  0  0  0
    5.6086   -1.5571    0.1129 C   0  0  0  1  0  0  0  0  0  0  0  0
    7.2736   -2.0270   -1.6975 N   0  0  0  1  0  0  0  0  0  0  0  0
    0.9178    2.4773    0.0987 H   0  0  0  1  0  0  0  0  0  0  0  0
   -2.1490    1.9441   -0.0608 H   0  0  0  1  0  0  0  0  0  0  0  0
   -0.9599   -2.8646   -1.9808 H   0  0  0  1  0  0  0  0  0  0  0  0
   -1.6523   -5.1868   -2.1008 H   0  0  0  1  0  0  0  0  0  0  0  0
   -3.5237   -4.8202    1.6399 H   0  0  0  1  0  0  0  0  0  0  0  0
   -2.8324   -2.5018    1.7598 H   0  0  0  1  0  0  0  0  0  0  0  0
   -3.1421   -6.7676   -2.3286 H   0  0  0  1  0  0  0  0  0  0  0  0
   -2.9199   -8.2316   -1.4012 H   0  0  0  1  0  0  0  0  0  0  0  0
   -1.5608   -7.1766   -1.7081 H   0  0  0  1  0  0  0  0  0  0  0  0
    3.1414   -2.2494    0.2019 H   0  0  0  1  0  0  0  0  0  0  0  0
    4.4837    0.0040    1.1397 H   0  0  0  1  0  0  0  0  0  0  0  0
    4.7674    1.3975   -0.6634 H   0  0  0  1  0  0  0  0  0  0  0  0
    3.6141    0.4209   -1.5410 H   0  0  0  1  0  0  0  0  0  0  0  0
    5.3861   -0.1085   -2.9069 H   0  0  0  1  0  0  0  0  0  0  0  0
    6.5605    0.4318   -1.7309 H   0  0  0  1  0  0  0  0  0  0  0  0
    5.2089   -2.2584   -1.9226 H   0  0  0  1  0  0  0  0  0  0  0  0
    5.3320   -2.5236    0.4792 H   0  0  0  1  0  0  0  0  0  0  0  0
    6.4632   -1.2026    0.6504 H   0  0  0  1  0  0  0  0  0  0  0  0
    7.4259   -2.0497   -2.6653 H   0  0  0  1  0  0  0  0  0  0  0  0
    7.4173   -2.9213   -1.3234 H   0  0  0  1  0  0  0  0  0  0  0  0
  1  2  4  0  0  0  0
  1  6  4  0  0  0  0
  1 18  1  0  0  0  0
  2  3  4  0  0  0  0
  3  4  4  0  0  0  0
  3 25  1  0  0  0  0
  4  5  4  0  0  0  0
  4  7  4  0  0  0  0
  5  6  4  0  0  0  0
  5  9  4  0  0  0  0
  7  8  4  0  0  0  0
  7 26  1  0  0  0  0
  8  9  4  0  0  0  0
  9 10  1  0  0  0  0
 10 11  4  0  0  0  0
 10 15  4  0  0  0  0
 11 12  4  0  0  0  0
 11 27  1  0  0  0  0
 12 13  4  0  0  0  0
 12 28  1  0  0  0  0
 13 14  4  0  0  0  0
 13 16  1  0  0  0  0
 14 15  4  0  0  0  0
 14 29  1  0  0  0  0
 15 30  1  0  0  0  0
 16 17  1  0  0  0  0
 17 31  1  0  0  0  0
 17 32  1  0  0  0  0
 17 33  1  0  0  0  0
 18 19  1  0  0  0  0
 18 34  1  0  0  0  0
 19 20  1  0  0  0  0
 19 23  1  0  0  0  0
 19 35  1  0  0  0  0
 20 21  1  0  0  0  0
 20 36  1  0  0  0  0
 20 37  1  0  0  0  0
 21 22  1  0  0  0  0
 21 38  1  0  0  0  0
 21 39  1  0  0  0  0
 22 23  1  0  0  0  0
 22 24  1  0  0  0  0
 22 40  1  0  0  0  0
 23 41  1  0  0  0  0
 23 42  1  0  0  0  0
 24 43  1  0  0  0  0
 24 44  1  0  0  0  0
M  END
> <ConfClashScore>
0 

> <ConfOneFourInteractionScore>
-0.985399 

> <ConfScore>
-0.0328375 

> <ConfScorePBest>
0.00320672 

> <ConfTolerance>
0.262834 

$$$$
c22.sdf
 OpenBabel04162418103D

 44 47  0  0  0  0  0  0  0  0999 V2000
    1.9453   -0.6103    0.1255 C   0  0  0  1  0  0  0  0  0  0  0  0
    2.0364    0.7233    0.1481 N   0  0  0  1  0  0  0  0  0  0  0  0
    0.8946    1.4376    0.0881 C   0  0  0  1  0  0  0  0  0  0  0  0
   -0.3452    0.7386    0.0096 C   0  0  0  1  0  0  0  0  0  0  0  0
   -0.2528   -0.6477    0.0020 C   0  0  0  1  0  0  0  0  0  0  0  0
    0.8780   -1.3913    0.0538 N   0  0  0  1  0  0  0  0  0  0  0  0
   -1.7303    0.9921   -0.0538 C   0  0  0  1  0  0  0  0  0  0  0  0
   -2.4281   -0.1191   -0.1028 N   0  0  0  1  0  0  0  0  0  0  0  0
   -1.5126   -1.1341   -0.0681 N   0  0  0  1  0  0  0  0  0  0  0  0
   -1.8419   -2.5192   -0.1014 C   0  0  0  1  0  0  0  0  0  0  0  0
   -1.4030   -3.3088   -1.1473 C   0  0  0  1  0  0  0  0  0  0  0  0
   -1.7192   -4.6581   -1.1768 C   0  0  0  1  0  0  0  0  0  0  0  0
   -2.4776   -5.2129   -0.1633 C   0  0  0  1  0  0  0  0  0  0  0  0
   -2.9177   -4.4206    0.8857 C   0  0  0  1  0  0  0  0  0  0  0  0
   -2.6026   -3.0753    0.9153 C   0  0  0  1  0  0  0  0  0  0  0  0
   -2.8718   -6.5061   -0.2410 O   0  0  0  1  0  0  0  0  0  0  0  0
   -2.3540   -7.2855   -1.3304 C   0  0  0  1  0  0  0  0  0  0  0  0
    3.1545   -1.2788    0.1865 N   0  0  0  1  0  0  0  0  0  0  0  0
    4.3797   -0.4821    0.1280 C   0  0  0  1  0  0  0  0  0  0  0  0
    4.6397    0.0468   -1.3224 C   0  0  0  1  0  0  0  0  0  0  0  0
    5.2460   -1.1823   -2.0105 C   0  0  0  1  0  0  0  0  0  0  0  0
    6.1184   -1.8970   -0.9833 C   0  0  0  1  0  0  0  0  0  0  0  0
    5.6206   -1.3523    0.4005 C   0  0  0  1  0  0  0  0  0  0  0  0
    7.5588   -1.5666   -1.1934 N   0  0  0  1  0  0  0  0  0  0  0  0
    0.9179    2.4773    0.0988 H   0  0  0  1  0  0  0  0  0  0  0  0
   -2.1489    1.9441   -0.0608 H   0  0  0  1  0  0  0  0  0  0  0  0
   -0.8357   -2.8908   -1.9121 H   0  0  0  1  0  0  0  0  0  0  0  0
   -1.3855   -5.2533   -1.9618 H   0  0  0  1  0  0  0  0  0  0  0  0
   -3.4851   -4.8388    1.6506 H   0  0  0  1  0  0  0  0  0  0  0  0
   -2.9361   -2.4801    1.7003 H   0  0  0  1  0  0  0  0  0  0  0  0
   -2.6608   -8.3045   -1.2179 H   0  0  0  1  0  0  0  0  0  0  0  0
   -1.2853   -7.2330   -1.3298 H   0  0  0  1  0  0  0  0  0  0  0  0
   -2.7301   -6.9000   -2.2549 H   0  0  0  1  0  0  0  0  0  0  0  0
    3.1892   -2.2549    0.2663 H   0  0  0  1  0  0  0  0  0  0  0  0
    4.3142    0.3255    0.8268 H   0  0  0  1  0  0  0  0  0  0  0  0
    5.3261    0.8675   -1.3188 H   0  0  0  1  0  0  0  0  0  0  0  0
    3.7278    0.3460   -1.7956 H   0  0  0  1  0  0  0  0  0  0  0  0
    5.8407   -0.8772   -2.8460 H   0  0  0  1  0  0  0  0  0  0  0  0
    4.4671   -1.8349   -2.3456 H   0  0  0  1  0  0  0  0  0  0  0  0
    5.9826   -2.9567   -1.0436 H   0  0  0  1  0  0  0  0  0  0  0  0
    5.3624   -2.1674    1.0439 H   0  0  0  1  0  0  0  0  0  0  0  0
    6.3871   -0.7637    0.8599 H   0  0  0  1  0  0  0  0  0  0  0  0
    7.8551   -1.9277   -2.0548 H   0  0  0  1  0  0  0  0  0  0  0  0
    8.0927   -1.9616   -0.4727 H   0  0  0  1  0  0  0  0  0  0  0  0
  1  2  4  0  0  0  0
  1  6  4  0  0  0  0
  1 18  1  0  0  0  0
  2  3  4  0  0  0  0
  3  4  4  0  0  0  0
  3 25  1  0  0  0  0
  4  5  4  0  0  0  0
  4  7  4  0  0  0  0
  5  6  4  0  0  0  0
  5  9  4  0  0  0  0
  7  8  4  0  0  0  0
  7 26  1  0  0  0  0
  8  9  4  0  0  0  0
  9 10  1  0  0  0  0
 10 11  4  0  0  0  0
 10 15  4  0  0  0  0
 11 12  4  0  0  0  0
 11 27  1  0  0  0  0
 12 13  4  0  0  0  0
 12 28  1  0  0  0  0
 13 14  4  0  0  0  0
 13 16  1  0  0  0  0
 14 15  4  0  0  0  0
 14 29  1  0  0  0  0
 15 30  1  0  0  0  0
 16 17  1  0  0  0  0
 17 31  1  0  0  0  0
 17 32  1  0  0  0  0
 17 33  1  0  0  0  0
 18 19  1  0  0  0  0
 18 34  1  0  0  0  0
 19 20  1  0  0  0  0
 19 23  1  0  0  0  0
 19 35  1  0  0  0  0
 20 21  1  0  0  0  0
 20 36  1  0  0  0  0
 20 37  1  0  0  0  0
 21 22  1  0  0  0  0
 21 38  1  0  0  0  0
 21 39  1  0  0  0  0
 22 23  1  0  0  0  0
 22 24  1  0  0  0  0
 22 40  1  0  0  0  0
 23 41  1  0  0  0  0
 23 42  1  0  0  0  0
 24 43  1  0  0  0  0
 24 44  1  0  0  0  0
M  END
> <ConfClashScore>
0 

> <ConfOneFourInteractionScore>
-0.981848 

> <ConfScore>
-0.0328375 

> <ConfScorePBest>
0.00319339 

> <ConfTolerance>
0.445187 

$$$$
c22.sdf
 OpenBabel04162418103D

 44 47  0  0  0  0  0  0  0  0999 V2000
    1.9453   -0.6102    0.1255 C   0  0  0  1  0  0  0  0  0  0  0  0
    2.0363    0.7234    0.1481 N   0  0  0  1  0  0  0  0  0  0  0  0
    0.8946    1.4376    0.0881 C   0  0  0  1  0  0  0  0  0  0  0  0
   -0.3453    0.7387    0.0096 C   0  0  0  1  0  0  0  0  0  0  0  0
   -0.2528   -0.6477    0.0020 C   0  0  0  1  0  0  0  0  0  0  0  0
    0.8780   -1.3913    0.0539 N   0  0  0  1  0  0  0  0  0  0  0  0
   -1.7304    0.9921   -0.0538 C   0  0  0  1  0  0  0  0  0  0  0  0
   -2.4282   -0.1191   -0.1029 N   0  0  0  1  0  0  0  0  0  0  0  0
   -1.5125   -1.1341   -0.0681 N   0  0  0  1  0  0  0  0  0  0  0  0
   -1.8425   -2.5220   -0.1014 C   0  0  0  1  0  0  0  0  0  0  0  0
   -3.1012   -2.9382    0.2893 C   0  0  0  1  0  0  0  0  0  0  0  0
   -3.4593   -4.2716    0.1663 C   0  0  0  1  0  0  0  0  0  0  0  0
   -2.5559   -5.1860   -0.3419 C   0  0  0  1  0  0  0  0  0  0  0  0
   -1.2935   -4.7684   -0.7338 C   0  0  0  1  0  0  0  0  0  0  0  0
   -0.9364   -3.4388   -0.6112 C   0  0  0  1  0  0  0  0  0  0  0  0
   -2.7891   -6.5068   -0.5032 O   0  0  0  1  0  0  0  0  0  0  0  0
   -4.0582   -7.0537   -0.1122 C   0  0  0  1  0  0  0  0  0  0  0  0
    3.1258   -1.2628    0.1850 N   0  0  0  1  0  0  0  0  0  0  0  0
    4.4260   -0.5934    0.2459 C   0  0  0  1  0  0  0  0  0  0  0  0
    5.5349   -1.6127    0.5278 C   0  0  0  1  0  0  0  0  0  0  0  0
    6.5135   -0.8725    1.4247 C   0  0  0  1  0  0  0  0  0  0  0  0
    5.5712   -0.0810    2.3382 C   0  0  0  1  0  0  0  0  0  0  0  0
    4.4552    0.4062    1.4099 C   0  0  0  1  0  0  0  0  0  0  0  0
    6.2883    1.0812    2.9601 N   0  0  0  1  0  0  0  0  0  0  0  0
    0.9179    2.4772    0.0987 H   0  0  0  1  0  0  0  0  0  0  0  0
   -2.1490    1.9441   -0.0608 H   0  0  0  1  0  0  0  0  0  0  0  0
   -3.7796   -2.2510    0.6754 H   0  0  0  1  0  0  0  0  0  0  0  0
   -4.4078   -4.5841    0.4566 H   0  0  0  1  0  0  0  0  0  0  0  0
   -0.6152   -5.4555   -1.1199 H   0  0  0  1  0  0  0  0  0  0  0  0
    0.0121   -3.1262   -0.9014 H   0  0  0  1  0  0  0  0  0  0  0  0
   -4.8412   -6.5548   -0.6442 H   0  0  0  1  0  0  0  0  0  0  0  0
   -4.1974   -6.9150    0.9395 H   0  0  0  1  0  0  0  0  0  0  0  0
   -4.0817   -8.0986   -0.3409 H   0  0  0  1  0  0  0  0  0  0  0  0
    3.1111   -2.2427    0.1877 H   0  0  0  1  0  0  0  0  0  0  0  0
    4.6121   -0.0899   -0.6797 H   0  0  0  1  0  0  0  0  0  0  0  0
    6.0103   -1.9154   -0.3817 H   0  0  0  1  0  0  0  0  0  0  0  0
    5.1400   -2.4724    1.0277 H   0  0  0  1  0  0  0  0  0  0  0  0
    7.1438   -0.2201    0.8573 H   0  0  0  1  0  0  0  0  0  0  0  0
    7.1179   -1.5538    1.9863 H   0  0  0  1  0  0  0  0  0  0  0  0
    5.1749   -0.7097    3.1081 H   0  0  0  1  0  0  0  0  0  0  0  0
    4.6700    1.3912    1.0517 H   0  0  0  1  0  0  0  0  0  0  0  0
    3.5164    0.4097    1.9235 H   0  0  0  1  0  0  0  0  0  0  0  0
    7.0109    0.7507    3.5338 H   0  0  0  1  0  0  0  0  0  0  0  0
    5.6576    1.6039    3.4980 H   0  0  0  1  0  0  0  0  0  0  0  0
  1  2  4  0  0  0  0
  1  6  4  0  0  0  0
  1 18  1  0  0  0  0
  2  3  4  0  0  0  0
  3  4  4  0  0  0  0
  3 25  1  0  0  0  0
  4  5  4  0  0  0  0
  4  7  4  0  0  0  0
  5  6  4  0  0  0  0
  5  9  4  0  0  0  0
  7  8  4  0  0  0  0
  7 26  1  0  0  0  0
  8  9  4  0  0  0  0
  9 10  1  0  0  0  0
 10 11  4  0  0  0  0
 10 15  4  0  0  0  0
 11 12  4  0  0  0  0
 11 27  1  0  0  0  0
 12 13  4  0  0  0  0
 12 28  1  0  0  0  0
 13 14  4  0  0  0  0
 13 16  1  0  0  0  0
 14 15  4  0  0  0  0
 14 29  1  0  0  0  0
 15 30  1  0  0  0  0
 16 17  1  0  0  0  0
 17 31  1  0  0  0  0
 17 32  1  0  0  0  0
 17 33  1  0  0  0  0
 18 19  1  0  0  0  0
 18 34  1  0  0  0  0
 19 20  1  0  0  0  0
 19 23  1  0  0  0  0
 19 35  1  0  0  0  0
 20 21  1  0  0  0  0
 20 36  1  0  0  0  0
 20 37  1  0  0  0  0
 21 22  1  0  0  0  0
 21 38  1  0  0  0  0
 21 39  1  0  0  0  0
 22 23  1  0  0  0  0
 22 24  1  0  0  0  0
 22 40  1  0  0  0  0
 23 41  1  0  0  0  0
 23 42  1  0  0  0  0
 24 43  1  0  0  0  0
 24 44  1  0  0  0  0
M  END
> <ConfClashScore>
0 

> <ConfOneFourInteractionScore>
-0.985399 

> <ConfScore>
-0.0322075 

> <ConfScorePBest>
0.00318006 

> <ConfTolerance>
0.329073 

$$$$
c22.sdf
 OpenBabel04162418103D

 44 47  0  0  0  0  0  0  0  0999 V2000
    1.9452   -0.6102    0.1255 C   0  0  0  1  0  0  0  0  0  0  0  0
    2.0363    0.7233    0.1482 N   0  0  0  1  0  0  0  0  0  0  0  0
    0.8946    1.4376    0.0881 C   0  0  0  1  0  0  0  0  0  0  0  0
   -0.3453    0.7386    0.0096 C   0  0  0  1  0  0  0  0  0  0  0  0
   -0.2528   -0.6477    0.0020 C   0  0  0  1  0  0  0  0  0  0  0  0
    0.8779   -1.3912    0.0539 N   0  0  0  1  0  0  0  0  0  0  0  0
   -1.7304    0.9921   -0.0538 C   0  0  0  1  0  0  0  0  0  0  0  0
   -2.4282   -0.1192   -0.1028 N   0  0  0  1  0  0  0  0  0  0  0  0
   -1.5125   -1.1341   -0.0681 N   0  0  0  1  0  0  0  0  0  0  0  0
   -1.8419   -2.5192   -0.1013 C   0  0  0  1  0  0  0  0  0  0  0  0
   -2.6158   -3.0209   -1.1306 C   0  0  0  1  0  0  0  0  0  0  0  0
   -2.9319   -4.3701   -1.1658 C   0  0  0  1  0  0  0  0  0  0  0  0
   -2.4776   -5.2127   -0.1688 C   0  0  0  1  0  0  0  0  0  0  0  0
   -1.7014   -4.7094    0.8636 C   0  0  0  1  0  0  0  0  0  0  0  0
   -1.3862   -3.3641    0.8987 C   0  0  0  1  0  0  0  0  0  0  0  0
   -2.7549   -6.5380   -0.1417 O   0  0  0  1  0  0  0  0  0  0  0  0
   -3.5158   -7.0717   -1.2366 C   0  0  0  1  0  0  0  0  0  0  0  0
    3.1213   -1.2604    0.1849 N   0  0  0  1  0  0  0  0  0  0  0  0
    3.2521   -2.7191    0.1301 C   0  0  0  1  0  0  0  0  0  0  0  0
    2.3761   -3.3670    1.2044 C   0  0  0  1  0  0  0  0  0  0  0  0
    3.3358   -3.9804    2.2149 C   0  0  0  1  0  0  0  0  0  0  0  0
    4.6812   -3.3005    2.0007 C   0  0  0  1  0  0  0  0  0  0  0  0
    4.7259   -3.1387    0.4353 C   0  0  0  1  0  0  0  0  0  0  0  0
    5.7870   -4.1430    2.4816 N   0  0  0  1  0  0  0  0  0  0  0  0
    0.9179    2.4772    0.0987 H   0  0  0  1  0  0  0  0  0  0  0  0
   -2.1490    1.9440   -0.0608 H   0  0  0  1  0  0  0  0  0  0  0  0
   -2.9610   -2.3863   -1.8787 H   0  0  0  1  0  0  0  0  0  0  0  0
   -3.5109   -4.7484   -1.9425 H   0  0  0  1  0  0  0  0  0  0  0  0
   -1.3562   -5.3440    1.6116 H   0  0  0  1  0  0  0  0  0  0  0  0
   -0.8072   -2.9857    1.6754 H   0  0  0  1  0  0  0  0  0  0  0  0
   -3.3995   -6.4413   -2.0933 H   0  0  0  1  0  0  0  0  0  0  0  0
   -4.5496   -7.1157   -0.9641 H   0  0  0  1  0  0  0  0  0  0  0  0
   -3.1652   -8.0558   -1.4680 H   0  0  0  1  0  0  0  0  0  0  0  0
    3.9391   -0.7273    0.2698 H   0  0  0  1  0  0  0  0  0  0  0  0
    2.9634   -3.0674   -0.8396 H   0  0  0  1  0  0  0  0  0  0  0  0
    1.7573   -4.1252    0.7719 H   0  0  0  1  0  0  0  0  0  0  0  0
    1.7607   -2.6298    1.6764 H   0  0  0  1  0  0  0  0  0  0  0  0
    2.9867   -3.8035    3.2107 H   0  0  0  1  0  0  0  0  0  0  0  0
    3.4235   -5.0339    2.0490 H   0  0  0  1  0  0  0  0  0  0  0  0
    4.7176   -2.3497    2.4902 H   0  0  0  1  0  0  0  0  0  0  0  0
    4.9788   -4.0599   -0.0467 H   0  0  0  1  0  0  0  0  0  0  0  0
    5.4189   -2.3789    0.1396 H   0  0  0  1  0  0  0  0  0  0  0  0
    6.6400   -3.7675    2.1786 H   0  0  0  1  0  0  0  0  0  0  0  0
    5.6848   -5.0503    2.1255 H   0  0  0  1  0  0  0  0  0  0  0  0
  1  2  4  0  0  0  0
  1  6  4  0  0  0  0
  1 18  1  0  0  0  0
  2  3  4  0  0  0  0
  3  4  4  0  0  0  0
  3 25  1  0  0  0  0
  4  5  4  0  0  0  0
  4  7  4  0  0  0  0
  5  6  4  0  0  0  0
  5  9  4  0  0  0  0
  7  8  4  0  0  0  0
  7 26  1  0  0  0  0
  8  9  4  0  0  0  0
  9 10  1  0  0  0  0
 10 11  4  0  0  0  0
 10 15  4  0  0  0  0
 11 12  4  0  0  0  0
 11 27  1  0  0  0  0
 12 13  4  0  0  0  0
 12 28  1  0  0  0  0
 13 14  4  0  0  0  0
 13 16  1  0  0  0  0
 14 15  4  0  0  0  0
 14 29  1  0  0  0  0
 15 30  1  0  0  0  0
 16 17  1  0  0  0  0
 17 31  1  0  0  0  0
 17 32  1  0  0  0  0
 17 33  1  0  0  0  0
 18 19  1  0  0  0  0
 18 34  1  0  0  0  0
 19 20  1  0  0  0  0
 19 23  1  0  0  0  0
 19 35  1  0  0  0  0
 20 21  1  0  0  0  0
 20 36  1  0  0  0  0
 20 37  1  0  0  0  0
 21 22  1  0  0  0  0
 21 38  1  0  0  0  0
 21 39  1  0  0  0  0
 22 23  1  0  0  0  0
 22 24  1  0  0  0  0
 22 40  1  0  0  0  0
 23 41  1  0  0  0  0
 23 42  1  0  0  0  0
 24 43  1  0  0  0  0
 24 44  1  0  0  0  0
M  END
> <ConfClashScore>
0 

> <ConfOneFourInteractionScore>
-0.985399 

> <ConfScore>
-0.0320565 

> <ConfScorePBest>
0.00316673 

> <ConfTolerance>
0.298221 

$$$$
c22.sdf
 OpenBabel04162418103D

 44 47  0  0  0  0  0  0  0  0999 V2000
    1.9452   -0.6103    0.1255 C   0  0  0  1  0  0  0  0  0  0  0  0
    2.0363    0.7233    0.1481 N   0  0  0  1  0  0  0  0  0  0  0  0
    0.8946    1.4376    0.0881 C   0  0  0  1  0  0  0  0  0  0  0  0
   -0.3452    0.7386    0.0095 C   0  0  0  1  0  0  0  0  0  0  0  0
   -0.2528   -0.6477    0.0020 C   0  0  0  1  0  0  0  0  0  0  0  0
    0.8779   -1.3913    0.0539 N   0  0  0  1  0  0  0  0  0  0  0  0
   -1.7303    0.9921   -0.0538 C   0  0  0  1  0  0  0  0  0  0  0  0
   -2.4281   -0.1191   -0.1029 N   0  0  0  1  0  0  0  0  0  0  0  0
   -1.5125   -1.1341   -0.0681 N   0  0  0  1  0  0  0  0  0  0  0  0
   -1.8396   -2.5099   -0.1011 C   0  0  0  1  0  0  0  0  0  0  0  0
   -1.0624   -3.3875   -0.8332 C   0  0  0  1  0  0  0  0  0  0  0  0
   -1.3800   -4.7365   -0.8611 C   0  0  0  1  0  0  0  0  0  0  0  0
   -2.4767   -5.2032   -0.1614 C   0  0  0  1  0  0  0  0  0  0  0  0
   -3.2561   -4.3228    0.5727 C   0  0  0  1  0  0  0  0  0  0  0  0
   -2.9397   -2.9777    0.6006 C   0  0  0  1  0  0  0  0  0  0  0  0
   -2.7899   -6.5203   -0.1930 O   0  0  0  1  0  0  0  0  0  0  0  0
   -3.9655   -6.9310    0.5159 C   0  0  0  1  0  0  0  0  0  0  0  0
    3.1214   -1.2604    0.1849 N   0  0  0  1  0  0  0  0  0  0  0  0
    4.4080   -0.5973    0.3061 C   0  0  0  1  0  0  0  0  0  0  0  0
    5.5567   -1.5685   -0.1378 C   0  0  0  1  0  0  0  0  0  0  0  0
    6.3380   -1.8451    1.1428 C   0  0  0  1  0  0  0  0  0  0  0  0
    5.4308   -1.4770    2.3231 C   0  0  0  1  0  0  0  0  0  0  0  0
    4.6713   -0.2219    1.7762 C   0  0  0  1  0  0  0  0  0  0  0  0
    6.2321   -1.1385    3.5371 N   0  0  0  1  0  0  0  0  0  0  0  0
    0.9179    2.4773    0.0987 H   0  0  0  1  0  0  0  0  0  0  0  0
   -2.1490    1.9441   -0.0608 H   0  0  0  1  0  0  0  0  0  0  0  0
   -0.2395   -3.0358   -1.3630 H   0  0  0  1  0  0  0  0  0  0  0  0
   -0.7928   -5.3976   -1.4087 H   0  0  0  1  0  0  0  0  0  0  0  0
   -4.0791   -4.6745    1.1025 H   0  0  0  1  0  0  0  0  0  0  0  0
   -3.5268   -2.3165    1.1483 H   0  0  0  1  0  0  0  0  0  0  0  0
   -3.7114   -7.1513    1.5316 H   0  0  0  1  0  0  0  0  0  0  0  0
   -4.3737   -7.8051    0.0531 H   0  0  0  1  0  0  0  0  0  0  0  0
   -4.6893   -6.1433    0.4923 H   0  0  0  1  0  0  0  0  0  0  0  0
    3.1094   -2.2395    0.1439 H   0  0  0  1  0  0  0  0  0  0  0  0
    4.4155    0.2819   -0.3036 H   0  0  0  1  0  0  0  0  0  0  0  0
    6.1832   -1.1036   -0.8701 H   0  0  0  1  0  0  0  0  0  0  0  0
    5.1524   -2.4750   -0.5373 H   0  0  0  1  0  0  0  0  0  0  0  0
    7.2263   -1.2489    1.1648 H   0  0  0  1  0  0  0  0  0  0  0  0
    6.6016   -2.8809    1.1936 H   0  0  0  1  0  0  0  0  0  0  0  0
    4.7520   -2.2714    2.5532 H   0  0  0  1  0  0  0  0  0  0  0  0
    5.2779    0.6567    1.8468 H   0  0  0  1  0  0  0  0  0  0  0  0
    3.7540   -0.0660    2.3044 H   0  0  0  1  0  0  0  0  0  0  0  0
    6.8722   -1.8582    3.7177 H   0  0  0  1  0  0  0  0  0  0  0  0
    5.6326   -1.0345    4.3054 H   0  0  0  1  0  0  0  0  0  0  0  0
  1  2  4  0  0  0  0
  1  6  4  0  0  0  0
  1 18  1  0  0  0  0
  2  3  4  0  0  0  0
  3  4  4  0  0  0  0
  3 25  1  0  0  0  0
  4  5  4  0  0  0  0
  4  7  4  0  0  0  0
  5  6  4  0  0  0  0
  5  9  4  0  0  0  0
  7  8  4  0  0  0  0
  7 26  1  0  0  0  0
  8  9  4  0  0  0  0
  9 10  1  0  0  0  0
 10 11  4  0  0  0  0
 10 15  4  0  0  0  0
 11 12  4  0  0  0  0
 11 27  1  0  0  0  0
 12 13  4  0  0  0  0
 12 28  1  0  0  0  0
 13 14  4  0  0  0  0
 13 16  1  0  0  0  0
 14 15  4  0  0  0  0
 14 29  1  0  0  0  0
 15 30  1  0  0  0  0
 16 17  1  0  0  0  0
 17 31  1  0  0  0  0
 17 32  1  0  0  0  0
 17 33  1  0  0  0  0
 18 19  1  0  0  0  0
 18 34  1  0  0  0  0
 19 20  1  0  0  0  0
 19 23  1  0  0  0  0
 19 35  1  0  0  0  0
 20 21  1  0  0  0  0
 20 36  1  0  0  0  0
 20 37  1  0  0  0  0
 21 22  1  0  0  0  0
 21 38  1  0  0  0  0
 21 39  1  0  0  0  0
 22 23  1  0  0  0  0
 22 24  1  0  0  0  0
 22 40  1  0  0  0  0
 23 41  1  0  0  0  0
 23 42  1  0  0  0  0
 24 43  1  0  0  0  0
 24 44  1  0  0  0  0
M  END
> <ConfClashScore>
0 

> <ConfOneFourInteractionScore>
-0.984337 

> <ConfScore>
-0.0301537 

> <ConfScorePBest>
0.0031534 

> <ConfTolerance>
0.285009 

$$$$
c22.sdf
 OpenBabel04162418103D

 44 47  0  0  0  0  0  0  0  0999 V2000
    1.9452   -0.6102    0.1255 C   0  0  0  1  0  0  0  0  0  0  0  0
    2.0363    0.7233    0.1482 N   0  0  0  1  0  0  0  0  0  0  0  0
    0.8945    1.4375    0.0881 C   0  0  0  1  0  0  0  0  0  0  0  0
   -0.3453    0.7386    0.0096 C   0  0  0  1  0  0  0  0  0  0  0  0
   -0.2529   -0.6477    0.0020 C   0  0  0  1  0  0  0  0  0  0  0  0
    0.8779   -1.3912    0.0539 N   0  0  0  1  0  0  0  0  0  0  0  0
   -1.7303    0.9921   -0.0538 C   0  0  0  1  0  0  0  0  0  0  0  0
   -2.4282   -0.1191   -0.1029 N   0  0  0  1  0  0  0  0  0  0  0  0
   -1.5125   -1.1341   -0.0681 N   0  0  0  1  0  0  0  0  0  0  0  0
   -1.8419   -2.5193   -0.1014 C   0  0  0  1  0  0  0  0  0  0  0  0
   -1.4947   -3.3386    0.9561 C   0  0  0  1  0  0  0  0  0  0  0  0
   -1.7371   -4.7016    0.8852 C   0  0  0  1  0  0  0  0  0  0  0  0
   -2.3211   -5.2420   -0.2450 C   0  0  0  1  0  0  0  0  0  0  0  0
   -2.6692   -4.4199   -1.3055 C   0  0  0  1  0  0  0  0  0  0  0  0
   -2.4276   -3.0610   -1.2350 C   0  0  0  1  0  0  0  0  0  0  0  0
   -2.4667   -6.5836   -0.3578 O   0  0  0  1  0  0  0  0  0  0  0  0
   -3.1215   -7.0757   -1.5374 C   0  0  0  1  0  0  0  0  0  0  0  0
    3.1161   -1.2576    0.1847 N   0  0  0  1  0  0  0  0  0  0  0  0
    4.4593   -0.7087    0.3934 C   0  0  0  1  0  0  0  0  0  0  0  0
    5.4472   -1.7957    0.8361 C   0  0  0  1  0  0  0  0  0  0  0  0
    5.1406   -2.0188    2.3118 C   0  0  0  1  0  0  0  0  0  0  0  0
    4.6146   -0.6736    2.8256 C   0  0  0  1  0  0  0  0  0  0  0  0
    4.4963    0.2394    1.5950 C   0  0  0  1  0  0  0  0  0  0  0  0
    5.5700   -0.0876    3.8153 N   0  0  0  1  0  0  0  0  0  0  0  0
    0.9179    2.4773    0.0988 H   0  0  0  1  0  0  0  0  0  0  0  0
   -2.1489    1.9441   -0.0608 H   0  0  0  1  0  0  0  0  0  0  0  0
   -1.0516   -2.9326    1.8048 H   0  0  0  1  0  0  0  0  0  0  0  0
   -1.4796   -5.3177    1.6826 H   0  0  0  1  0  0  0  0  0  0  0  0
   -3.1123   -4.8259   -2.1543 H   0  0  0  1  0  0  0  0  0  0  0  0
   -2.6851   -2.4449   -2.0322 H   0  0  0  1  0  0  0  0  0  0  0  0
   -4.1821   -7.0077   -1.4119 H   0  0  0  1  0  0  0  0  0  0  0  0
   -2.8465   -8.0971   -1.6979 H   0  0  0  1  0  0  0  0  0  0  0  0
   -2.8241   -6.4889   -2.3812 H   0  0  0  1  0  0  0  0  0  0  0  0
    3.0687   -2.2302    0.0733 H   0  0  0  1  0  0  0  0  0  0  0  0
    4.7886   -0.2210   -0.5002 H   0  0  0  1  0  0  0  0  0  0  0  0
    6.4562   -1.4639    0.7064 H   0  0  0  1  0  0  0  0  0  0  0  0
    5.2927   -2.6958    0.2784 H   0  0  0  1  0  0  0  0  0  0  0  0
    6.0276   -2.3003    2.8400 H   0  0  0  1  0  0  0  0  0  0  0  0
    4.3983   -2.7805    2.4288 H   0  0  0  1  0  0  0  0  0  0  0  0
    3.6571   -0.8013    3.2859 H   0  0  0  1  0  0  0  0  0  0  0  0
    5.3405    0.8935    1.5308 H   0  0  0  1  0  0  0  0  0  0  0  0
    3.5981    0.8191    1.6431 H   0  0  0  1  0  0  0  0  0  0  0  0
    6.3929    0.1813    3.3561 H   0  0  0  1  0  0  0  0  0  0  0  0
    5.7817   -0.7561    4.5000 H   0  0  0  1  0  0  0  0  0  0  0  0
  1  2  4  0  0  0  0
  1  6  4  0  0  0  0
  1 18  1  0  0  0  0
  2  3  4  0  0  0  0
  3  4  4  0  0  0  0
  3 25  1  0  0  0  0
  4  5  4  0  0  0  0
  4  7  4  0  0  0  0
  5  6  4  0  0  0  0
  5  9  4  0  0  0  0
  7  8  4  0  0  0  0
  7 26  1  0  0  0  0
  8  9  4  0  0  0  0
  9 10  1  0  0  0  0
 10 11  4  0  0  0  0
 10 15  4  0  0  0  0
 11 12  4  0  0  0  0
 11 27  1  0  0  0  0
 12 13  4  0  0  0  0
 12 28  1  0  0  0  0
 13 14  4  0  0  0  0
 13 16  1  0  0  0  0
 14 15  4  0  0  0  0
 14 29  1  0  0  0  0
 15 30  1  0  0  0  0
 16 17  1  0  0  0  0
 17 31  1  0  0  0  0
 17 32  1  0  0  0  0
 17 33  1  0  0  0  0
 18 19  1  0  0  0  0
 18 34  1  0  0  0  0
 19 20  1  0  0  0  0
 19 23  1  0  0  0  0
 19 35  1  0  0  0  0
 20 21  1  0  0  0  0
 20 36  1  0  0  0  0
 20 37  1  0  0  0  0
 21 22  1  0  0  0  0
 21 38  1  0  0  0  0
 21 39  1  0  0  0  0
 22 23  1  0  0  0  0
 22 24  1  0  0  0  0
 22 40  1  0  0  0  0
 23 41  1  0  0  0  0
 23 42  1  0  0  0  0
 24 43  1  0  0  0  0
 24 44  1  0  0  0  0
M  END
> <ConfClashScore>
0 

> <ConfOneFourInteractionScore>
-0.985399 

> <ConfScore>
-0.029883 

> <ConfScorePBest>
0.00314007 

> <ConfTolerance>
0.358507 

$$$$
c22.sdf
 OpenBabel04162418103D

 44 47  0  0  0  0  0  0  0  0999 V2000
    1.9452   -0.6102    0.1254 C   0  0  0  1  0  0  0  0  0  0  0  0
    2.0363    0.7233    0.1480 N   0  0  0  1  0  0  0  0  0  0  0  0
    0.8946    1.4376    0.0881 C   0  0  0  1  0  0  0  0  0  0  0  0
   -0.3453    0.7386    0.0095 C   0  0  0  1  0  0  0  0  0  0  0  0
   -0.2528   -0.6478    0.0019 C   0  0  0  1  0  0  0  0  0  0  0  0
    0.8779   -1.3912    0.0538 N   0  0  0  1  0  0  0  0  0  0  0  0
   -1.7303    0.9921   -0.0538 C   0  0  0  1  0  0  0  0  0  0  0  0
   -2.4281   -0.1192   -0.1028 N   0  0  0  1  0  0  0  0  0  0  0  0
   -1.5126   -1.1342   -0.0681 N   0  0  0  1  0  0  0  0  0  0  0  0
   -1.8419   -2.5192   -0.1014 C   0  0  0  1  0  0  0  0  0  0  0  0
   -1.9340   -3.2360    1.0767 C   0  0  0  1  0  0  0  0  0  0  0  0
   -2.2599   -4.5829    1.0446 C   0  0  0  1  0  0  0  0  0  0  0  0
   -2.4874   -5.2104   -0.1656 C   0  0  0  1  0  0  0  0  0  0  0  0
   -2.3948   -4.4914   -1.3472 C   0  0  0  1  0  0  0  0  0  0  0  0
   -2.0700   -3.1484   -1.3153 C   0  0  0  1  0  0  0  0  0  0  0  0
   -2.8063   -6.5173   -0.3218 O   0  0  0  1  0  0  0  0  0  0  0  0
   -2.7856   -7.3427    0.8533 C   0  0  0  1  0  0  0  0  0  0  0  0
    3.1213   -1.2604    0.1847 N   0  0  0  1  0  0  0  0  0  0  0  0
    4.4222   -0.5903    0.2653 C   0  0  0  1  0  0  0  0  0  0  0  0
    4.8374    0.0116   -1.1190 C   0  0  0  1  0  0  0  0  0  0  0  0
    5.3714   -1.2172   -1.8781 C   0  0  0  1  0  0  0  0  0  0  0  0
    5.9354   -2.2149   -0.8074 C   0  0  0  1  0  0  0  0  0  0  0  0
    5.5498   -1.5950    0.5318 C   0  0  0  1  0  0  0  0  0  0  0  0
    7.4211   -2.3338   -0.9265 N   0  0  0  1  0  0  0  0  0  0  0  0
    0.9179    2.4772    0.0987 H   0  0  0  1  0  0  0  0  0  0  0  0
   -2.1490    1.9440   -0.0607 H   0  0  0  1  0  0  0  0  0  0  0  0
   -1.7590   -2.7648    1.9871 H   0  0  0  1  0  0  0  0  0  0  0  0
   -2.3332   -5.1214    1.9314 H   0  0  0  1  0  0  0  0  0  0  0  0
   -2.5700   -4.9625   -2.2577 H   0  0  0  1  0  0  0  0  0  0  0  0
   -1.9967   -2.6099   -2.2020 H   0  0  0  1  0  0  0  0  0  0  0  0
   -3.2695   -8.2739    0.6442 H   0  0  0  1  0  0  0  0  0  0  0  0
   -3.2999   -6.8442    1.6482 H   0  0  0  1  0  0  0  0  0  0  0  0
   -1.7718   -7.5251    1.1429 H   0  0  0  1  0  0  0  0  0  0  0  0
    3.1075   -2.2403    0.1734 H   0  0  0  1  0  0  0  0  0  0  0  0
    4.3885    0.1651    1.0225 H   0  0  0  1  0  0  0  0  0  0  0  0
    3.9951    0.4390   -1.6217 H   0  0  0  1  0  0  0  0  0  0  0  0
    5.5991    0.7542   -1.0035 H   0  0  0  1  0  0  0  0  0  0  0  0
    6.1500   -0.9227   -2.5504 H   0  0  0  1  0  0  0  0  0  0  0  0
    4.5797   -1.6800   -2.4292 H   0  0  0  1  0  0  0  0  0  0  0  0
    5.4897   -3.1813   -0.9191 H   0  0  0  1  0  0  0  0  0  0  0  0
    6.3930   -1.0932    0.9585 H   0  0  0  1  0  0  0  0  0  0  0  0
    5.2099   -2.3561    1.2027 H   0  0  0  1  0  0  0  0  0  0  0  0
    7.8184   -1.4391   -0.9714 H   0  0  0  1  0  0  0  0  0  0  0  0
    7.6446   -2.8315   -1.7406 H   0  0  0  1  0  0  0  0  0  0  0  0
  1  2  4  0  0  0  0
  1  6  4  0  0  0  0
  1 18  1  0  0  0  0
  2  3  4  0  0  0  0
  3  4  4  0  0  0  0
  3 25  1  0  0  0  0
  4  5  4  0  0  0  0
  4  7  4  0  0  0  0
  5  6  4  0  0  0  0
  5  9  4  0  0  0  0
  7  8  4  0  0  0  0
  7 26  1  0  0  0  0
  8  9  4  0  0  0  0
  9 10  1  0  0  0  0
 10 11  4  0  0  0  0
 10 15  4  0  0  0  0
 11 12  4  0  0  0  0
 11 27  1  0  0  0  0
 12 13  4  0  0  0  0
 12 28  1  0  0  0  0
 13 14  4  0  0  0  0
 13 16  1  0  0  0  0
 14 15  4  0  0  0  0
 14 29  1  0  0  0  0
 15 30  1  0  0  0  0
 16 17  1  0  0  0  0
 17 31  1  0  0  0  0
 17 32  1  0  0  0  0
 17 33  1  0  0  0  0
 18 19  1  0  0  0  0
 18 34  1  0  0  0  0
 19 20  1  0  0  0  0
 19 23  1  0  0  0  0
 19 35  1  0  0  0  0
 20 21  1  0  0  0  0
 20 36  1  0  0  0  0
 20 37  1  0  0  0  0
 21 22  1  0  0  0  0
 21 38  1  0  0  0  0
 21 39  1  0  0  0  0
 22 23  1  0  0  0  0
 22 24  1  0  0  0  0
 22 40  1  0  0  0  0
 23 41  1  0  0  0  0
 23 42  1  0  0  0  0
 24 43  1  0  0  0  0
 24 44  1  0  0  0  0
M  END
> <ConfClashScore>
0 

> <ConfOneFourInteractionScore>
-0.984337 

> <ConfScore>
-0.0291101 

> <ConfScorePBest>
0.00312675 

> <ConfTolerance>
0.295226 

$$$$
c22.sdf
 OpenBabel04162418103D

 44 47  0  0  0  0  0  0  0  0999 V2000
    1.9453   -0.6102    0.1257 C   0  0  0  1  0  0  0  0  0  0  0  0
    2.0363    0.7232    0.1483 N   0  0  0  1  0  0  0  0  0  0  0  0
    0.8946    1.4376    0.0881 C   0  0  0  1  0  0  0  0  0  0  0  0
   -0.3452    0.7385    0.0096 C   0  0  0  1  0  0  0  0  0  0  0  0
   -0.2528   -0.6477    0.0020 C   0  0  0  1  0  0  0  0  0  0  0  0
    0.8779   -1.3913    0.0540 N   0  0  0  1  0  0  0  0  0  0  0  0
   -1.7304    0.9921   -0.0538 C   0  0  0  1  0  0  0  0  0  0  0  0
   -2.4281   -0.1191   -0.1029 N   0  0  0  1  0  0  0  0  0  0  0  0
   -1.5125   -1.1342   -0.0681 N   0  0  0  1  0  0  0  0  0  0  0  0
   -1.8385   -2.5051   -0.1010 C   0  0  0  1  0  0  0  0  0  0  0  0
   -1.2160   -3.3937   -0.9572 C   0  0  0  1  0  0  0  0  0  0  0  0
   -1.5718   -4.7333   -0.9442 C   0  0  0  1  0  0  0  0  0  0  0  0
   -2.5529   -5.1796   -0.0790 C   0  0  0  1  0  0  0  0  0  0  0  0
   -3.1772   -4.2883    0.7797 C   0  0  0  1  0  0  0  0  0  0  0  0
   -2.8225   -2.9524    0.7668 C   0  0  0  1  0  0  0  0  0  0  0  0
   -2.8565   -6.4953   -0.1197 O   0  0  0  1  0  0  0  0  0  0  0  0
   -3.7385   -7.0484    0.8695 C   0  0  0  1  0  0  0  0  0  0  0  0
    3.1380   -1.2697    0.1859 N   0  0  0  1  0  0  0  0  0  0  0  0
    3.2062   -2.7288    0.2781 C   0  0  0  1  0  0  0  0  0  0  0  0
    4.6294   -3.2291    0.0717 C   0  0  0  1  0  0  0  0  0  0  0  0
    4.5159   -4.6717   -0.4018 C   0  0  0  1  0  0  0  0  0  0  0  0
    3.0845   -4.8352   -0.9171 C   0  0  0  1  0  0  0  0  0  0  0  0
    2.4378   -3.4127   -0.9140 C   0  0  0  1  0  0  0  0  0  0  0  0
    2.3251   -5.7409   -0.0302 N   0  0  0  1  0  0  0  0  0  0  0  0
    0.9179    2.4772    0.0988 H   0  0  0  1  0  0  0  0  0  0  0  0
   -2.1489    1.9441   -0.0608 H   0  0  0  1  0  0  0  0  0  0  0  0
   -0.4806   -3.0572   -1.6111 H   0  0  0  1  0  0  0  0  0  0  0  0
   -1.1005   -5.4027   -1.5856 H   0  0  0  1  0  0  0  0  0  0  0  0
   -3.9126   -4.6246    1.4337 H   0  0  0  1  0  0  0  0  0  0  0  0
   -3.2937   -2.2830    1.4083 H   0  0  0  1  0  0  0  0  0  0  0  0
   -3.6721   -8.1162    0.8501 H   0  0  0  1  0  0  0  0  0  0  0  0
   -4.7439   -6.7499    0.6574 H   0  0  0  1  0  0  0  0  0  0  0  0
   -3.4566   -6.6913    1.8380 H   0  0  0  1  0  0  0  0  0  0  0  0
    3.9705   -0.7530    0.1669 H   0  0  0  1  0  0  0  0  0  0  0  0
    2.8168   -3.0456    1.2231 H   0  0  0  1  0  0  0  0  0  0  0  0
    5.1262   -2.6356   -0.6671 H   0  0  0  1  0  0  0  0  0  0  0  0
    5.1741   -3.1838    0.9915 H   0  0  0  1  0  0  0  0  0  0  0  0
    5.2175   -4.8615   -1.1870 H   0  0  0  1  0  0  0  0  0  0  0  0
    4.6977   -5.3447    0.4100 H   0  0  0  1  0  0  0  0  0  0  0  0
    3.0939   -5.2331   -1.9103 H   0  0  0  1  0  0  0  0  0  0  0  0
    1.3857   -3.4610   -0.7255 H   0  0  0  1  0  0  0  0  0  0  0  0
    2.6122   -2.9011   -1.8374 H   0  0  0  1  0  0  0  0  0  0  0  0
    2.3280   -5.3834    0.8823 H   0  0  0  1  0  0  0  0  0  0  0  0
    2.7423   -6.6276   -0.0347 H   0  0  0  1  0  0  0  0  0  0  0  0
  1  2  4  0  0  0  0
  1  6  4  0  0  0  0
  1 18  1  0  0  0  0
  2  3  4  0  0  0  0
  3  4  4  0  0  0  0
  3 25  1  0  0  0  0
  4  5  4  0  0  0  0
  4  7  4  0  0  0  0
  5  6  4  0  0  0  0
  5  9  4  0  0  0  0
  7  8  4  0  0  0  0
  7 26  1  0  0  0  0
  8  9  4  0  0  0  0
  9 10  1  0  0  0  0
 10 11  4  0  0  0  0
 10 15  4  0  0  0  0
 11 12  4  0  0  0  0
 11 27  1  0  0  0  0
 12 13  4  0  0  0  0
 12 28  1  0  0  0  0
 13 14  4  0  0  0  0
 13 16  1  0  0  0  0
 14 15  4  0  0  0  0
 14 29  1  0  0  0  0
 15 30  1  0  0  0  0
 16 17  1  0  0  0  0
 17 31  1  0  0  0  0
 17 32  1  0  0  0  0
 17 33  1  0  0  0  0
 18 19  1  0  0  0  0
 18 34  1  0  0  0  0
 19 20  1  0  0  0  0
 19 23  1  0  0  0  0
 19 35  1  0  0  0  0
 20 21  1  0  0  0  0
 20 36  1  0  0  0  0
 20 37  1  0  0  0  0
 21 22  1  0  0  0  0
 21 38  1  0  0  0  0
 21 39  1  0  0  0  0
 22 23  1  0  0  0  0
 22 24  1  0  0  0  0
 22 40  1  0  0  0  0
 23 41  1  0  0  0  0
 23 42  1  0  0  0  0
 24 43  1  0  0  0  0
 24 44  1  0  0  0  0
M  END
> <ConfClashScore>
0 

> <ConfOneFourInteractionScore>
-0.985399 

> <ConfScore>
-0.0277886 

> <ConfScorePBest>
0.00311342 

> <ConfTolerance>
0.348909 

$$$$
c22.sdf
 OpenBabel04162418103D

 44 47  0  0  0  0  0  0  0  0999 V2000
    1.9452   -0.6101    0.1255 C   0  0  0  1  0  0  0  0  0  0  0  0
    2.0363    0.7234    0.1480 N   0  0  0  1  0  0  0  0  0  0  0  0
    0.8946    1.4376    0.0881 C   0  0  0  1  0  0  0  0  0  0  0  0
   -0.3453    0.7386    0.0095 C   0  0  0  1  0  0  0  0  0  0  0  0
   -0.2528   -0.6477    0.0020 C   0  0  0  1  0  0  0  0  0  0  0  0
    0.8780   -1.3912    0.0539 N   0  0  0  1  0  0  0  0  0  0  0  0
   -1.7304    0.9921   -0.0538 C   0  0  0  1  0  0  0  0  0  0  0  0
   -2.4281   -0.1191   -0.1029 N   0  0  0  1  0  0  0  0  0  0  0  0
   -1.5125   -1.1341   -0.0681 N   0  0  0  1  0  0  0  0  0  0  0  0
   -1.8419   -2.5192   -0.1013 C   0  0  0  1  0  0  0  0  0  0  0  0
   -1.3654   -3.3184   -1.1233 C   0  0  0  1  0  0  0  0  0  0  0  0
   -1.6815   -4.6676   -1.1526 C   0  0  0  1  0  0  0  0  0  0  0  0
   -2.4777   -5.2127   -0.1630 C   0  0  0  1  0  0  0  0  0  0  0  0
   -2.9554   -4.4111    0.8620 C   0  0  0  1  0  0  0  0  0  0  0  0
   -2.6403   -3.0657    0.8914 C   0  0  0  1  0  0  0  0  0  0  0  0
   -2.8681   -6.4997   -0.2435 O   0  0  0  1  0  0  0  0  0  0  0  0
   -3.8962   -6.8874    0.6973 C   0  0  0  1  0  0  0  0  0  0  0  0
    3.1162   -1.2575    0.1846 N   0  0  0  1  0  0  0  0  0  0  0  0
    4.4565   -0.7117    0.4208 C   0  0  0  1  0  0  0  0  0  0  0  0
    5.4965   -1.8382    0.4204 C   0  0  0  1  0  0  0  0  0  0  0  0
    6.0280   -1.8979    1.8470 C   0  0  0  1  0  0  0  0  0  0  0  0
    5.8961   -0.4622    2.3718 C   0  0  0  1  0  0  0  0  0  0  0  0
    4.5290   -0.0610    1.8112 C   0  0  0  1  0  0  0  0  0  0  0  0
    6.9746    0.4086    1.8461 N   0  0  0  1  0  0  0  0  0  0  0  0
    0.9178    2.4773    0.0988 H   0  0  0  1  0  0  0  0  0  0  0  0
   -2.1490    1.9441   -0.0608 H   0  0  0  1  0  0  0  0  0  0  0  0
   -0.7697   -2.9075   -1.8702 H   0  0  0  1  0  0  0  0  0  0  0  0
   -1.3197   -5.2699   -1.9195 H   0  0  0  1  0  0  0  0  0  0  0  0
   -3.5512   -4.8220    1.6089 H   0  0  0  1  0  0  0  0  0  0  0  0
   -3.0021   -2.4634    1.6582 H   0  0  0  1  0  0  0  0  0  0  0  0
   -4.6647   -6.1430    0.7135 H   0  0  0  1  0  0  0  0  0  0  0  0
   -3.4691   -6.9800    1.6740 H   0  0  0  1  0  0  0  0  0  0  0  0
   -4.3154   -7.8260    0.4004 H   0  0  0  1  0  0  0  0  0  0  0  0
    3.0712   -2.2275    0.0520 H   0  0  0  1  0  0  0  0  0  0  0  0
    4.6881    0.0070   -0.3373 H   0  0  0  1  0  0  0  0  0  0  0  0
    5.0408   -2.7682    0.1516 H   0  0  0  1  0  0  0  0  0  0  0  0
    6.2878   -1.6168   -0.2650 H   0  0  0  1  0  0  0  0  0  0  0  0
    7.0514   -2.2100    1.8555 H   0  0  0  1  0  0  0  0  0  0  0  0
    5.4443   -2.5711    2.4393 H   0  0  0  1  0  0  0  0  0  0  0  0
    5.9040   -0.4343    3.4415 H   0  0  0  1  0  0  0  0  0  0  0  0
    4.4540    1.0034    1.7316 H   0  0  0  1  0  0  0  0  0  0  0  0
    3.7440   -0.4285    2.4386 H   0  0  0  1  0  0  0  0  0  0  0  0
    6.9166    0.4469    0.8685 H   0  0  0  1  0  0  0  0  0  0  0  0
    7.8456    0.0434    2.1074 H   0  0  0  1  0  0  0  0  0  0  0  0
  1  2  4  0  0  0  0
  1  6  4  0  0  0  0
  1 18  1  0  0  0  0
  2  3  4  0  0  0  0
  3  4  4  0  0  0  0
  3 25  1  0  0  0  0
  4  5  4  0  0  0  0
  4  7  4  0  0  0  0
  5  6  4  0  0  0  0
  5  9  4  0  0  0  0
  7  8  4  0  0  0  0
  7 26  1  0  0  0  0
  8  9  4  0  0  0  0
  9 10  1  0  0  0  0
 10 11  4  0  0  0  0
 10 15  4  0  0  0  0
 11 12  4  0  0  0  0
 11 27  1  0  0  0  0
 12 13  4  0  0  0  0
 12 28  1  0  0  0  0
 13 14  4  0  0  0  0
 13 16  1  0  0  0  0
 14 15  4  0  0  0  0
 14 29  1  0  0  0  0
 15 30  1  0  0  0  0
 16 17  1  0  0  0  0
 17 31  1  0  0  0  0
 17 32  1  0  0  0  0
 17 33  1  0  0  0  0
 18 19  1  0  0  0  0
 18 34  1  0  0  0  0
 19 20  1  0  0  0  0
 19 23  1  0  0  0  0
 19 35  1  0  0  0  0
 20 21  1  0  0  0  0
 20 36  1  0  0  0  0
 20 37  1  0  0  0  0
 21 22  1  0  0  0  0
 21 38  1  0  0  0  0
 21 39  1  0  0  0  0
 22 23  1  0  0  0  0
 22 24  1  0  0  0  0
 22 40  1  0  0  0  0
 23 41  1  0  0  0  0
 23 42  1  0  0  0  0
 24 43  1  0  0  0  0
 24 44  1  0  0  0  0
M  END
> <ConfClashScore>
0 

> <ConfOneFourInteractionScore>
-0.985399 

> <ConfScore>
-0.0277886 

> <ConfScorePBest>
0.00310009 

> <ConfTolerance>
0.409076 

$$$$
c22.sdf
 OpenBabel04162418103D

 44 47  0  0  0  0  0  0  0  0999 V2000
    1.9452   -0.6103    0.1255 C   0  0  0  1  0  0  0  0  0  0  0  0
    2.0363    0.7233    0.1480 N   0  0  0  1  0  0  0  0  0  0  0  0
    0.8946    1.4376    0.0881 C   0  0  0  1  0  0  0  0  0  0  0  0
   -0.3452    0.7386    0.0096 C   0  0  0  1  0  0  0  0  0  0  0  0
   -0.2528   -0.6478    0.0020 C   0  0  0  1  0  0  0  0  0  0  0  0
    0.8779   -1.3913    0.0538 N   0  0  0  1  0  0  0  0  0  0  0  0
   -1.7303    0.9920   -0.0538 C   0  0  0  1  0  0  0  0  0  0  0  0
   -2.4282   -0.1191   -0.1028 N   0  0  0  1  0  0  0  0  0  0  0  0
   -1.5125   -1.1341   -0.0681 N   0  0  0  1  0  0  0  0  0  0  0  0
   -1.8397   -2.5099   -0.1011 C   0  0  0  1  0  0  0  0  0  0  0  0
   -2.6288   -3.0053    0.9197 C   0  0  0  1  0  0  0  0  0  0  0  0
   -2.9838   -4.3451    0.9334 C   0  0  0  1  0  0  0  0  0  0  0  0
   -2.5442   -5.1869   -0.0709 C   0  0  0  1  0  0  0  0  0  0  0  0
   -1.7527   -4.6899   -1.0947 C   0  0  0  1  0  0  0  0  0  0  0  0
   -1.3988   -3.3539   -1.1084 C   0  0  0  1  0  0  0  0  0  0  0  0
   -2.8178   -6.4922    0.0369 O   0  0  0  1  0  0  0  0  0  0  0  0
   -3.5653   -7.0315    1.1784 C   0  0  0  1  0  0  0  0  0  0  0  0
    3.1544   -1.2788    0.1864 N   0  0  0  1  0  0  0  0  0  0  0  0
    3.1505   -2.7230   -0.0518 C   0  0  0  1  0  0  0  0  0  0  0  0
    4.5316   -3.3332    0.3183 C   0  0  0  1  0  0  0  0  0  0  0  0
    5.1643   -3.8227   -0.9964 C   0  0  0  1  0  0  0  0  0  0  0  0
    4.3930   -3.1174   -2.1286 C   0  0  0  1  0  0  0  0  0  0  0  0
    2.9315   -3.0206   -1.5734 C   0  0  0  1  0  0  0  0  0  0  0  0
    4.4334   -3.9174   -3.3740 N   0  0  0  1  0  0  0  0  0  0  0  0
    0.9179    2.4772    0.0988 H   0  0  0  1  0  0  0  0  0  0  0  0
   -2.1489    1.9441   -0.0608 H   0  0  0  1  0  0  0  0  0  0  0  0
   -2.9563   -2.3727    1.6775 H   0  0  0  1  0  0  0  0  0  0  0  0
   -3.5809   -4.7170    1.6994 H   0  0  0  1  0  0  0  0  0  0  0  0
   -1.4253   -5.3224   -1.8526 H   0  0  0  1  0  0  0  0  0  0  0  0
   -0.8016   -2.9820   -1.8744 H   0  0  0  1  0  0  0  0  0  0  0  0
   -3.5585   -8.1007    1.1369 H   0  0  0  1  0  0  0  0  0  0  0  0
   -4.5752   -6.6799    1.1414 H   0  0  0  1  0  0  0  0  0  0  0  0
   -3.1075   -6.7073    2.0896 H   0  0  0  1  0  0  0  0  0  0  0  0
    3.9872   -0.8010    0.3828 H   0  0  0  1  0  0  0  0  0  0  0  0
    2.3765   -3.1788    0.5298 H   0  0  0  1  0  0  0  0  0  0  0  0
    5.1533   -2.5903    0.7726 H   0  0  0  1  0  0  0  0  0  0  0  0
    4.4035   -4.1532    0.9937 H   0  0  0  1  0  0  0  0  0  0  0  0
    5.0641   -4.8844   -1.0840 H   0  0  0  1  0  0  0  0  0  0  0  0
    6.2002   -3.5575   -1.0314 H   0  0  0  1  0  0  0  0  0  0  0  0
    4.7955   -2.1439   -2.3162 H   0  0  0  1  0  0  0  0  0  0  0  0
    2.3925   -2.2265   -2.0465 H   0  0  0  1  0  0  0  0  0  0  0  0
    2.4056   -3.9420   -1.7130 H   0  0  0  1  0  0  0  0  0  0  0  0
    4.1054   -4.8228   -3.1921 H   0  0  0  1  0  0  0  0  0  0  0  0
    5.3557   -3.9644   -3.7021 H   0  0  0  1  0  0  0  0  0  0  0  0
  1  2  4  0  0  0  0
  1  6  4  0  0  0  0
  1 18  1  0  0  0  0
  2  3  4  0  0  0  0
  3  4  4  0  0  0  0
  3 25  1  0  0  0  0
  4  5  4  0  0  0  0
  4  7  4  0  0  0  0
  5  6  4  0  0  0  0
  5  9  4  0  0  0  0
  7  8  4  0  0  0  0
  7 26  1  0  0  0  0
  8  9  4  0  0  0  0
  9 10  1  0  0  0  0
 10 11  4  0  0  0  0
 10 15  4  0  0  0  0
 11 12  4  0  0  0  0
 11 27  1  0  0  0  0
 12 13  4  0  0  0  0
 12 28  1  0  0  0  0
 13 14  4  0  0  0  0
 13 16  1  0  0  0  0
 14 15  4  0  0  0  0
 14 29  1  0  0  0  0
 15 30  1  0  0  0  0
 16 17  1  0  0  0  0
 17 31  1  0  0  0  0
 17 32  1  0  0  0  0
 17 33  1  0  0  0  0
 18 19  1  0  0  0  0
 18 34  1  0  0  0  0
 19 20  1  0  0  0  0
 19 23  1  0  0  0  0
 19 35  1  0  0  0  0
 20 21  1  0  0  0  0
 20 36  1  0  0  0  0
 20 37  1  0  0  0  0
 21 22  1  0  0  0  0
 21 38  1  0  0  0  0
 21 39  1  0  0  0  0
 22 23  1  0  0  0  0
 22 24  1  0  0  0  0
 22 40  1  0  0  0  0
 23 41  1  0  0  0  0
 23 42  1  0  0  0  0
 24 43  1  0  0  0  0
 24 44  1  0  0  0  0
M  END
> <ConfClashScore>
0 

> <ConfOneFourInteractionScore>
-0.981848 

> <ConfScore>
-0.0277886 

> <ConfScorePBest>
0.00308676 

> <ConfTolerance>
0.371066 

$$$$
c22.sdf
 OpenBabel04162418103D

 44 47  0  0  0  0  0  0  0  0999 V2000
    1.9452   -0.6102    0.1256 C   0  0  0  1  0  0  0  0  0  0  0  0
    2.0363    0.7233    0.1482 N   0  0  0  1  0  0  0  0  0  0  0  0
    0.8945    1.4376    0.0881 C   0  0  0  1  0  0  0  0  0  0  0  0
   -0.3452    0.7386    0.0096 C   0  0  0  1  0  0  0  0  0  0  0  0
   -0.2528   -0.6478    0.0020 C   0  0  0  1  0  0  0  0  0  0  0  0
    0.8780   -1.3913    0.0538 N   0  0  0  1  0  0  0  0  0  0  0  0
   -1.7303    0.9921   -0.0538 C   0  0  0  1  0  0  0  0  0  0  0  0
   -2.4281   -0.1192   -0.1029 N   0  0  0  1  0  0  0  0  0  0  0  0
   -1.5125   -1.1342   -0.0681 N   0  0  0  1  0  0  0  0  0  0  0  0
   -1.8421   -2.5202   -0.1015 C   0  0  0  1  0  0  0  0  0  0  0  0
   -2.5512   -3.0828    0.9430 C   0  0  0  1  0  0  0  0  0  0  0  0
   -2.9589   -4.4056    0.8706 C   0  0  0  1  0  0  0  0  0  0  0  0
   -2.6518   -5.1637   -0.2436 C   0  0  0  1  0  0  0  0  0  0  0  0
   -1.9406   -4.5992   -1.2911 C   0  0  0  1  0  0  0  0  0  0  0  0
   -1.5340   -3.2802   -1.2190 C   0  0  0  1  0  0  0  0  0  0  0  0
   -2.9908   -6.4622   -0.4243 O   0  0  0  1  0  0  0  0  0  0  0  0
   -3.8695   -7.0522    0.5464 C   0  0  0  1  0  0  0  0  0  0  0  0
    3.1214   -1.2604    0.1849 N   0  0  0  1  0  0  0  0  0  0  0  0
    3.2457   -2.7057    0.3801 C   0  0  0  1  0  0  0  0  0  0  0  0
    4.7428   -3.1597    0.3217 C   0  0  0  1  0  0  0  0  0  0  0  0
    5.0251   -3.2085   -1.1913 C   0  0  0  1  0  0  0  0  0  0  0  0
    3.6660   -3.5265   -1.9068 C   0  0  0  1  0  0  0  0  0  0  0  0
    2.6276   -3.4802   -0.7904 C   0  0  0  1  0  0  0  0  0  0  0  0
    3.7044   -4.8662   -2.5291 N   0  0  0  1  0  0  0  0  0  0  0  0
    0.9179    2.4772    0.0988 H   0  0  0  1  0  0  0  0  0  0  0  0
   -2.1490    1.9441   -0.0608 H   0  0  0  1  0  0  0  0  0  0  0  0
   -2.7788   -2.5137    1.7832 H   0  0  0  1  0  0  0  0  0  0  0  0
   -3.4959   -4.8278    1.6548 H   0  0  0  1  0  0  0  0  0  0  0  0
   -1.7130   -5.1683   -2.1313 H   0  0  0  1  0  0  0  0  0  0  0  0
   -0.9970   -2.8580   -2.0032 H   0  0  0  1  0  0  0  0  0  0  0  0
   -3.4511   -6.9356    1.5243 H   0  0  0  1  0  0  0  0  0  0  0  0
   -3.9896   -8.0936    0.3320 H   0  0  0  1  0  0  0  0  0  0  0  0
   -4.8224   -6.5671    0.5061 H   0  0  0  1  0  0  0  0  0  0  0  0
    3.9436   -0.7353    0.0919 H   0  0  0  1  0  0  0  0  0  0  0  0
    2.7927   -2.9809    1.3096 H   0  0  0  1  0  0  0  0  0  0  0  0
    4.8711   -4.1233    0.7690 H   0  0  0  1  0  0  0  0  0  0  0  0
    5.3796   -2.4518    0.8100 H   0  0  0  1  0  0  0  0  0  0  0  0
    5.7403   -3.9747   -1.4061 H   0  0  0  1  0  0  0  0  0  0  0  0
    5.4023   -2.2642   -1.5243 H   0  0  0  1  0  0  0  0  0  0  0  0
    3.4510   -2.7915   -2.6541 H   0  0  0  1  0  0  0  0  0  0  0  0
    1.7449   -2.9818   -1.1329 H   0  0  0  1  0  0  0  0  0  0  0  0
    2.3794   -4.4738   -0.4807 H   0  0  0  1  0  0  0  0  0  0  0  0
    3.7671   -5.5500   -1.8300 H   0  0  0  1  0  0  0  0  0  0  0  0
    4.4844   -4.9299   -3.1190 H   0  0  0  1  0  0  0  0  0  0  0  0
  1  2  4  0  0  0  0
  1  6  4  0  0  0  0
  1 18  1  0  0  0  0
  2  3  4  0  0  0  0
  3  4  4  0  0  0  0
  3 25  1  0  0  0  0
  4  5  4  0  0  0  0
  4  7  4  0  0  0  0
  5  6  4  0  0  0  0
  5  9  4  0  0  0  0
  7  8  4  0  0  0  0
  7 26  1  0  0  0  0
  8  9  4  0  0  0  0
  9 10  1  0  0  0  0
 10 11  4  0  0  0  0
 10 15  4  0  0  0  0
 11 12  4  0  0  0  0
 11 27  1  0  0  0  0
 12 13  4  0  0  0  0
 12 28  1  0  0  0  0
 13 14  4  0  0  0  0
 13 16  1  0  0  0  0
 14 15  4  0  0  0  0
 14 29  1  0  0  0  0
 15 30  1  0  0  0  0
 16 17  1  0  0  0  0
 17 31  1  0  0  0  0
 17 32  1  0  0  0  0
 17 33  1  0  0  0  0
 18 19  1  0  0  0  0
 18 34  1  0  0  0  0
 19 20  1  0  0  0  0
 19 23  1  0  0  0  0
 19 35  1  0  0  0  0
 20 21  1  0  0  0  0
 20 36  1  0  0  0  0
 20 37  1  0  0  0  0
 21 22  1  0  0  0  0
 21 38  1  0  0  0  0
 21 39  1  0  0  0  0
 22 23  1  0  0  0  0
 22 24  1  0  0  0  0
 22 40  1  0  0  0  0
 23 41  1  0  0  0  0
 23 42  1  0  0  0  0
 24 43  1  0  0  0  0
 24 44  1  0  0  0  0
M  END
> <ConfClashScore>
0 

> <ConfOneFourInteractionScore>
-0.981848 

> <ConfScore>
-0.0277886 

> <ConfScorePBest>
0.00307343 

> <ConfTolerance>
0.366071 

$$$$
c22.sdf
 OpenBabel04162418103D

 44 47  0  0  0  0  0  0  0  0999 V2000
    1.9452   -0.6103    0.1256 C   0  0  0  1  0  0  0  0  0  0  0  0
    2.0363    0.7233    0.1482 N   0  0  0  1  0  0  0  0  0  0  0  0
    0.8946    1.4376    0.0881 C   0  0  0  1  0  0  0  0  0  0  0  0
   -0.3452    0.7386    0.0097 C   0  0  0  1  0  0  0  0  0  0  0  0
   -0.2529   -0.6477    0.0020 C   0  0  0  1  0  0  0  0  0  0  0  0
    0.8779   -1.3913    0.0539 N   0  0  0  1  0  0  0  0  0  0  0  0
   -1.7304    0.9921   -0.0538 C   0  0  0  1  0  0  0  0  0  0  0  0
   -2.4282   -0.1191   -0.1029 N   0  0  0  1  0  0  0  0  0  0  0  0
   -1.5125   -1.1342   -0.0681 N   0  0  0  1  0  0  0  0  0  0  0  0
   -1.8419   -2.5193   -0.1013 C   0  0  0  1  0  0  0  0  0  0  0  0
   -2.7693   -3.0336   -0.9876 C   0  0  0  1  0  0  0  0  0  0  0  0
   -2.9822   -4.4019   -1.0512 C   0  0  0  1  0  0  0  0  0  0  0  0
   -2.2710   -5.2512   -0.2247 C   0  0  0  1  0  0  0  0  0  0  0  0
   -1.3409   -4.7351    0.6642 C   0  0  0  1  0  0  0  0  0  0  0  0
   -1.1285   -3.3709    0.7277 C   0  0  0  1  0  0  0  0  0  0  0  0
   -2.3964   -6.5993   -0.1935 O   0  0  0  1  0  0  0  0  0  0  0  0
   -3.3954   -7.1852   -1.0427 C   0  0  0  1  0  0  0  0  0  0  0  0
    3.1213   -1.2605    0.1850 N   0  0  0  1  0  0  0  0  0  0  0  0
    4.4251   -0.5936    0.1610 C   0  0  0  1  0  0  0  0  0  0  0  0
    4.6259    0.1540   -1.1602 C   0  0  0  1  0  0  0  0  0  0  0  0
    5.3783   -0.8237   -2.0728 C   0  0  0  1  0  0  0  0  0  0  0  0
    5.6042   -2.0944   -1.2467 C   0  0  0  1  0  0  0  0  0  0  0  0
    5.5602   -1.6226    0.1973 C   0  0  0  1  0  0  0  0  0  0  0  0
    6.9209   -2.6956   -1.5609 N   0  0  0  1  0  0  0  0  0  0  0  0
    0.9179    2.4772    0.0989 H   0  0  0  1  0  0  0  0  0  0  0  0
   -2.1490    1.9441   -0.0608 H   0  0  0  1  0  0  0  0  0  0  0  0
   -3.3074   -2.3943   -1.6068 H   0  0  0  1  0  0  0  0  0  0  0  0
   -3.6771   -4.7894   -1.7210 H   0  0  0  1  0  0  0  0  0  0  0  0
   -0.8029   -5.3744    1.2833 H   0  0  0  1  0  0  0  0  0  0  0  0
   -0.4337   -2.9833    1.3974 H   0  0  0  1  0  0  0  0  0  0  0  0
   -3.4115   -8.2451   -0.8966 H   0  0  0  1  0  0  0  0  0  0  0  0
   -3.1651   -6.9698   -2.0651 H   0  0  0  1  0  0  0  0  0  0  0  0
   -4.3541   -6.7774   -0.7988 H   0  0  0  1  0  0  0  0  0  0  0  0
    3.1048   -2.2384    0.2479 H   0  0  0  1  0  0  0  0  0  0  0  0
    4.4977    0.0786    0.9903 H   0  0  0  1  0  0  0  0  0  0  0  0
    3.6813    0.4149   -1.5896 H   0  0  0  1  0  0  0  0  0  0  0  0
    5.2045    1.0404   -1.0041 H   0  0  0  1  0  0  0  0  0  0  0  0
    4.7932   -1.0452   -2.9409 H   0  0  0  1  0  0  0  0  0  0  0  0
    6.3163   -0.4045   -2.3718 H   0  0  0  1  0  0  0  0  0  0  0  0
    4.8310   -2.8098   -1.4345 H   0  0  0  1  0  0  0  0  0  0  0  0
    6.4857   -1.1705    0.4870 H   0  0  0  1  0  0  0  0  0  0  0  0
    5.3328   -2.4290    0.8629 H   0  0  0  1  0  0  0  0  0  0  0  0
    7.6236   -2.0218   -1.4478 H   0  0  0  1  0  0  0  0  0  0  0  0
    6.9212   -3.0151   -2.4873 H   0  0  0  1  0  0  0  0  0  0  0  0
  1  2  4  0  0  0  0
  1  6  4  0  0  0  0
  1 18  1  0  0  0  0
  2  3  4  0  0  0  0
  3  4  4  0  0  0  0
  3 25  1  0  0  0  0
  4  5  4  0  0  0  0
  4  7  4  0  0  0  0
  5  6  4  0  0  0  0
  5  9  4  0  0  0  0
  7  8  4  0  0  0  0
  7 26  1  0  0  0  0
  8  9  4  0  0  0  0
  9 10  1  0  0  0  0
 10 11  4  0  0  0  0
 10 15  4  0  0  0  0
 11 12  4  0  0  0  0
 11 27  1  0  0  0  0
 12 13  4  0  0  0  0
 12 28  1  0  0  0  0
 13 14  4  0  0  0  0
 13 16  1  0  0  0  0
 14 15  4  0  0  0  0
 14 29  1  0  0  0  0
 15 30  1  0  0  0  0
 16 17  1  0  0  0  0
 17 31  1  0  0  0  0
 17 32  1  0  0  0  0
 17 33  1  0  0  0  0
 18 19  1  0  0  0  0
 18 34  1  0  0  0  0
 19 20  1  0  0  0  0
 19 23  1  0  0  0  0
 19 35  1  0  0  0  0
 20 21  1  0  0  0  0
 20 36  1  0  0  0  0
 20 37  1  0  0  0  0
 21 22  1  0  0  0  0
 21 38  1  0  0  0  0
 21 39  1  0  0  0  0
 22 23  1  0  0  0  0
 22 24  1  0  0  0  0
 22 40  1  0  0  0  0
 23 41  1  0  0  0  0
 23 42  1  0  0  0  0
 24 43  1  0  0  0  0
 24 44  1  0  0  0  0
M  END
> <ConfClashScore>
0 

> <ConfOneFourInteractionScore>
-0.981848 

> <ConfScore>
-0.027621 

> <ConfScorePBest>
0.00306011 

> <ConfTolerance>
0.386061 

$$$$
c22.sdf
 OpenBabel04162418103D

 44 47  0  0  0  0  0  0  0  0999 V2000
    1.9452   -0.6102    0.1256 C   0  0  0  1  0  0  0  0  0  0  0  0
    2.0363    0.7233    0.1481 N   0  0  0  1  0  0  0  0  0  0  0  0
    0.8946    1.4375    0.0881 C   0  0  0  1  0  0  0  0  0  0  0  0
   -0.3453    0.7387    0.0096 C   0  0  0  1  0  0  0  0  0  0  0  0
   -0.2529   -0.6478    0.0020 C   0  0  0  1  0  0  0  0  0  0  0  0
    0.8779   -1.3913    0.0539 N   0  0  0  1  0  0  0  0  0  0  0  0
   -1.7304    0.9921   -0.0538 C   0  0  0  1  0  0  0  0  0  0  0  0
   -2.4282   -0.1191   -0.1028 N   0  0  0  1  0  0  0  0  0  0  0  0
   -1.5125   -1.1341   -0.0681 N   0  0  0  1  0  0  0  0  0  0  0  0
   -1.8419   -2.5192   -0.1013 C   0  0  0  1  0  0  0  0  0  0  0  0
   -0.9898   -3.4175   -0.7153 C   0  0  0  1  0  0  0  0  0  0  0  0
   -1.3077   -4.7664   -0.7430 C   0  0  0  1  0  0  0  0  0  0  0  0
   -2.4795   -5.2125   -0.1612 C   0  0  0  1  0  0  0  0  0  0  0  0
   -3.3341   -4.3114    0.4546 C   0  0  0  1  0  0  0  0  0  0  0  0
   -3.0171   -2.9663    0.4822 C   0  0  0  1  0  0  0  0  0  0  0  0
   -2.9014   -6.5139   -0.1299 O   0  0  0  1  0  0  0  0  0  0  0  0
   -1.9916   -7.4106   -0.7862 C   0  0  0  1  0  0  0  0  0  0  0  0
    3.1213   -1.2603    0.1849 N   0  0  0  1  0  0  0  0  0  0  0  0
    3.2485   -2.7214    0.1879 C   0  0  0  1  0  0  0  0  0  0  0  0
    2.3590   -3.3353    1.2724 C   0  0  0  1  0  0  0  0  0  0  0  0
    3.0620   -4.6771    1.5154 C   0  0  0  1  0  0  0  0  0  0  0  0
    4.5486   -4.3442    1.4934 C   0  0  0  1  0  0  0  0  0  0  0  0
    4.6811   -3.1366    0.5582 C   0  0  0  1  0  0  0  0  0  0  0  0
    5.3361   -5.5015    0.9680 N   0  0  0  1  0  0  0  0  0  0  0  0
    0.9178    2.4773    0.0987 H   0  0  0  1  0  0  0  0  0  0  0  0
   -2.1490    1.9441   -0.0608 H   0  0  0  1  0  0  0  0  0  0  0  0
   -0.1100   -3.0815   -1.1566 H   0  0  0  1  0  0  0  0  0  0  0  0
   -0.6646   -5.4430   -1.2016 H   0  0  0  1  0  0  0  0  0  0  0  0
   -4.2139   -4.6474    0.8959 H   0  0  0  1  0  0  0  0  0  0  0  0
   -3.6603   -2.2897    0.9408 H   0  0  0  1  0  0  0  0  0  0  0  0
   -2.2256   -7.4567   -1.8294 H   0  0  0  1  0  0  0  0  0  0  0  0
   -2.0816   -8.3867   -0.3573 H   0  0  0  1  0  0  0  0  0  0  0  0
   -0.9896   -7.0565   -0.6611 H   0  0  0  1  0  0  0  0  0  0  0  0
    3.9417   -0.7262    0.2288 H   0  0  0  1  0  0  0  0  0  0  0  0
    2.9840   -3.1049   -0.7754 H   0  0  0  1  0  0  0  0  0  0  0  0
    1.3572   -3.4757    0.9239 H   0  0  0  1  0  0  0  0  0  0  0  0
    2.3485   -2.7332    2.1570 H   0  0  0  1  0  0  0  0  0  0  0  0
    2.7806   -5.0841    2.4641 H   0  0  0  1  0  0  0  0  0  0  0  0
    2.8203   -5.3753    0.7414 H   0  0  0  1  0  0  0  0  0  0  0  0
    4.8912   -4.0958    2.4762 H   0  0  0  1  0  0  0  0  0  0  0  0
    5.1823   -2.3340    1.0577 H   0  0  0  1  0  0  0  0  0  0  0  0
    5.2277   -3.4068   -0.3211 H   0  0  0  1  0  0  0  0  0  0  0  0
    6.2924   -5.2906    1.0057 H   0  0  0  1  0  0  0  0  0  0  0  0
    5.0772   -5.6780    0.0394 H   0  0  0  1  0  0  0  0  0  0  0  0
  1  2  4  0  0  0  0
  1  6  4  0  0  0  0
  1 18  1  0  0  0  0
  2  3  4  0  0  0  0
  3  4  4  0  0  0  0
  3 25  1  0  0  0  0
  4  5  4  0  0  0  0
  4  7  4  0  0  0  0
  5  6  4  0  0  0  0
  5  9  4  0  0  0  0
  7  8  4  0  0  0  0
  7 26  1  0  0  0  0
  8  9  4  0  0  0  0
  9 10  1  0  0  0  0
 10 11  4  0  0  0  0
 10 15  4  0  0  0  0
 11 12  4  0  0  0  0
 11 27  1  0  0  0  0
 12 13  4  0  0  0  0
 12 28  1  0  0  0  0
 13 14  4  0  0  0  0
 13 16  1  0  0  0  0
 14 15  4  0  0  0  0
 14 29  1  0  0  0  0
 15 30  1  0  0  0  0
 16 17  1  0  0  0  0
 17 31  1  0  0  0  0
 17 32  1  0  0  0  0
 17 33  1  0  0  0  0
 18 19  1  0  0  0  0
 18 34  1  0  0  0  0
 19 20  1  0  0  0  0
 19 23  1  0  0  0  0
 19 35  1  0  0  0  0
 20 21  1  0  0  0  0
 20 36  1  0  0  0  0
 20 37  1  0  0  0  0
 21 22  1  0  0  0  0
 21 38  1  0  0  0  0
 21 39  1  0  0  0  0
 22 23  1  0  0  0  0
 22 24  1  0  0  0  0
 22 40  1  0  0  0  0
 23 41  1  0  0  0  0
 23 42  1  0  0  0  0
 24 43  1  0  0  0  0
 24 44  1  0  0  0  0
M  END
> <ConfClashScore>
0 

> <ConfOneFourInteractionScore>
-0.985399 

> <ConfScore>
-0.0273994 

> <ConfScorePBest>
0.00304678 

> <ConfTolerance>
0.370422 

$$$$
c22.sdf
 OpenBabel04162418103D

 44 47  0  0  0  0  0  0  0  0999 V2000
    1.9452   -0.6102    0.1256 C   0  0  0  1  0  0  0  0  0  0  0  0
    2.0363    0.7233    0.1482 N   0  0  0  1  0  0  0  0  0  0  0  0
    0.8946    1.4376    0.0881 C   0  0  0  1  0  0  0  0  0  0  0  0
   -0.3452    0.7386    0.0097 C   0  0  0  1  0  0  0  0  0  0  0  0
   -0.2528   -0.6478    0.0020 C   0  0  0  1  0  0  0  0  0  0  0  0
    0.8780   -1.3913    0.0539 N   0  0  0  1  0  0  0  0  0  0  0  0
   -1.7303    0.9921   -0.0538 C   0  0  0  1  0  0  0  0  0  0  0  0
   -2.4282   -0.1191   -0.1028 N   0  0  0  1  0  0  0  0  0  0  0  0
   -1.5126   -1.1342   -0.0681 N   0  0  0  1  0  0  0  0  0  0  0  0
   -1.8425   -2.5220   -0.1014 C   0  0  0  1  0  0  0  0  0  0  0  0
   -0.9611   -3.4553    0.4107 C   0  0  0  1  0  0  0  0  0  0  0  0
   -1.2423   -4.8081    0.2994 C   0  0  0  1  0  0  0  0  0  0  0  0
   -2.4015   -5.2237   -0.3284 C   0  0  0  1  0  0  0  0  0  0  0  0
   -3.2853   -4.2876   -0.8420 C   0  0  0  1  0  0  0  0  0  0  0  0
   -3.0050   -2.9387   -0.7311 C   0  0  0  1  0  0  0  0  0  0  0  0
   -2.7769   -6.5062   -0.4999 O   0  0  0  1  0  0  0  0  0  0  0  0
   -1.8556   -7.4895    0.0264 C   0  0  0  1  0  0  0  0  0  0  0  0
    3.1257   -1.2628    0.1852 N   0  0  0  1  0  0  0  0  0  0  0  0
    4.4229   -0.5943    0.3198 C   0  0  0  1  0  0  0  0  0  0  0  0
    5.0922   -0.4604   -1.0390 C   0  0  0  1  0  0  0  0  0  0  0  0
    6.3399   -1.3588   -1.0446 C   0  0  0  1  0  0  0  0  0  0  0  0
    6.1036   -2.2875    0.1335 C   0  0  0  1  0  0  0  0  0  0  0  0
    5.3774   -1.4454    1.1790 C   0  0  0  1  0  0  0  0  0  0  0  0
    7.3944   -2.7803    0.6712 N   0  0  0  1  0  0  0  0  0  0  0  0
    0.9179    2.4773    0.0988 H   0  0  0  1  0  0  0  0  0  0  0  0
   -2.1490    1.9441   -0.0607 H   0  0  0  1  0  0  0  0  0  0  0  0
   -0.0870   -3.1427    0.8795 H   0  0  0  1  0  0  0  0  0  0  0  0
   -0.5811   -5.5103    0.6883 H   0  0  0  1  0  0  0  0  0  0  0  0
   -4.1594   -4.6001   -1.3108 H   0  0  0  1  0  0  0  0  0  0  0  0
   -3.6663   -2.2364   -1.1199 H   0  0  0  1  0  0  0  0  0  0  0  0
   -2.2387   -8.4717   -0.1564 H   0  0  0  1  0  0  0  0  0  0  0  0
   -1.7405   -7.3421    1.0799 H   0  0  0  1  0  0  0  0  0  0  0  0
   -0.9061   -7.3818   -0.4551 H   0  0  0  1  0  0  0  0  0  0  0  0
    3.1144   -2.2415    0.1354 H   0  0  0  1  0  0  0  0  0  0  0  0
    4.2837    0.3697    0.7626 H   0  0  0  1  0  0  0  0  0  0  0  0
    5.3772    0.5576   -1.2045 H   0  0  0  1  0  0  0  0  0  0  0  0
    4.4171   -0.7720   -1.8085 H   0  0  0  1  0  0  0  0  0  0  0  0
    6.4119   -1.9098   -1.9591 H   0  0  0  1  0  0  0  0  0  0  0  0
    7.2295   -0.7807   -0.9051 H   0  0  0  1  0  0  0  0  0  0  0  0
    5.4989   -3.1193   -0.1619 H   0  0  0  1  0  0  0  0  0  0  0  0
    4.8342   -2.0632    1.8632 H   0  0  0  1  0  0  0  0  0  0  0  0
    6.0627   -0.8283    1.7217 H   0  0  0  1  0  0  0  0  0  0  0  0
    7.8450   -3.3250   -0.0075 H   0  0  0  1  0  0  0  0  0  0  0  0
    7.2291   -3.3241    1.4695 H   0  0  0  1  0  0  0  0  0  0  0  0
  1  2  4  0  0  0  0
  1  6  4  0  0  0  0
  1 18  1  0  0  0  0
  2  3  4  0  0  0  0
  3  4  4  0  0  0  0
  3 25  1  0  0  0  0
  4  5  4  0  0  0  0
  4  7  4  0  0  0  0
  5  6  4  0  0  0  0
  5  9  4  0  0  0  0
  7  8  4  0  0  0  0
  7 26  1  0  0  0  0
  8  9  4  0  0  0  0
  9 10  1  0  0  0  0
 10 11  4  0  0  0  0
 10 15  4  0  0  0  0
 11 12  4  0  0  0  0
 11 27  1  0  0  0  0
 12 13  4  0  0  0  0
 12 28  1  0  0  0  0
 13 14  4  0  0  0  0
 13 16  1  0  0  0  0
 14 15  4  0  0  0  0
 14 29  1  0  0  0  0
 15 30  1  0  0  0  0
 16 17  1  0  0  0  0
 17 31  1  0  0  0  0
 17 32  1  0  0  0  0
 17 33  1  0  0  0  0
 18 19  1  0  0  0  0
 18 34  1  0  0  0  0
 19 20  1  0  0  0  0
 19 23  1  0  0  0  0
 19 35  1  0  0  0  0
 20 21  1  0  0  0  0
 20 36  1  0  0  0  0
 20 37  1  0  0  0  0
 21 22  1  0  0  0  0
 21 38  1  0  0  0  0
 21 39  1  0  0  0  0
 22 23  1  0  0  0  0
 22 24  1  0  0  0  0
 22 40  1  0  0  0  0
 23 41  1  0  0  0  0
 23 42  1  0  0  0  0
 24 43  1  0  0  0  0
 24 44  1  0  0  0  0
M  END
> <ConfClashScore>
0 

> <ConfOneFourInteractionScore>
-0.984337 

> <ConfScore>
-0.0273772 

> <ConfScorePBest>
0.00303345 

> <ConfTolerance>
0.306394 

$$$$
c22.sdf
 OpenBabel04162418103D

 44 47  0  0  0  0  0  0  0  0999 V2000
    1.9452   -0.6102    0.1256 C   0  0  0  1  0  0  0  0  0  0  0  0
    2.0363    0.7233    0.1482 N   0  0  0  1  0  0  0  0  0  0  0  0
    0.8946    1.4376    0.0881 C   0  0  0  1  0  0  0  0  0  0  0  0
   -0.3453    0.7386    0.0096 C   0  0  0  1  0  0  0  0  0  0  0  0
   -0.2529   -0.6478    0.0020 C   0  0  0  1  0  0  0  0  0  0  0  0
    0.8779   -1.3912    0.0539 N   0  0  0  1  0  0  0  0  0  0  0  0
   -1.7304    0.9921   -0.0538 C   0  0  0  1  0  0  0  0  0  0  0  0
   -2.4281   -0.1191   -0.1029 N   0  0  0  1  0  0  0  0  0  0  0  0
   -1.5125   -1.1341   -0.0681 N   0  0  0  1  0  0  0  0  0  0  0  0
   -1.8396   -2.5099   -0.1011 C   0  0  0  1  0  0  0  0  0  0  0  0
   -2.5554   -3.0750    0.9374 C   0  0  0  1  0  0  0  0  0  0  0  0
   -2.8805   -4.4221    0.9024 C   0  0  0  1  0  0  0  0  0  0  0  0
   -2.4844   -5.2012   -0.1682 C   0  0  0  1  0  0  0  0  0  0  0  0
   -1.7665   -4.6343   -1.2096 C   0  0  0  1  0  0  0  0  0  0  0  0
   -1.4422   -3.2911   -1.1750 C   0  0  0  1  0  0  0  0  0  0  0  0
   -2.7381   -6.5239   -0.3098 O   0  0  0  1  0  0  0  0  0  0  0  0
   -3.3576   -7.1955    0.7983 C   0  0  0  1  0  0  0  0  0  0  0  0
    3.1379   -1.2695    0.1858 N   0  0  0  1  0  0  0  0  0  0  0  0
    3.2104   -2.7333    0.1679 C   0  0  0  1  0  0  0  0  0  0  0  0
    4.5236   -3.2077    0.8010 C   0  0  0  1  0  0  0  0  0  0  0  0
    5.3111   -3.8492   -0.3346 C   0  0  0  1  0  0  0  0  0  0  0  0
    4.2419   -4.3895   -1.2931 C   0  0  0  1  0  0  0  0  0  0  0  0
    3.2215   -3.2481   -1.2801 C   0  0  0  1  0  0  0  0  0  0  0  0
    3.6488   -5.6541   -0.7881 N   0  0  0  1  0  0  0  0  0  0  0  0
    0.9178    2.4773    0.0988 H   0  0  0  1  0  0  0  0  0  0  0  0
   -2.1490    1.9440   -0.0608 H   0  0  0  1  0  0  0  0  0  0  0  0
   -2.8501   -2.4896    1.7449 H   0  0  0  1  0  0  0  0  0  0  0  0
   -3.4226   -4.8465    1.6819 H   0  0  0  1  0  0  0  0  0  0  0  0
   -1.4717   -5.2196   -2.0173 H   0  0  0  1  0  0  0  0  0  0  0  0
   -0.9001   -2.8668   -1.9544 H   0  0  0  1  0  0  0  0  0  0  0  0
   -3.1819   -8.2481    0.7215 H   0  0  0  1  0  0  0  0  0  0  0  0
   -4.4110   -7.0081    0.7851 H   0  0  0  1  0  0  0  0  0  0  0  0
   -2.9414   -6.8306    1.7141 H   0  0  0  1  0  0  0  0  0  0  0  0
    3.9676   -0.7511    0.2425 H   0  0  0  1  0  0  0  0  0  0  0  0
    2.3749   -3.1387    0.6992 H   0  0  0  1  0  0  0  0  0  0  0  0
    4.3300   -3.9230    1.5730 H   0  0  0  1  0  0  0  0  0  0  0  0
    5.0633   -2.3790    1.2093 H   0  0  0  1  0  0  0  0  0  0  0  0
    5.9242   -4.6451    0.0338 H   0  0  0  1  0  0  0  0  0  0  0  0
    5.9251   -3.1231   -0.8252 H   0  0  0  1  0  0  0  0  0  0  0  0
    4.6393   -4.5480   -2.2737 H   0  0  0  1  0  0  0  0  0  0  0  0
    2.2527   -3.6079   -1.5575 H   0  0  0  1  0  0  0  0  0  0  0  0
    3.5197   -2.4708   -1.9523 H   0  0  0  1  0  0  0  0  0  0  0  0
    3.0069   -5.9990   -1.4434 H   0  0  0  1  0  0  0  0  0  0  0  0
    3.1891   -5.4832    0.0603 H   0  0  0  1  0  0  0  0  0  0  0  0
  1  2  4  0  0  0  0
  1  6  4  0  0  0  0
  1 18  1  0  0  0  0
  2  3  4  0  0  0  0
  3  4  4  0  0  0  0
  3 25  1  0  0  0  0
  4  5  4  0  0  0  0
  4  7  4  0  0  0  0
  5  6  4  0  0  0  0
  5  9  4  0  0  0  0
  7  8  4  0  0  0  0
  7 26  1  0  0  0  0
  8  9  4  0  0  0  0
  9 10  1  0  0  0  0
 10 11  4  0  0  0  0
 10 15  4  0  0  0  0
 11 12  4  0  0  0  0
 11 27  1  0  0  0  0
 12 13  4  0  0  0  0
 12 28  1  0  0  0  0
 13 14  4  0  0  0  0
 13 16  1  0  0  0  0
 14 15  4  0  0  0  0
 14 29  1  0  0  0  0
 15 30  1  0  0  0  0
 16 17  1  0  0  0  0
 17 31  1  0  0  0  0
 17 32  1  0  0  0  0
 17 33  1  0  0  0  0
 18 19  1  0  0  0  0
 18 34  1  0  0  0  0
 19 20  1  0  0  0  0
 19 23  1  0  0  0  0
 19 35  1  0  0  0  0
 20 21  1  0  0  0  0
 20 36  1  0  0  0  0
 20 37  1  0  0  0  0
 21 22  1  0  0  0  0
 21 38  1  0  0  0  0
 21 39  1  0  0  0  0
 22 23  1  0  0  0  0
 22 24  1  0  0  0  0
 22 40  1  0  0  0  0
 23 41  1  0  0  0  0
 23 42  1  0  0  0  0
 24 43  1  0  0  0  0
 24 44  1  0  0  0  0
M  END
> <ConfClashScore>
0 

> <ConfOneFourInteractionScore>
-0.984337 

> <ConfScore>
-0.0259153 

> <ConfScorePBest>
0.00302012 

> <ConfTolerance>
0.360156 

$$$$
c22.sdf
 OpenBabel04162418103D

 44 47  0  0  0  0  0  0  0  0999 V2000
    1.9452   -0.6102    0.1257 C   0  0  0  1  0  0  0  0  0  0  0  0
    2.0363    0.7232    0.1482 N   0  0  0  1  0  0  0  0  0  0  0  0
    0.8946    1.4376    0.0881 C   0  0  0  1  0  0  0  0  0  0  0  0
   -0.3452    0.7386    0.0096 C   0  0  0  1  0  0  0  0  0  0  0  0
   -0.2528   -0.6478    0.0021 C   0  0  0  1  0  0  0  0  0  0  0  0
    0.8779   -1.3913    0.0540 N   0  0  0  1  0  0  0  0  0  0  0  0
   -1.7304    0.9921   -0.0538 C   0  0  0  1  0  0  0  0  0  0  0  0
   -2.4281   -0.1191   -0.1029 N   0  0  0  1  0  0  0  0  0  0  0  0
   -1.5125   -1.1342   -0.0681 N   0  0  0  1  0  0  0  0  0  0  0  0
   -1.8370   -2.4987   -0.1008 C   0  0  0  1  0  0  0  0  0  0  0  0
   -1.3524   -3.4415    0.7860 C   0  0  0  1  0  0  0  0  0  0  0  0
   -1.7409   -4.7669    0.6690 C   0  0  0  1  0  0  0  0  0  0  0  0
   -2.6087   -5.1467   -0.3375 C   0  0  0  1  0  0  0  0  0  0  0  0
   -3.0946   -4.2009   -1.2269 C   0  0  0  1  0  0  0  0  0  0  0  0
   -2.7072   -2.8793   -1.1103 C   0  0  0  1  0  0  0  0  0  0  0  0
   -2.9103   -6.4595   -0.3554 O   0  0  0  1  0  0  0  0  0  0  0  0
   -3.8415   -6.8596   -1.3876 C   0  0  0  1  0  0  0  0  0  0  0  0
    3.1213   -1.2605    0.1851 N   0  0  0  1  0  0  0  0  0  0  0  0
    3.3098   -2.7065    0.3118 C   0  0  0  1  0  0  0  0  0  0  0  0
    2.8913   -3.1761    1.7099 C   0  0  0  1  0  0  0  0  0  0  0  0
    4.1755   -3.6522    2.3775 C   0  0  0  1  0  0  0  0  0  0  0  0
    5.0563   -4.1431    1.2213 C   0  0  0  1  0  0  0  0  0  0  0  0
    4.7974   -3.0642    0.1662 C   0  0  0  1  0  0  0  0  0  0  0  0
    4.6278   -5.4869    0.7428 N   0  0  0  1  0  0  0  0  0  0  0  0
    0.9179    2.4772    0.0987 H   0  0  0  1  0  0  0  0  0  0  0  0
   -2.1490    1.9441   -0.0609 H   0  0  0  1  0  0  0  0  0  0  0  0
   -0.6962   -3.1565    1.5410 H   0  0  0  1  0  0  0  0  0  0  0  0
   -1.3794   -5.4757    1.3387 H   0  0  0  1  0  0  0  0  0  0  0  0
   -3.7507   -4.4858   -1.9818 H   0  0  0  1  0  0  0  0  0  0  0  0
   -3.0687   -2.1704   -1.7800 H   0  0  0  1  0  0  0  0  0  0  0  0
   -3.8807   -7.9277   -1.4388 H   0  0  0  1  0  0  0  0  0  0  0  0
   -3.5185   -6.4692   -2.3299 H   0  0  0  1  0  0  0  0  0  0  0  0
   -4.8143   -6.4779   -1.1574 H   0  0  0  1  0  0  0  0  0  0  0  0
    3.9320   -0.7118    0.1389 H   0  0  0  1  0  0  0  0  0  0  0  0
    2.7327   -3.2088   -0.4362 H   0  0  0  1  0  0  0  0  0  0  0  0
    2.1863   -3.9780    1.6400 H   0  0  0  1  0  0  0  0  0  0  0  0
    2.4595   -2.3681    2.2626 H   0  0  0  1  0  0  0  0  0  0  0  0
    4.6507   -2.8473    2.8983 H   0  0  0  1  0  0  0  0  0  0  0  0
    3.9720   -4.4494    3.0616 H   0  0  0  1  0  0  0  0  0  0  0  0
    6.0882   -4.1762    1.5021 H   0  0  0  1  0  0  0  0  0  0  0  0
    5.4093   -2.2058    0.3496 H   0  0  0  1  0  0  0  0  0  0  0  0
    4.9977   -3.4428   -0.8143 H   0  0  0  1  0  0  0  0  0  0  0  0
    4.5411   -6.0940    1.5072 H   0  0  0  1  0  0  0  0  0  0  0  0
    5.2968   -5.8401    0.1198 H   0  0  0  1  0  0  0  0  0  0  0  0
  1  2  4  0  0  0  0
  1  6  4  0  0  0  0
  1 18  1  0  0  0  0
  2  3  4  0  0  0  0
  3  4  4  0  0  0  0
  3 25  1  0  0  0  0
  4  5  4  0  0  0  0
  4  7  4  0  0  0  0
  5  6  4  0  0  0  0
  5  9  4  0  0  0  0
  7  8  4  0  0  0  0
  7 26  1  0  0  0  0
  8  9  4  0  0  0  0
  9 10  1  0  0  0  0
 10 11  4  0  0  0  0
 10 15  4  0  0  0  0
 11 12  4  0  0  0  0
 11 27  1  0  0  0  0
 12 13  4  0  0  0  0
 12 28  1  0  0  0  0
 13 14  4  0  0  0  0
 13 16  1  0  0  0  0
 14 15  4  0  0  0  0
 14 29  1  0  0  0  0
 15 30  1  0  0  0  0
 16 17  1  0  0  0  0
 17 31  1  0  0  0  0
 17 32  1  0  0  0  0
 17 33  1  0  0  0  0
 18 19  1  0  0  0  0
 18 34  1  0  0  0  0
 19 20  1  0  0  0  0
 19 23  1  0  0  0  0
 19 35  1  0  0  0  0
 20 21  1  0  0  0  0
 20 36  1  0  0  0  0
 20 37  1  0  0  0  0
 21 22  1  0  0  0  0
 21 38  1  0  0  0  0
 21 39  1  0  0  0  0
 22 23  1  0  0  0  0
 22 24  1  0  0  0  0
 22 40  1  0  0  0  0
 23 41  1  0  0  0  0
 23 42  1  0  0  0  0
 24 43  1  0  0  0  0
 24 44  1  0  0  0  0
M  END
> <ConfClashScore>
0 

> <ConfOneFourInteractionScore>
-0.984337 

> <ConfScore>
-0.0257867 

> <ConfScorePBest>
0.00300679 

> <ConfTolerance>
0.295622 

$$$$
c22.sdf
 OpenBabel04162418103D

 44 47  0  0  0  0  0  0  0  0999 V2000
    1.9453   -0.6102    0.1256 C   0  0  0  1  0  0  0  0  0  0  0  0
    2.0363    0.7233    0.1482 N   0  0  0  1  0  0  0  0  0  0  0  0
    0.8946    1.4376    0.0881 C   0  0  0  1  0  0  0  0  0  0  0  0
   -0.3452    0.7386    0.0096 C   0  0  0  1  0  0  0  0  0  0  0  0
   -0.2529   -0.6477    0.0020 C   0  0  0  1  0  0  0  0  0  0  0  0
    0.8779   -1.3913    0.0538 N   0  0  0  1  0  0  0  0  0  0  0  0
   -1.7303    0.9921   -0.0538 C   0  0  0  1  0  0  0  0  0  0  0  0
   -2.4281   -0.1192   -0.1029 N   0  0  0  1  0  0  0  0  0  0  0  0
   -1.5125   -1.1342   -0.0681 N   0  0  0  1  0  0  0  0  0  0  0  0
   -1.8386   -2.5051   -0.1010 C   0  0  0  1  0  0  0  0  0  0  0  0
   -2.5857   -3.1123    0.8906 C   0  0  0  1  0  0  0  0  0  0  0  0
   -2.8820   -4.4637    0.8056 C   0  0  0  1  0  0  0  0  0  0  0  0
   -2.4258   -5.2053   -0.2679 C   0  0  0  1  0  0  0  0  0  0  0  0
   -1.6764   -4.5961   -1.2623 C   0  0  0  1  0  0  0  0  0  0  0  0
   -1.3808   -3.2486   -1.1777 C   0  0  0  1  0  0  0  0  0  0  0  0
   -2.6468   -6.5281   -0.4556 O   0  0  0  1  0  0  0  0  0  0  0  0
   -3.4667   -7.2003    0.5130 C   0  0  0  1  0  0  0  0  0  0  0  0
    3.1257   -1.2629    0.1851 N   0  0  0  1  0  0  0  0  0  0  0  0
    4.4063   -0.6107    0.4743 C   0  0  0  1  0  0  0  0  0  0  0  0
    5.5463   -1.2223   -0.3505 C   0  0  0  1  0  0  0  0  0  0  0  0
    5.8762   -2.5307    0.3571 C   0  0  0  1  0  0  0  0  0  0  0  0
    5.5312   -2.2936    1.8319 C   0  0  0  1  0  0  0  0  0  0  0  0
    4.8752   -0.9056    1.9016 C   0  0  0  1  0  0  0  0  0  0  0  0
    6.7767   -2.3226    2.6683 N   0  0  0  1  0  0  0  0  0  0  0  0
    0.9179    2.4773    0.0988 H   0  0  0  1  0  0  0  0  0  0  0  0
   -2.1490    1.9441   -0.0609 H   0  0  0  1  0  0  0  0  0  0  0  0
   -2.9257   -2.5552    1.7003 H   0  0  0  1  0  0  0  0  0  0  0  0
   -3.4478   -4.9197    1.5497 H   0  0  0  1  0  0  0  0  0  0  0  0
   -1.3364   -5.1531   -2.0720 H   0  0  0  1  0  0  0  0  0  0  0  0
   -0.8151   -2.7926   -1.9217 H   0  0  0  1  0  0  0  0  0  0  0  0
   -4.0845   -7.9211    0.0195 H   0  0  0  1  0  0  0  0  0  0  0  0
   -4.0846   -6.4852    1.0147 H   0  0  0  1  0  0  0  0  0  0  0  0
   -2.8419   -7.6954    1.2267 H   0  0  0  1  0  0  0  0  0  0  0  0
    3.1264   -2.2298    0.0256 H   0  0  0  1  0  0  0  0  0  0  0  0
    4.3185    0.4415    0.3006 H   0  0  0  1  0  0  0  0  0  0  0  0
    6.3966   -0.5728   -0.3584 H   0  0  0  1  0  0  0  0  0  0  0  0
    5.2281   -1.4066   -1.3553 H   0  0  0  1  0  0  0  0  0  0  0  0
    5.2874   -3.3305   -0.0413 H   0  0  0  1  0  0  0  0  0  0  0  0
    6.9149   -2.7634    0.2483 H   0  0  0  1  0  0  0  0  0  0  0  0
    4.8507   -3.0431    2.1786 H   0  0  0  1  0  0  0  0  0  0  0  0
    5.5844   -0.1714    2.2225 H   0  0  0  1  0  0  0  0  0  0  0  0
    4.0436   -0.9172    2.5747 H   0  0  0  1  0  0  0  0  0  0  0  0
    7.4455   -1.7205    2.2802 H   0  0  0  1  0  0  0  0  0  0  0  0
    7.1333   -3.2352    2.6914 H   0  0  0  1  0  0  0  0  0  0  0  0
  1  2  4  0  0  0  0
  1  6  4  0  0  0  0
  1 18  1  0  0  0  0
  2  3  4  0  0  0  0
  3  4  4  0  0  0  0
  3 25  1  0  0  0  0
  4  5  4  0  0  0  0
  4  7  4  0  0  0  0
  5  6  4  0  0  0  0
  5  9  4  0  0  0  0
  7  8  4  0  0  0  0
  7 26  1  0  0  0  0
  8  9  4  0  0  0  0
  9 10  1  0  0  0  0
 10 11  4  0  0  0  0
 10 15  4  0  0  0  0
 11 12  4  0  0  0  0
 11 27  1  0  0  0  0
 12 13  4  0  0  0  0
 12 28  1  0  0  0  0
 13 14  4  0  0  0  0
 13 16  1  0  0  0  0
 14 15  4  0  0  0  0
 14 29  1  0  0  0  0
 15 30  1  0  0  0  0
 16 17  1  0  0  0  0
 17 31  1  0  0  0  0
 17 32  1  0  0  0  0
 17 33  1  0  0  0  0
 18 19  1  0  0  0  0
 18 34  1  0  0  0  0
 19 20  1  0  0  0  0
 19 23  1  0  0  0  0
 19 35  1  0  0  0  0
 20 21  1  0  0  0  0
 20 36  1  0  0  0  0
 20 37  1  0  0  0  0
 21 22  1  0  0  0  0
 21 38  1  0  0  0  0
 21 39  1  0  0  0  0
 22 23  1  0  0  0  0
 22 24  1  0  0  0  0
 22 40  1  0  0  0  0
 23 41  1  0  0  0  0
 23 42  1  0  0  0  0
 24 43  1  0  0  0  0
 24 44  1  0  0  0  0
M  END
> <ConfClashScore>
0 

> <ConfOneFourInteractionScore>
-0.984337 

> <ConfScore>
-0.0257348 

> <ConfScorePBest>
0.00299346 

> <ConfTolerance>
0.354168 

$$$$
c22.sdf
 OpenBabel04162418103D

 44 47  0  0  0  0  0  0  0  0999 V2000
    1.9452   -0.6102    0.1256 C   0  0  0  1  0  0  0  0  0  0  0  0
    2.0363    0.7233    0.1482 N   0  0  0  1  0  0  0  0  0  0  0  0
    0.8946    1.4376    0.0881 C   0  0  0  1  0  0  0  0  0  0  0  0
   -0.3453    0.7386    0.0095 C   0  0  0  1  0  0  0  0  0  0  0  0
   -0.2529   -0.6478    0.0020 C   0  0  0  1  0  0  0  0  0  0  0  0
    0.8779   -1.3913    0.0539 N   0  0  0  1  0  0  0  0  0  0  0  0
   -1.7304    0.9921   -0.0538 C   0  0  0  1  0  0  0  0  0  0  0  0
   -2.4282   -0.1191   -0.1029 N   0  0  0  1  0  0  0  0  0  0  0  0
   -1.5126   -1.1342   -0.0681 N   0  0  0  1  0  0  0  0  0  0  0  0
   -1.8398   -2.5098   -0.1011 C   0  0  0  1  0  0  0  0  0  0  0  0
   -2.9640   -2.9881   -0.7473 C   0  0  0  1  0  0  0  0  0  0  0  0
   -3.2341   -4.3477   -0.7530 C   0  0  0  1  0  0  0  0  0  0  0  0
   -2.3824   -5.2244   -0.1080 C   0  0  0  1  0  0  0  0  0  0  0  0
   -1.2548   -4.7446    0.5401 C   0  0  0  1  0  0  0  0  0  0  0  0
   -0.9852   -3.3891    0.5458 C   0  0  0  1  0  0  0  0  0  0  0  0
   -2.5917   -6.5619   -0.0718 O   0  0  0  1  0  0  0  0  0  0  0  0
   -3.7292   -7.0677   -0.7880 C   0  0  0  1  0  0  0  0  0  0  0  0
    3.1379   -1.2696    0.1858 N   0  0  0  1  0  0  0  0  0  0  0  0
    4.3911   -0.5633    0.3845 C   0  0  0  1  0  0  0  0  0  0  0  0
    5.5657   -1.4423   -0.0505 C   0  0  0  1  0  0  0  0  0  0  0  0
    6.3232   -1.7912    1.2233 C   0  0  0  1  0  0  0  0  0  0  0  0
    5.3635   -1.5417    2.3788 C   0  0  0  1  0  0  0  0  0  0  0  0
    4.5979   -0.2515    1.9016 C   0  0  0  1  0  0  0  0  0  0  0  0
    6.1023   -1.2930    3.6517 N   0  0  0  1  0  0  0  0  0  0  0  0
    0.9179    2.4772    0.0987 H   0  0  0  1  0  0  0  0  0  0  0  0
   -2.1490    1.9441   -0.0608 H   0  0  0  1  0  0  0  0  0  0  0  0
   -3.6071   -2.3280   -1.2292 H   0  0  0  1  0  0  0  0  0  0  0  0
   -4.0780   -4.7080   -1.2427 H   0  0  0  1  0  0  0  0  0  0  0  0
   -0.6116   -5.4047    1.0220 H   0  0  0  1  0  0  0  0  0  0  0  0
   -0.1415   -3.0287    1.0355 H   0  0  0  1  0  0  0  0  0  0  0  0
   -3.9314   -8.0706   -0.4746 H   0  0  0  1  0  0  0  0  0  0  0  0
   -3.5228   -7.0570   -1.8379 H   0  0  0  1  0  0  0  0  0  0  0  0
   -4.5806   -6.4523   -0.5850 H   0  0  0  1  0  0  0  0  0  0  0  0
    3.1493   -2.2451    0.0925 H   0  0  0  1  0  0  0  0  0  0  0  0
    4.3824    0.3455   -0.1802 H   0  0  0  1  0  0  0  0  0  0  0  0
    5.2081   -2.3317   -0.5258 H   0  0  0  1  0  0  0  0  0  0  0  0
    6.2003   -0.9070   -0.7256 H   0  0  0  1  0  0  0  0  0  0  0  0
    7.1885   -1.1695    1.3208 H   0  0  0  1  0  0  0  0  0  0  0  0
    6.6216   -2.8186    1.2061 H   0  0  0  1  0  0  0  0  0  0  0  0
    4.6925   -2.3648    2.5103 H   0  0  0  1  0  0  0  0  0  0  0  0
    3.6628   -0.1404    2.4097 H   0  0  0  1  0  0  0  0  0  0  0  0
    5.1884    0.6295    2.0436 H   0  0  0  1  0  0  0  0  0  0  0  0
    5.4642   -1.0769    4.3634 H   0  0  0  1  0  0  0  0  0  0  0  0
    6.7207   -0.5428    3.5289 H   0  0  0  1  0  0  0  0  0  0  0  0
  1  2  4  0  0  0  0
  1  6  4  0  0  0  0
  1 18  1  0  0  0  0
  2  3  4  0  0  0  0
  3  4  4  0  0  0  0
  3 25  1  0  0  0  0
  4  5  4  0  0  0  0
  4  7  4  0  0  0  0
  5  6  4  0  0  0  0
  5  9  4  0  0  0  0
  7  8  4  0  0  0  0
  7 26  1  0  0  0  0
  8  9  4  0  0  0  0
  9 10  1  0  0  0  0
 10 11  4  0  0  0  0
 10 15  4  0  0  0  0
 11 12  4  0  0  0  0
 11 27  1  0  0  0  0
 12 13  4  0  0  0  0
 12 28  1  0  0  0  0
 13 14  4  0  0  0  0
 13 16  1  0  0  0  0
 14 15  4  0  0  0  0
 14 29  1  0  0  0  0
 15 30  1  0  0  0  0
 16 17  1  0  0  0  0
 17 31  1  0  0  0  0
 17 32  1  0  0  0  0
 17 33  1  0  0  0  0
 18 19  1  0  0  0  0
 18 34  1  0  0  0  0
 19 20  1  0  0  0  0
 19 23  1  0  0  0  0
 19 35  1  0  0  0  0
 20 21  1  0  0  0  0
 20 36  1  0  0  0  0
 20 37  1  0  0  0  0
 21 22  1  0  0  0  0
 21 38  1  0  0  0  0
 21 39  1  0  0  0  0
 22 23  1  0  0  0  0
 22 24  1  0  0  0  0
 22 40  1  0  0  0  0
 23 41  1  0  0  0  0
 23 42  1  0  0  0  0
 24 43  1  0  0  0  0
 24 44  1  0  0  0  0
M  END
> <ConfClashScore>
0 

> <ConfOneFourInteractionScore>
-0.984337 

> <ConfScore>
-0.0248945 

> <ConfScorePBest>
0.00298014 

> <ConfTolerance>
0.364877 

$$$$
c22.sdf
 OpenBabel04162418103D

 44 47  0  0  0  0  0  0  0  0999 V2000
    1.9453   -0.6102    0.1254 C   0  0  0  1  0  0  0  0  0  0  0  0
    2.0363    0.7233    0.1481 N   0  0  0  1  0  0  0  0  0  0  0  0
    0.8946    1.4376    0.0881 C   0  0  0  1  0  0  0  0  0  0  0  0
   -0.3453    0.7386    0.0096 C   0  0  0  1  0  0  0  0  0  0  0  0
   -0.2528   -0.6478    0.0019 C   0  0  0  1  0  0  0  0  0  0  0  0
    0.8779   -1.3913    0.0537 N   0  0  0  1  0  0  0  0  0  0  0  0
   -1.7303    0.9921   -0.0538 C   0  0  0  1  0  0  0  0  0  0  0  0
   -2.4281   -0.1191   -0.1028 N   0  0  0  1  0  0  0  0  0  0  0  0
   -1.5125   -1.1342   -0.0681 N   0  0  0  1  0  0  0  0  0  0  0  0
   -1.8396   -2.5099   -0.1012 C   0  0  0  1  0  0  0  0  0  0  0  0
   -0.9832   -3.4374    0.4615 C   0  0  0  1  0  0  0  0  0  0  0  0
   -1.3065   -4.7850    0.4338 C   0  0  0  1  0  0  0  0  0  0  0  0
   -2.4823   -5.2019   -0.1610 C   0  0  0  1  0  0  0  0  0  0  0  0
   -3.3411   -4.2715   -0.7253 C   0  0  0  1  0  0  0  0  0  0  0  0
   -3.0190   -2.9276   -0.6978 C   0  0  0  1  0  0  0  0  0  0  0  0
   -2.7954   -6.5190   -0.1926 O   0  0  0  1  0  0  0  0  0  0  0  0
   -1.9754   -7.4072    0.5827 C   0  0  0  1  0  0  0  0  0  0  0  0
    3.1380   -1.2695    0.1856 N   0  0  0  1  0  0  0  0  0  0  0  0
    4.4101   -0.5512    0.3371 C   0  0  0  1  0  0  0  0  0  0  0  0
    5.5745   -1.4267   -0.1405 C   0  0  0  1  0  0  0  0  0  0  0  0
    6.3947   -1.7248    1.1084 C   0  0  0  1  0  0  0  0  0  0  0  0
    6.1751   -0.5087    2.0176 C   0  0  0  1  0  0  0  0  0  0  0  0
    4.6788   -0.2514    1.8203 C   0  0  0  1  0  0  0  0  0  0  0  0
    6.9935    0.6595    1.5744 N   0  0  0  1  0  0  0  0  0  0  0  0
    0.9179    2.4772    0.0987 H   0  0  0  1  0  0  0  0  0  0  0  0
   -2.1490    1.9441   -0.0608 H   0  0  0  1  0  0  0  0  0  0  0  0
   -0.0965   -3.1242    0.9055 H   0  0  0  1  0  0  0  0  0  0  0  0
   -0.6640   -5.4826    0.8608 H   0  0  0  1  0  0  0  0  0  0  0  0
   -4.2279   -4.5846   -1.1693 H   0  0  0  1  0  0  0  0  0  0  0  0
   -3.6614   -2.2300   -1.1246 H   0  0  0  1  0  0  0  0  0  0  0  0
   -0.9460   -7.2476    0.3383 H   0  0  0  1  0  0  0  0  0  0  0  0
   -2.2409   -8.4202    0.3632 H   0  0  0  1  0  0  0  0  0  0  0  0
   -2.1282   -7.2155    1.6242 H   0  0  0  1  0  0  0  0  0  0  0  0
    3.1462   -2.2477    0.1262 H   0  0  0  1  0  0  0  0  0  0  0  0
    4.3756    0.3587   -0.2248 H   0  0  0  1  0  0  0  0  0  0  0  0
    6.1666   -0.9017   -0.8607 H   0  0  0  1  0  0  0  0  0  0  0  0
    5.2078   -2.3342   -0.5730 H   0  0  0  1  0  0  0  0  0  0  0  0
    6.0475   -2.6185    1.5834 H   0  0  0  1  0  0  0  0  0  0  0  0
    7.4309   -1.8301    0.8631 H   0  0  0  1  0  0  0  0  0  0  0  0
    6.4017   -0.7369    3.0381 H   0  0  0  1  0  0  0  0  0  0  0  0
    4.1011   -0.9004    2.4448 H   0  0  0  1  0  0  0  0  0  0  0  0
    4.4404    0.7670    2.0461 H   0  0  0  1  0  0  0  0  0  0  0  0
    6.8093    1.4271    2.1553 H   0  0  0  1  0  0  0  0  0  0  0  0
    6.7630    0.8874    0.6495 H   0  0  0  1  0  0  0  0  0  0  0  0
  1  2  4  0  0  0  0
  1  6  4  0  0  0  0
  1 18  1  0  0  0  0
  2  3  4  0  0  0  0
  3  4  4  0  0  0  0
  3 25  1  0  0  0  0
  4  5  4  0  0  0  0
  4  7  4  0  0  0  0
  5  6  4  0  0  0  0
  5  9  4  0  0  0  0
  7  8  4  0  0  0  0
  7 26  1  0  0  0  0
  8  9  4  0  0  0  0
  9 10  1  0  0  0  0
 10 11  4  0  0  0  0
 10 15  4  0  0  0  0
 11 12  4  0  0  0  0
 11 27  1  0  0  0  0
 12 13  4  0  0  0  0
 12 28  1  0  0  0  0
 13 14  4  0  0  0  0
 13 16  1  0  0  0  0
 14 15  4  0  0  0  0
 14 29  1  0  0  0  0
 15 30  1  0  0  0  0
 16 17  1  0  0  0  0
 17 31  1  0  0  0  0
 17 32  1  0  0  0  0
 17 33  1  0  0  0  0
 18 19  1  0  0  0  0
 18 34  1  0  0  0  0
 19 20  1  0  0  0  0
 19 23  1  0  0  0  0
 19 35  1  0  0  0  0
 20 21  1  0  0  0  0
 20 36  1  0  0  0  0
 20 37  1  0  0  0  0
 21 22  1  0  0  0  0
 21 38  1  0  0  0  0
 21 39  1  0  0  0  0
 22 23  1  0  0  0  0
 22 24  1  0  0  0  0
 22 40  1  0  0  0  0
 23 41  1  0  0  0  0
 23 42  1  0  0  0  0
 24 43  1  0  0  0  0
 24 44  1  0  0  0  0
M  END
> <ConfClashScore>
0 

> <ConfOneFourInteractionScore>
-0.984337 

> <ConfScore>
-0.0248945 

> <ConfScorePBest>
0.00296681 

> <ConfTolerance>
0.24553 

$$$$
c22.sdf
 OpenBabel04162418103D

 44 47  0  0  0  0  0  0  0  0999 V2000
    1.9452   -0.6102    0.1255 C   0  0  0  1  0  0  0  0  0  0  0  0
    2.0363    0.7233    0.1482 N   0  0  0  1  0  0  0  0  0  0  0  0
    0.8946    1.4376    0.0881 C   0  0  0  1  0  0  0  0  0  0  0  0
   -0.3452    0.7386    0.0096 C   0  0  0  1  0  0  0  0  0  0  0  0
   -0.2528   -0.6478    0.0020 C   0  0  0  1  0  0  0  0  0  0  0  0
    0.8780   -1.3912    0.0539 N   0  0  0  1  0  0  0  0  0  0  0  0
   -1.7304    0.9921   -0.0538 C   0  0  0  1  0  0  0  0  0  0  0  0
   -2.4282   -0.1191   -0.1028 N   0  0  0  1  0  0  0  0  0  0  0  0
   -1.5125   -1.1342   -0.0681 N   0  0  0  1  0  0  0  0  0  0  0  0
   -1.8397   -2.5099   -0.1012 C   0  0  0  1  0  0  0  0  0  0  0  0
   -3.0190   -2.9258   -0.6896 C   0  0  0  1  0  0  0  0  0  0  0  0
   -3.3370   -4.2744   -0.7267 C   0  0  0  1  0  0  0  0  0  0  0  0
   -2.4773   -5.2028   -0.1705 C   0  0  0  1  0  0  0  0  0  0  0  0
   -1.2945   -4.7855    0.4197 C   0  0  0  1  0  0  0  0  0  0  0  0
   -0.9773   -3.4408    0.4567 C   0  0  0  1  0  0  0  0  0  0  0  0
   -2.7905   -6.5199   -0.2022 O   0  0  0  1  0  0  0  0  0  0  0  0
   -1.9115   -7.4203    0.4900 C   0  0  0  1  0  0  0  0  0  0  0  0
    3.1213   -1.2605    0.1849 N   0  0  0  1  0  0  0  0  0  0  0  0
    3.3724   -2.7177    0.2799 C   0  0  0  1  0  0  0  0  0  0  0  0
    4.6325   -2.9821    1.1066 C   0  0  0  1  0  0  0  0  0  0  0  0
    5.6640   -3.5372    0.1338 C   0  0  0  1  0  0  0  0  0  0  0  0
    5.1931   -3.1516   -1.2618 C   0  0  0  1  0  0  0  0  0  0  0  0
    3.6315   -3.3126   -1.1415 C   0  0  0  1  0  0  0  0  0  0  0  0
    5.7496   -4.0638   -2.2875 N   0  0  0  1  0  0  0  0  0  0  0  0
    0.9179    2.4773    0.0988 H   0  0  0  1  0  0  0  0  0  0  0  0
   -2.1490    1.9441   -0.0608 H   0  0  0  1  0  0  0  0  0  0  0  0
   -3.6678   -2.2268   -1.1046 H   0  0  0  1  0  0  0  0  0  0  0  0
   -4.2226   -4.5877   -1.1731 H   0  0  0  1  0  0  0  0  0  0  0  0
   -0.6456   -5.4845    0.8347 H   0  0  0  1  0  0  0  0  0  0  0  0
   -0.0918   -3.1275    0.9031 H   0  0  0  1  0  0  0  0  0  0  0  0
   -2.2204   -8.4290    0.3113 H   0  0  0  1  0  0  0  0  0  0  0  0
   -1.9479   -7.2171    1.5399 H   0  0  0  1  0  0  0  0  0  0  0  0
   -0.9113   -7.2855    0.1346 H   0  0  0  1  0  0  0  0  0  0  0  0
    3.9205   -0.6935    0.1621 H   0  0  0  1  0  0  0  0  0  0  0  0
    2.5288   -3.1968    0.7313 H   0  0  0  1  0  0  0  0  0  0  0  0
    4.4281   -3.6946    1.8782 H   0  0  0  1  0  0  0  0  0  0  0  0
    4.9870   -2.0727    1.5450 H   0  0  0  1  0  0  0  0  0  0  0  0
    6.6251   -3.1103    0.3308 H   0  0  0  1  0  0  0  0  0  0  0  0
    5.7210   -4.6020    0.2235 H   0  0  0  1  0  0  0  0  0  0  0  0
    5.4620   -2.1430   -1.4970 H   0  0  0  1  0  0  0  0  0  0  0  0
    3.3383   -4.3401   -1.1957 H   0  0  0  1  0  0  0  0  0  0  0  0
    3.1207   -2.7550   -1.8986 H   0  0  0  1  0  0  0  0  0  0  0  0
    5.4296   -3.7938   -3.1736 H   0  0  0  1  0  0  0  0  0  0  0  0
    5.4589   -4.9808   -2.1010 H   0  0  0  1  0  0  0  0  0  0  0  0
  1  2  4  0  0  0  0
  1  6  4  0  0  0  0
  1 18  1  0  0  0  0
  2  3  4  0  0  0  0
  3  4  4  0  0  0  0
  3 25  1  0  0  0  0
  4  5  4  0  0  0  0
  4  7  4  0  0  0  0
  5  6  4  0  0  0  0
  5  9  4  0  0  0  0
  7  8  4  0  0  0  0
  7 26  1  0  0  0  0
  8  9  4  0  0  0  0
  9 10  1  0  0  0  0
 10 11  4  0  0  0  0
 10 15  4  0  0  0  0
 11 12  4  0  0  0  0
 11 27  1  0  0  0  0
 12 13  4  0  0  0  0
 12 28  1  0  0  0  0
 13 14  4  0  0  0  0
 13 16  1  0  0  0  0
 14 15  4  0  0  0  0
 14 29  1  0  0  0  0
 15 30  1  0  0  0  0
 16 17  1  0  0  0  0
 17 31  1  0  0  0  0
 17 32  1  0  0  0  0
 17 33  1  0  0  0  0
 18 19  1  0  0  0  0
 18 34  1  0  0  0  0
 19 20  1  0  0  0  0
 19 23  1  0  0  0  0
 19 35  1  0  0  0  0
 20 21  1  0  0  0  0
 20 36  1  0  0  0  0
 20 37  1  0  0  0  0
 21 22  1  0  0  0  0
 21 38  1  0  0  0  0
 21 39  1  0  0  0  0
 22 23  1  0  0  0  0
 22 24  1  0  0  0  0
 22 40  1  0  0  0  0
 23 41  1  0  0  0  0
 23 42  1  0  0  0  0
 24 43  1  0  0  0  0
 24 44  1  0  0  0  0
M  END
> <ConfClashScore>
0 

> <ConfOneFourInteractionScore>
-0.984337 

> <ConfScore>
-0.0248945 

> <ConfScorePBest>
0.00295348 

> <ConfTolerance>
0.401585 

$$$$
c22.sdf
 OpenBabel04162418103D

 44 47  0  0  0  0  0  0  0  0999 V2000
    1.9453   -0.6101    0.1255 C   0  0  0  1  0  0  0  0  0  0  0  0
    2.0363    0.7234    0.1482 N   0  0  0  1  0  0  0  0  0  0  0  0
    0.8946    1.4376    0.0881 C   0  0  0  1  0  0  0  0  0  0  0  0
   -0.3452    0.7386    0.0096 C   0  0  0  1  0  0  0  0  0  0  0  0
   -0.2528   -0.6477    0.0020 C   0  0  0  1  0  0  0  0  0  0  0  0
    0.8780   -1.3913    0.0539 N   0  0  0  1  0  0  0  0  0  0  0  0
   -1.7303    0.9921   -0.0538 C   0  0  0  1  0  0  0  0  0  0  0  0
   -2.4281   -0.1192   -0.1028 N   0  0  0  1  0  0  0  0  0  0  0  0
   -1.5125   -1.1342   -0.0681 N   0  0  0  1  0  0  0  0  0  0  0  0
   -1.8385   -2.5051   -0.1011 C   0  0  0  1  0  0  0  0  0  0  0  0
   -1.4032   -3.2410   -1.1870 C   0  0  0  1  0  0  0  0  0  0  0  0
   -1.6914   -4.5945   -1.2672 C   0  0  0  1  0  0  0  0  0  0  0  0
   -2.4185   -5.2071   -0.2640 C   0  0  0  1  0  0  0  0  0  0  0  0
   -2.8550   -4.4688    0.8251 C   0  0  0  1  0  0  0  0  0  0  0  0
   -2.5677   -3.1193    0.9051 C   0  0  0  1  0  0  0  0  0  0  0  0
   -2.7598   -6.5006   -0.2359 O   0  0  0  1  0  0  0  0  0  0  0  0
   -3.3663   -7.1122    0.9518 C   0  0  0  1  0  0  0  0  0  0  0  0
    3.1214   -1.2604    0.1848 N   0  0  0  1  0  0  0  0  0  0  0  0
    4.4536   -0.6525    0.1592 C   0  0  0  1  0  0  0  0  0  0  0  0
    4.6984    0.0466   -1.1832 C   0  0  0  1  0  0  0  0  0  0  0  0
    5.8174   -0.7429   -1.8807 C   0  0  0  1  0  0  0  0  0  0  0  0
    5.8299   -2.1123   -1.1959 C   0  0  0  1  0  0  0  0  0  0  0  0
    5.5310   -1.7253    0.2583 C   0  0  0  1  0  0  0  0  0  0  0  0
    7.1410   -2.7634   -1.3201 N   0  0  0  1  0  0  0  0  0  0  0  0
    0.9178    2.4773    0.0988 H   0  0  0  1  0  0  0  0  0  0  0  0
   -2.1491    1.9440   -0.0607 H   0  0  0  1  0  0  0  0  0  0  0  0
   -0.8595   -2.7793   -1.9438 H   0  0  0  1  0  0  0  0  0  0  0  0
   -1.3604   -5.1492   -2.0824 H   0  0  0  1  0  0  0  0  0  0  0  0
   -3.3987   -4.9305    1.5819 H   0  0  0  1  0  0  0  0  0  0  0  0
   -2.8987   -2.5646    1.7203 H   0  0  0  1  0  0  0  0  0  0  0  0
   -4.3194   -6.6628    1.1377 H   0  0  0  1  0  0  0  0  0  0  0  0
   -2.7286   -6.9581    1.7971 H   0  0  0  1  0  0  0  0  0  0  0  0
   -3.4932   -8.1618    0.7868 H   0  0  0  1  0  0  0  0  0  0  0  0
    3.0830   -2.2373    0.2520 H   0  0  0  1  0  0  0  0  0  0  0  0
    4.5439    0.0444    0.9661 H   0  0  0  1  0  0  0  0  0  0  0  0
    3.8083    0.0313   -1.7769 H   0  0  0  1  0  0  0  0  0  0  0  0
    5.0037    1.0596   -1.0233 H   0  0  0  1  0  0  0  0  0  0  0  0
    5.6078   -0.8477   -2.9247 H   0  0  0  1  0  0  0  0  0  0  0  0
    6.7590   -0.2512   -1.7529 H   0  0  0  1  0  0  0  0  0  0  0  0
    5.0726   -2.7555   -1.5932 H   0  0  0  1  0  0  0  0  0  0  0  0
    6.4077   -1.3368    0.7331 H   0  0  0  1  0  0  0  0  0  0  0  0
    5.1722   -2.5706    0.8076 H   0  0  0  1  0  0  0  0  0  0  0  0
    7.2939   -3.0151   -2.2548 H   0  0  0  1  0  0  0  0  0  0  0  0
    7.1615   -3.5660   -0.7583 H   0  0  0  1  0  0  0  0  0  0  0  0
  1  2  4  0  0  0  0
  1  6  4  0  0  0  0
  1 18  1  0  0  0  0
  2  3  4  0  0  0  0
  3  4  4  0  0  0  0
  3 25  1  0  0  0  0
  4  5  4  0  0  0  0
  4  7  4  0  0  0  0
  5  6  4  0  0  0  0
  5  9  4  0  0  0  0
  7  8  4  0  0  0  0
  7 26  1  0  0  0  0
  8  9  4  0  0  0  0
  9 10  1  0  0  0  0
 10 11  4  0  0  0  0
 10 15  4  0  0  0  0
 11 12  4  0  0  0  0
 11 27  1  0  0  0  0
 12 13  4  0  0  0  0
 12 28  1  0  0  0  0
 13 14  4  0  0  0  0
 13 16  1  0  0  0  0
 14 15  4  0  0  0  0
 14 29  1  0  0  0  0
 15 30  1  0  0  0  0
 16 17  1  0  0  0  0
 17 31  1  0  0  0  0
 17 32  1  0  0  0  0
 17 33  1  0  0  0  0
 18 19  1  0  0  0  0
 18 34  1  0  0  0  0
 19 20  1  0  0  0  0
 19 23  1  0  0  0  0
 19 35  1  0  0  0  0
 20 21  1  0  0  0  0
 20 36  1  0  0  0  0
 20 37  1  0  0  0  0
 21 22  1  0  0  0  0
 21 38  1  0  0  0  0
 21 39  1  0  0  0  0
 22 23  1  0  0  0  0
 22 24  1  0  0  0  0
 22 40  1  0  0  0  0
 23 41  1  0  0  0  0
 23 42  1  0  0  0  0
 24 43  1  0  0  0  0
 24 44  1  0  0  0  0
M  END
> <ConfClashScore>
0 

> <ConfOneFourInteractionScore>
-0.985399 

> <ConfScore>
-0.0247416 

> <ConfScorePBest>
0.00294015 

> <ConfTolerance>
0.472441 

$$$$
c22.sdf
 OpenBabel04162418103D

 44 47  0  0  0  0  0  0  0  0999 V2000
    1.9452   -0.6102    0.1256 C   0  0  0  1  0  0  0  0  0  0  0  0
    2.0363    0.7233    0.1480 N   0  0  0  1  0  0  0  0  0  0  0  0
    0.8946    1.4376    0.0881 C   0  0  0  1  0  0  0  0  0  0  0  0
   -0.3452    0.7386    0.0096 C   0  0  0  1  0  0  0  0  0  0  0  0
   -0.2529   -0.6477    0.0020 C   0  0  0  1  0  0  0  0  0  0  0  0
    0.8780   -1.3913    0.0539 N   0  0  0  1  0  0  0  0  0  0  0  0
   -1.7303    0.9921   -0.0538 C   0  0  0  1  0  0  0  0  0  0  0  0
   -2.4282   -0.1191   -0.1028 N   0  0  0  1  0  0  0  0  0  0  0  0
   -1.5125   -1.1341   -0.0681 N   0  0  0  1  0  0  0  0  0  0  0  0
   -1.8419   -2.5192   -0.1012 C   0  0  0  1  0  0  0  0  0  0  0  0
   -3.0254   -2.9342   -0.6820 C   0  0  0  1  0  0  0  0  0  0  0  0
   -3.3435   -4.2830   -0.7190 C   0  0  0  1  0  0  0  0  0  0  0  0
   -2.4798   -5.2122   -0.1706 C   0  0  0  1  0  0  0  0  0  0  0  0
   -1.2928   -4.7957    0.4119 C   0  0  0  1  0  0  0  0  0  0  0  0
   -0.9755   -3.4509    0.4488 C   0  0  0  1  0  0  0  0  0  0  0  0
   -2.8340   -6.5180   -0.1157 O   0  0  0  1  0  0  0  0  0  0  0  0
   -1.9011   -7.4261    0.4905 C   0  0  0  1  0  0  0  0  0  0  0  0
    3.1256   -1.2629    0.1851 N   0  0  0  1  0  0  0  0  0  0  0  0
    4.4277   -0.5945    0.2004 C   0  0  0  1  0  0  0  0  0  0  0  0
    5.5364   -1.5932   -0.1381 C   0  0  0  1  0  0  0  0  0  0  0  0
    6.3499   -1.7656    1.1373 C   0  0  0  1  0  0  0  0  0  0  0  0
    5.4697   -1.2786    2.2803 C   0  0  0  1  0  0  0  0  0  0  0  0
    4.7343   -0.0470    1.6314 C   0  0  0  1  0  0  0  0  0  0  0  0
    6.2907   -0.8612    3.4561 N   0  0  0  1  0  0  0  0  0  0  0  0
    0.9179    2.4772    0.0987 H   0  0  0  1  0  0  0  0  0  0  0  0
   -2.1490    1.9442   -0.0608 H   0  0  0  1  0  0  0  0  0  0  0  0
   -3.6773   -2.2348   -1.0911 H   0  0  0  1  0  0  0  0  0  0  0  0
   -4.2322   -4.5957   -1.1596 H   0  0  0  1  0  0  0  0  0  0  0  0
   -0.6409   -5.4951    0.8211 H   0  0  0  1  0  0  0  0  0  0  0  0
   -0.0868   -3.1382    0.8894 H   0  0  0  1  0  0  0  0  0  0  0  0
   -1.6523   -7.0802    1.4720 H   0  0  0  1  0  0  0  0  0  0  0  0
   -1.0138   -7.4761   -0.1054 H   0  0  0  1  0  0  0  0  0  0  0  0
   -2.3422   -8.3987    0.5566 H   0  0  0  1  0  0  0  0  0  0  0  0
    3.1098   -2.2422    0.2202 H   0  0  0  1  0  0  0  0  0  0  0  0
    4.4258    0.2075   -0.5080 H   0  0  0  1  0  0  0  0  0  0  0  0
    5.1141   -2.5293   -0.4389 H   0  0  0  1  0  0  0  0  0  0  0  0
    6.1537   -1.2109   -0.9239 H   0  0  0  1  0  0  0  0  0  0  0  0
    7.2454   -1.1822    1.0861 H   0  0  0  1  0  0  0  0  0  0  0  0
    6.6023   -2.7958    1.2783 H   0  0  0  1  0  0  0  0  0  0  0  0
    4.7723   -2.0324    2.5812 H   0  0  0  1  0  0  0  0  0  0  0  0
    5.3694    0.8133    1.5940 H   0  0  0  1  0  0  0  0  0  0  0  0
    3.8355    0.1952    2.1591 H   0  0  0  1  0  0  0  0  0  0  0  0
    6.8535   -0.0983    3.2078 H   0  0  0  1  0  0  0  0  0  0  0  0
    6.8591   -1.6077    3.7389 H   0  0  0  1  0  0  0  0  0  0  0  0
  1  2  4  0  0  0  0
  1  6  4  0  0  0  0
  1 18  1  0  0  0  0
  2  3  4  0  0  0  0
  3  4  4  0  0  0  0
  3 25  1  0  0  0  0
  4  5  4  0  0  0  0
  4  7  4  0  0  0  0
  5  6  4  0  0  0  0
  5  9  4  0  0  0  0
  7  8  4  0  0  0  0
  7 26  1  0  0  0  0
  8  9  4  0  0  0  0
  9 10  1  0  0  0  0
 10 11  4  0  0  0  0
 10 15  4  0  0  0  0
 11 12  4  0  0  0  0
 11 27  1  0  0  0  0
 12 13  4  0  0  0  0
 12 28  1  0  0  0  0
 13 14  4  0  0  0  0
 13 16  1  0  0  0  0
 14 15  4  0  0  0  0
 14 29  1  0  0  0  0
 15 30  1  0  0  0  0
 16 17  1  0  0  0  0
 17 31  1  0  0  0  0
 17 32  1  0  0  0  0
 17 33  1  0  0  0  0
 18 19  1  0  0  0  0
 18 34  1  0  0  0  0
 19 20  1  0  0  0  0
 19 23  1  0  0  0  0
 19 35  1  0  0  0  0
 20 21  1  0  0  0  0
 20 36  1  0  0  0  0
 20 37  1  0  0  0  0
 21 22  1  0  0  0  0
 21 38  1  0  0  0  0
 21 39  1  0  0  0  0
 22 23  1  0  0  0  0
 22 24  1  0  0  0  0
 22 40  1  0  0  0  0
 23 41  1  0  0  0  0
 23 42  1  0  0  0  0
 24 43  1  0  0  0  0
 24 44  1  0  0  0  0
M  END
> <ConfClashScore>
0 

> <ConfOneFourInteractionScore>
-0.984337 

> <ConfScore>
-0.0218921 

> <ConfScorePBest>
0.00292682 

> <ConfTolerance>
0.249557 

$$$$
c22.sdf
 OpenBabel04162418103D

 44 47  0  0  0  0  0  0  0  0999 V2000
    1.9452   -0.6102    0.1255 C   0  0  0  1  0  0  0  0  0  0  0  0
    2.0363    0.7233    0.1482 N   0  0  0  1  0  0  0  0  0  0  0  0
    0.8946    1.4375    0.0881 C   0  0  0  1  0  0  0  0  0  0  0  0
   -0.3452    0.7386    0.0096 C   0  0  0  1  0  0  0  0  0  0  0  0
   -0.2529   -0.6477    0.0019 C   0  0  0  1  0  0  0  0  0  0  0  0
    0.8779   -1.3913    0.0539 N   0  0  0  1  0  0  0  0  0  0  0  0
   -1.7304    0.9921   -0.0538 C   0  0  0  1  0  0  0  0  0  0  0  0
   -2.4282   -0.1191   -0.1028 N   0  0  0  1  0  0  0  0  0  0  0  0
   -1.5125   -1.1342   -0.0681 N   0  0  0  1  0  0  0  0  0  0  0  0
   -1.8386   -2.5051   -0.1011 C   0  0  0  1  0  0  0  0  0  0  0  0
   -0.9765   -3.4822    0.3596 C   0  0  0  1  0  0  0  0  0  0  0  0
   -1.3501   -4.8160    0.3085 C   0  0  0  1  0  0  0  0  0  0  0  0
   -2.5826   -5.1694   -0.2080 C   0  0  0  1  0  0  0  0  0  0  0  0
   -3.4470   -4.1893   -0.6701 C   0  0  0  1  0  0  0  0  0  0  0  0
   -3.0745   -2.8591   -0.6192 C   0  0  0  1  0  0  0  0  0  0  0  0
   -2.8842   -6.4893   -0.2344 O   0  0  0  1  0  0  0  0  0  0  0  0
   -1.8046   -7.4134   -0.0273 C   0  0  0  1  0  0  0  0  0  0  0  0
    3.1213   -1.2605    0.1849 N   0  0  0  1  0  0  0  0  0  0  0  0
    3.2461   -2.7119    0.2235 C   0  0  0  1  0  0  0  0  0  0  0  0
    4.6237   -3.1183    0.7538 C   0  0  0  1  0  0  0  0  0  0  0  0
    4.7727   -4.5251    0.1604 C   0  0  0  1  0  0  0  0  0  0  0  0
    4.2283   -4.4060   -1.2577 C   0  0  0  1  0  0  0  0  0  0  0  0
    3.1715   -3.2970   -1.1957 C   0  0  0  1  0  0  0  0  0  0  0  0
    3.6172   -5.6766   -1.6833 N   0  0  0  1  0  0  0  0  0  0  0  0
    0.9179    2.4772    0.0989 H   0  0  0  1  0  0  0  0  0  0  0  0
   -2.1490    1.9441   -0.0608 H   0  0  0  1  0  0  0  0  0  0  0  0
   -0.0476   -3.2167    0.7446 H   0  0  0  1  0  0  0  0  0  0  0  0
   -0.7032   -5.5511    0.6589 H   0  0  0  1  0  0  0  0  0  0  0  0
   -4.3759   -4.4546   -1.0551 H   0  0  0  1  0  0  0  0  0  0  0  0
   -3.7215   -2.1242   -0.9695 H   0  0  0  1  0  0  0  0  0  0  0  0
   -1.2704   -7.1456    0.8603 H   0  0  0  1  0  0  0  0  0  0  0  0
   -1.1413   -7.3804   -0.8662 H   0  0  0  1  0  0  0  0  0  0  0  0
   -2.1979   -8.4030    0.0784 H   0  0  0  1  0  0  0  0  0  0  0  0
    3.9429   -0.7265    0.2032 H   0  0  0  1  0  0  0  0  0  0  0  0
    2.4719   -3.1207    0.8387 H   0  0  0  1  0  0  0  0  0  0  0  0
    5.3893   -2.4605    0.3987 H   0  0  0  1  0  0  0  0  0  0  0  0
    4.6402   -3.1409    1.8235 H   0  0  0  1  0  0  0  0  0  0  0  0
    4.2041   -5.2347    0.7245 H   0  0  0  1  0  0  0  0  0  0  0  0
    5.8007   -4.8216    0.1462 H   0  0  0  1  0  0  0  0  0  0  0  0
    5.0104   -4.1403   -1.9378 H   0  0  0  1  0  0  0  0  0  0  0  0
    2.1982   -3.7017   -1.3793 H   0  0  0  1  0  0  0  0  0  0  0  0
    3.3860   -2.5397   -1.9206 H   0  0  0  1  0  0  0  0  0  0  0  0
    2.9926   -5.9862   -0.9946 H   0  0  0  1  0  0  0  0  0  0  0  0
    4.3186   -6.3486   -1.8137 H   0  0  0  1  0  0  0  0  0  0  0  0
  1  2  4  0  0  0  0
  1  6  4  0  0  0  0
  1 18  1  0  0  0  0
  2  3  4  0  0  0  0
  3  4  4  0  0  0  0
  3 25  1  0  0  0  0
  4  5  4  0  0  0  0
  4  7  4  0  0  0  0
  5  6  4  0  0  0  0
  5  9  4  0  0  0  0
  7  8  4  0  0  0  0
  7 26  1  0  0  0  0
  8  9  4  0  0  0  0
  9 10  1  0  0  0  0
 10 11  4  0  0  0  0
 10 15  4  0  0  0  0
 11 12  4  0  0  0  0
 11 27  1  0  0  0  0
 12 13  4  0  0  0  0
 12 28  1  0  0  0  0
 13 14  4  0  0  0  0
 13 16  1  0  0  0  0
 14 15  4  0  0  0  0
 14 29  1  0  0  0  0
 15 30  1  0  0  0  0
 16 17  1  0  0  0  0
 17 31  1  0  0  0  0
 17 32  1  0  0  0  0
 17 33  1  0  0  0  0
 18 19  1  0  0  0  0
 18 34  1  0  0  0  0
 19 20  1  0  0  0  0
 19 23  1  0  0  0  0
 19 35  1  0  0  0  0
 20 21  1  0  0  0  0
 20 36  1  0  0  0  0
 20 37  1  0  0  0  0
 21 22  1  0  0  0  0
 21 38  1  0  0  0  0
 21 39  1  0  0  0  0
 22 23  1  0  0  0  0
 22 24  1  0  0  0  0
 22 40  1  0  0  0  0
 23 41  1  0  0  0  0
 23 42  1  0  0  0  0
 24 43  1  0  0  0  0
 24 44  1  0  0  0  0
M  END
> <ConfClashScore>
1.70277e-06 

> <ConfOneFourInteractionScore>
-0.984337 

> <ConfScore>
-0.0217218 

> <ConfScorePBest>
0.0029135 

> <ConfTolerance>
0.299616 

$$$$
c22.sdf
 OpenBabel04162418103D

 44 47  0  0  0  0  0  0  0  0999 V2000
    1.9453   -0.6102    0.1256 C   0  0  0  1  0  0  0  0  0  0  0  0
    2.0363    0.7233    0.1482 N   0  0  0  1  0  0  0  0  0  0  0  0
    0.8946    1.4376    0.0881 C   0  0  0  1  0  0  0  0  0  0  0  0
   -0.3452    0.7386    0.0096 C   0  0  0  1  0  0  0  0  0  0  0  0
   -0.2528   -0.6478    0.0020 C   0  0  0  1  0  0  0  0  0  0  0  0
    0.8780   -1.3912    0.0539 N   0  0  0  1  0  0  0  0  0  0  0  0
   -1.7304    0.9921   -0.0538 C   0  0  0  1  0  0  0  0  0  0  0  0
   -2.4281   -0.1192   -0.1029 N   0  0  0  1  0  0  0  0  0  0  0  0
   -1.5126   -1.1342   -0.0681 N   0  0  0  1  0  0  0  0  0  0  0  0
   -1.8418   -2.5193   -0.1014 C   0  0  0  1  0  0  0  0  0  0  0  0
   -0.9244   -3.4364   -0.5783 C   0  0  0  1  0  0  0  0  0  0  0  0
   -1.2430   -4.7851   -0.6057 C   0  0  0  1  0  0  0  0  0  0  0  0
   -2.4799   -5.2124   -0.1610 C   0  0  0  1  0  0  0  0  0  0  0  0
   -3.4000   -4.2924    0.3173 C   0  0  0  1  0  0  0  0  0  0  0  0
   -3.0825   -2.9475    0.3446 C   0  0  0  1  0  0  0  0  0  0  0  0
   -2.9042   -6.4982   -0.1444 O   0  0  0  1  0  0  0  0  0  0  0  0
   -1.9910   -7.4968   -0.6253 C   0  0  0  1  0  0  0  0  0  0  0  0
    3.1379   -1.2696    0.1858 N   0  0  0  1  0  0  0  0  0  0  0  0
    4.4129   -0.5513    0.2213 C   0  0  0  1  0  0  0  0  0  0  0  0
    4.6262    0.2324   -1.0698 C   0  0  0  1  0  0  0  0  0  0  0  0
    5.5808   -0.5835   -1.9502 C   0  0  0  1  0  0  0  0  0  0  0  0
    6.5564   -1.2019   -0.8933 C   0  0  0  1  0  0  0  0  0  0  0  0
    5.6148   -1.5577    0.2721 C   0  0  0  1  0  0  0  0  0  0  0  0
    7.5890   -0.2079   -0.4672 N   0  0  0  1  0  0  0  0  0  0  0  0
    0.9178    2.4773    0.0988 H   0  0  0  1  0  0  0  0  0  0  0  0
   -2.1490    1.9440   -0.0608 H   0  0  0  1  0  0  0  0  0  0  0  0
    0.0049   -3.1145   -0.9166 H   0  0  0  1  0  0  0  0  0  0  0  0
   -0.5512   -5.4756   -0.9608 H   0  0  0  1  0  0  0  0  0  0  0  0
   -4.3293   -4.6141    0.6556 H   0  0  0  1  0  0  0  0  0  0  0  0
   -3.7743   -2.2569    0.6998 H   0  0  0  1  0  0  0  0  0  0  0  0
   -1.4948   -7.1348   -1.5015 H   0  0  0  1  0  0  0  0  0  0  0  0
   -2.5317   -8.3886   -0.8649 H   0  0  0  1  0  0  0  0  0  0  0  0
   -1.2660   -7.7112    0.1319 H   0  0  0  1  0  0  0  0  0  0  0  0
    3.1413   -2.2493    0.2058 H   0  0  0  1  0  0  0  0  0  0  0  0
    4.4310    0.1026    1.0681 H   0  0  0  1  0  0  0  0  0  0  0  0
    3.6919    0.3690   -1.5730 H   0  0  0  1  0  0  0  0  0  0  0  0
    5.0570    1.1870   -0.8509 H   0  0  0  1  0  0  0  0  0  0  0  0
    6.1041    0.0443   -2.6407 H   0  0  0  1  0  0  0  0  0  0  0  0
    5.0568   -1.3463   -2.4873 H   0  0  0  1  0  0  0  0  0  0  0  0
    7.0393   -2.0753   -1.2791 H   0  0  0  1  0  0  0  0  0  0  0  0
    5.2581   -2.5604    0.1618 H   0  0  0  1  0  0  0  0  0  0  0  0
    6.1328   -1.4631    1.2035 H   0  0  0  1  0  0  0  0  0  0  0  0
    7.1501    0.5566   -0.0391 H   0  0  0  1  0  0  0  0  0  0  0  0
    8.0891    0.1000   -1.2517 H   0  0  0  1  0  0  0  0  0  0  0  0
  1  2  4  0  0  0  0
  1  6  4  0  0  0  0
  1 18  1  0  0  0  0
  2  3  4  0  0  0  0
  3  4  4  0  0  0  0
  3 25  1  0  0  0  0
  4  5  4  0  0  0  0
  4  7  4  0  0  0  0
  5  6  4  0  0  0  0
  5  9  4  0  0  0  0
  7  8  4  0  0  0  0
  7 26  1  0  0  0  0
  8  9  4  0  0  0  0
  9 10  1  0  0  0  0
 10 11  4  0  0  0  0
 10 15  4  0  0  0  0
 11 12  4  0  0  0  0
 11 27  1  0  0  0  0
 12 13  4  0  0  0  0
 12 28  1  0  0  0  0
 13 14  4  0  0  0  0
 13 16  1  0  0  0  0
 14 15  4  0  0  0  0
 14 29  1  0  0  0  0
 15 30  1  0  0  0  0
 16 17  1  0  0  0  0
 17 31  1  0  0  0  0
 17 32  1  0  0  0  0
 17 33  1  0  0  0  0
 18 19  1  0  0  0  0
 18 34  1  0  0  0  0
 19 20  1  0  0  0  0
 19 23  1  0  0  0  0
 19 35  1  0  0  0  0
 20 21  1  0  0  0  0
 20 36  1  0  0  0  0
 20 37  1  0  0  0  0
 21 22  1  0  0  0  0
 21 38  1  0  0  0  0
 21 39  1  0  0  0  0
 22 23  1  0  0  0  0
 22 24  1  0  0  0  0
 22 40  1  0  0  0  0
 23 41  1  0  0  0  0
 23 42  1  0  0  0  0
 24 43  1  0  0  0  0
 24 44  1  0  0  0  0
M  END
> <ConfClashScore>
0 

> <ConfOneFourInteractionScore>
-0.981848 

> <ConfScore>
-0.0215749 

> <ConfScorePBest>
0.00290017 

> <ConfTolerance>
0.430108 

$$$$
c22.sdf
 OpenBabel04162418103D

 44 47  0  0  0  0  0  0  0  0999 V2000
    1.9452   -0.6101    0.1256 C   0  0  0  1  0  0  0  0  0  0  0  0
    2.0363    0.7233    0.1482 N   0  0  0  1  0  0  0  0  0  0  0  0
    0.8946    1.4376    0.0881 C   0  0  0  1  0  0  0  0  0  0  0  0
   -0.3452    0.7386    0.0096 C   0  0  0  1  0  0  0  0  0  0  0  0
   -0.2528   -0.6477    0.0020 C   0  0  0  1  0  0  0  0  0  0  0  0
    0.8779   -1.3912    0.0540 N   0  0  0  1  0  0  0  0  0  0  0  0
   -1.7303    0.9921   -0.0538 C   0  0  0  1  0  0  0  0  0  0  0  0
   -2.4281   -0.1191   -0.1028 N   0  0  0  1  0  0  0  0  0  0  0  0
   -1.5126   -1.1341   -0.0681 N   0  0  0  1  0  0  0  0  0  0  0  0
   -1.8369   -2.4985   -0.1008 C   0  0  0  1  0  0  0  0  0  0  0  0
   -2.5116   -2.9744    1.0076 C   0  0  0  1  0  0  0  0  0  0  0  0
   -2.8836   -4.3081    1.0725 C   0  0  0  1  0  0  0  0  0  0  0  0
   -2.5751   -5.1632    0.0314 C   0  0  0  1  0  0  0  0  0  0  0  0
   -1.8984   -4.6857   -1.0801 C   0  0  0  1  0  0  0  0  0  0  0  0
   -1.5274   -3.3559   -1.1450 C   0  0  0  1  0  0  0  0  0  0  0  0
   -2.9837   -6.4421    0.2093 O   0  0  0  1  0  0  0  0  0  0  0  0
   -2.5759   -7.4042   -0.7758 C   0  0  0  1  0  0  0  0  0  0  0  0
    3.1274   -1.2638    0.1853 N   0  0  0  1  0  0  0  0  0  0  0  0
    4.4320   -0.5916    0.2696 C   0  0  0  1  0  0  0  0  0  0  0  0
    5.5255   -1.5831    0.6537 C   0  0  0  1  0  0  0  0  0  0  0  0
    5.7997   -1.4070    2.1523 C   0  0  0  1  0  0  0  0  0  0  0  0
    5.6356    0.1389    2.3378 C   0  0  0  1  0  0  0  0  0  0  0  0
    4.4370    0.4657    1.4281 C   0  0  0  1  0  0  0  0  0  0  0  0
    6.8489    0.8592    1.8991 N   0  0  0  1  0  0  0  0  0  0  0  0
    0.9179    2.4773    0.0988 H   0  0  0  1  0  0  0  0  0  0  0  0
   -2.1490    1.9440   -0.0609 H   0  0  0  1  0  0  0  0  0  0  0  0
   -2.7403   -2.3318    1.7928 H   0  0  0  1  0  0  0  0  0  0  0  0
   -3.3949   -4.6654    1.9048 H   0  0  0  1  0  0  0  0  0  0  0  0
   -1.6697   -5.3283   -1.8653 H   0  0  0  1  0  0  0  0  0  0  0  0
   -1.0161   -2.9986   -1.9772 H   0  0  0  1  0  0  0  0  0  0  0  0
   -1.5270   -7.3026   -0.9616 H   0  0  0  1  0  0  0  0  0  0  0  0
   -3.1166   -7.2359   -1.6837 H   0  0  0  1  0  0  0  0  0  0  0  0
   -2.7800   -8.3910   -0.4161 H   0  0  0  1  0  0  0  0  0  0  0  0
    3.1137   -2.2435    0.1716 H   0  0  0  1  0  0  0  0  0  0  0  0
    4.6554   -0.1265   -0.6678 H   0  0  0  1  0  0  0  0  0  0  0  0
    6.4146   -1.3818    0.0934 H   0  0  0  1  0  0  0  0  0  0  0  0
    5.1981   -2.5826    0.4571 H   0  0  0  1  0  0  0  0  0  0  0  0
    5.0887   -1.9462    2.7427 H   0  0  0  1  0  0  0  0  0  0  0  0
    6.7892   -1.7255    2.4057 H   0  0  0  1  0  0  0  0  0  0  0  0
    5.4237    0.3843    3.3575 H   0  0  0  1  0  0  0  0  0  0  0  0
    4.5414    1.4511    1.0245 H   0  0  0  1  0  0  0  0  0  0  0  0
    3.5259    0.4027    1.9856 H   0  0  0  1  0  0  0  0  0  0  0  0
    7.6202    0.5464    2.4164 H   0  0  0  1  0  0  0  0  0  0  0  0
    6.7276    1.8209    2.0432 H   0  0  0  1  0  0  0  0  0  0  0  0
  1  2  4  0  0  0  0
  1  6  4  0  0  0  0
  1 18  1  0  0  0  0
  2  3  4  0  0  0  0
  3  4  4  0  0  0  0
  3 25  1  0  0  0  0
  4  5  4  0  0  0  0
  4  7  4  0  0  0  0
  5  6  4  0  0  0  0
  5  9  4  0  0  0  0
  7  8  4  0  0  0  0
  7 26  1  0  0  0  0
  8  9  4  0  0  0  0
  9 10  1  0  0  0  0
 10 11  4  0  0  0  0
 10 15  4  0  0  0  0
 11 12  4  0  0  0  0
 11 27  1  0  0  0  0
 12 13  4  0  0  0  0
 12 28  1  0  0  0  0
 13 14  4  0  0  0  0
 13 16  1  0  0  0  0
 14 15  4  0  0  0  0
 14 29  1  0  0  0  0
 15 30  1  0  0  0  0
 16 17  1  0  0  0  0
 17 31  1  0  0  0  0
 17 32  1  0  0  0  0
 17 33  1  0  0  0  0
 18 19  1  0  0  0  0
 18 34  1  0  0  0  0
 19 20  1  0  0  0  0
 19 23  1  0  0  0  0
 19 35  1  0  0  0  0
 20 21  1  0  0  0  0
 20 36  1  0  0  0  0
 20 37  1  0  0  0  0
 21 22  1  0  0  0  0
 21 38  1  0  0  0  0
 21 39  1  0  0  0  0
 22 23  1  0  0  0  0
 22 24  1  0  0  0  0
 22 40  1  0  0  0  0
 23 41  1  0  0  0  0
 23 42  1  0  0  0  0
 24 43  1  0  0  0  0
 24 44  1  0  0  0  0
M  END
> <ConfClashScore>
0 

> <ConfOneFourInteractionScore>
-0.985399 

> <ConfScore>
-0.0215244 

> <ConfScorePBest>
0.00288684 

> <ConfTolerance>
0.353032 

$$$$
c22.sdf
 OpenBabel04162418103D

 44 47  0  0  0  0  0  0  0  0999 V2000
    1.9452   -0.6102    0.1256 C   0  0  0  1  0  0  0  0  0  0  0  0
    2.0363    0.7233    0.1482 N   0  0  0  1  0  0  0  0  0  0  0  0
    0.8946    1.4376    0.0881 C   0  0  0  1  0  0  0  0  0  0  0  0
   -0.3453    0.7386    0.0096 C   0  0  0  1  0  0  0  0  0  0  0  0
   -0.2528   -0.6478    0.0021 C   0  0  0  1  0  0  0  0  0  0  0  0
    0.8779   -1.3913    0.0540 N   0  0  0  1  0  0  0  0  0  0  0  0
   -1.7304    0.9921   -0.0538 C   0  0  0  1  0  0  0  0  0  0  0  0
   -2.4282   -0.1191   -0.1028 N   0  0  0  1  0  0  0  0  0  0  0  0
   -1.5125   -1.1342   -0.0681 N   0  0  0  1  0  0  0  0  0  0  0  0
   -1.8397   -2.5098   -0.1010 C   0  0  0  1  0  0  0  0  0  0  0  0
   -0.9272   -3.4255   -0.5900 C   0  0  0  1  0  0  0  0  0  0  0  0
   -1.2457   -4.7744   -0.6173 C   0  0  0  1  0  0  0  0  0  0  0  0
   -2.4778   -5.2030   -0.1606 C   0  0  0  1  0  0  0  0  0  0  0  0
   -3.3930   -4.2844    0.3298 C   0  0  0  1  0  0  0  0  0  0  0  0
   -3.0754   -2.9395    0.3571 C   0  0  0  1  0  0  0  0  0  0  0  0
   -2.9016   -6.4890   -0.1427 O   0  0  0  1  0  0  0  0  0  0  0  0
   -1.9547   -7.4974   -0.5289 C   0  0  0  1  0  0  0  0  0  0  0  0
    3.1404   -1.2709    0.1860 N   0  0  0  1  0  0  0  0  0  0  0  0
    3.2264   -2.7155    0.0120 C   0  0  0  1  0  0  0  0  0  0  0  0
    3.8707   -3.3901    1.2300 C   0  0  0  1  0  0  0  0  0  0  0  0
    5.3632   -3.1265    1.0734 C   0  0  0  1  0  0  0  0  0  0  0  0
    5.6018   -3.0261   -0.4378 C   0  0  0  1  0  0  0  0  0  0  0  0
    4.2147   -3.0882   -1.0965 C   0  0  0  1  0  0  0  0  0  0  0  0
    6.4519   -4.1702   -0.9070 N   0  0  0  1  0  0  0  0  0  0  0  0
    0.9178    2.4773    0.0987 H   0  0  0  1  0  0  0  0  0  0  0  0
   -2.1490    1.9441   -0.0608 H   0  0  0  1  0  0  0  0  0  0  0  0
   -0.0016   -3.1026   -0.9373 H   0  0  0  1  0  0  0  0  0  0  0  0
   -0.5575   -5.4638   -0.9814 H   0  0  0  1  0  0  0  0  0  0  0  0
   -4.3185   -4.6073    0.6772 H   0  0  0  1  0  0  0  0  0  0  0  0
   -3.7635   -2.2500    0.7212 H   0  0  0  1  0  0  0  0  0  0  0  0
   -2.4674   -8.3019   -1.0134 H   0  0  0  1  0  0  0  0  0  0  0  0
   -1.4529   -7.8670    0.3408 H   0  0  0  1  0  0  0  0  0  0  0  0
   -1.2384   -7.0746   -1.2020 H   0  0  0  1  0  0  0  0  0  0  0  0
    3.9604   -0.7602    0.3506 H   0  0  0  1  0  0  0  0  0  0  0  0
    2.2514   -3.1105   -0.1840 H   0  0  0  1  0  0  0  0  0  0  0  0
    3.6710   -4.4413    1.2286 H   0  0  0  1  0  0  0  0  0  0  0  0
    3.5046   -2.9583    2.1380 H   0  0  0  1  0  0  0  0  0  0  0  0
    5.6344   -2.2114    1.5568 H   0  0  0  1  0  0  0  0  0  0  0  0
    5.9312   -3.9322    1.4893 H   0  0  0  1  0  0  0  0  0  0  0  0
    6.0844   -2.1014   -0.6762 H   0  0  0  1  0  0  0  0  0  0  0  0
    4.0160   -4.0747   -1.4600 H   0  0  0  1  0  0  0  0  0  0  0  0
    4.1519   -2.3902   -1.9051 H   0  0  0  1  0  0  0  0  0  0  0  0
    6.7382   -4.0078   -1.8301 H   0  0  0  1  0  0  0  0  0  0  0  0
    5.9325   -5.0004   -0.8676 H   0  0  0  1  0  0  0  0  0  0  0  0
  1  2  4  0  0  0  0
  1  6  4  0  0  0  0
  1 18  1  0  0  0  0
  2  3  4  0  0  0  0
  3  4  4  0  0  0  0
  3 25  1  0  0  0  0
  4  5  4  0  0  0  0
  4  7  4  0  0  0  0
  5  6  4  0  0  0  0
  5  9  4  0  0  0  0
  7  8  4  0  0  0  0
  7 26  1  0  0  0  0
  8  9  4  0  0  0  0
  9 10  1  0  0  0  0
 10 11  4  0  0  0  0
 10 15  4  0  0  0  0
 11 12  4  0  0  0  0
 11 27  1  0  0  0  0
 12 13  4  0  0  0  0
 12 28  1  0  0  0  0
 13 14  4  0  0  0  0
 13 16  1  0  0  0  0
 14 15  4  0  0  0  0
 14 29  1  0  0  0  0
 15 30  1  0  0  0  0
 16 17  1  0  0  0  0
 17 31  1  0  0  0  0
 17 32  1  0  0  0  0
 17 33  1  0  0  0  0
 18 19  1  0  0  0  0
 18 34  1  0  0  0  0
 19 20  1  0  0  0  0
 19 23  1  0  0  0  0
 19 35  1  0  0  0  0
 20 21  1  0  0  0  0
 20 36  1  0  0  0  0
 20 37  1  0  0  0  0
 21 22  1  0  0  0  0
 21 38  1  0  0  0  0
 21 39  1  0  0  0  0
 22 23  1  0  0  0  0
 22 24  1  0  0  0  0
 22 40  1  0  0  0  0
 23 41  1  0  0  0  0
 23 42  1  0  0  0  0
 24 43  1  0  0  0  0
 24 44  1  0  0  0  0
M  END
> <ConfClashScore>
0 

> <ConfOneFourInteractionScore>
-0.984337 

> <ConfScore>
-0.0210216 

> <ConfScorePBest>
0.00287351 

> <ConfTolerance>
0.437235 

$$$$
c22.sdf
 OpenBabel04162418103D

 44 47  0  0  0  0  0  0  0  0999 V2000
    1.9453   -0.6102    0.1256 C   0  0  0  1  0  0  0  0  0  0  0  0
    2.0363    0.7233    0.1482 N   0  0  0  1  0  0  0  0  0  0  0  0
    0.8946    1.4376    0.0881 C   0  0  0  1  0  0  0  0  0  0  0  0
   -0.3452    0.7386    0.0096 C   0  0  0  1  0  0  0  0  0  0  0  0
   -0.2528   -0.6477    0.0020 C   0  0  0  1  0  0  0  0  0  0  0  0
    0.8780   -1.3912    0.0539 N   0  0  0  1  0  0  0  0  0  0  0  0
   -1.7304    0.9921   -0.0538 C   0  0  0  1  0  0  0  0  0  0  0  0
   -2.4282   -0.1191   -0.1029 N   0  0  0  1  0  0  0  0  0  0  0  0
   -1.5125   -1.1342   -0.0681 N   0  0  0  1  0  0  0  0  0  0  0  0
   -1.8418   -2.5193   -0.1013 C   0  0  0  1  0  0  0  0  0  0  0  0
   -2.2826   -3.0967   -1.2772 C   0  0  0  1  0  0  0  0  0  0  0  0
   -2.5980   -4.4460   -1.3108 C   0  0  0  1  0  0  0  0  0  0  0  0
   -2.4769   -5.2129   -0.1673 C   0  0  0  1  0  0  0  0  0  0  0  0
   -2.0349   -4.6336    1.0119 C   0  0  0  1  0  0  0  0  0  0  0  0
   -1.7203   -3.2882    1.0456 C   0  0  0  1  0  0  0  0  0  0  0  0
   -2.7580   -6.5275   -0.0782 O   0  0  0  1  0  0  0  0  0  0  0  0
   -3.3285   -7.1137   -1.2712 C   0  0  0  1  0  0  0  0  0  0  0  0
    3.1214   -1.2604    0.1850 N   0  0  0  1  0  0  0  0  0  0  0  0
    3.2482   -2.7174    0.1862 C   0  0  0  1  0  0  0  0  0  0  0  0
    4.7125   -3.1532    0.0451 C   0  0  0  1  0  0  0  0  0  0  0  0
    5.0287   -2.9720   -1.4343 C   0  0  0  1  0  0  0  0  0  0  0  0
    3.6970   -3.1839   -2.1637 C   0  0  0  1  0  0  0  0  0  0  0  0
    2.6278   -3.3346   -1.0700 C   0  0  0  1  0  0  0  0  0  0  0  0
    3.7562   -4.4013   -2.9906 N   0  0  0  1  0  0  0  0  0  0  0  0
    0.9179    2.4773    0.0989 H   0  0  0  1  0  0  0  0  0  0  0  0
   -2.1490    1.9441   -0.0608 H   0  0  0  1  0  0  0  0  0  0  0  0
   -2.3775   -2.5188   -2.1366 H   0  0  0  1  0  0  0  0  0  0  0  0
   -2.9258   -4.8814   -2.1965 H   0  0  0  1  0  0  0  0  0  0  0  0
   -1.9399   -5.2115    1.8714 H   0  0  0  1  0  0  0  0  0  0  0  0
   -1.3925   -2.8527    1.9313 H   0  0  0  1  0  0  0  0  0  0  0  0
   -4.3958   -7.0556   -1.2225 H   0  0  0  1  0  0  0  0  0  0  0  0
   -3.0302   -8.1388   -1.3423 H   0  0  0  1  0  0  0  0  0  0  0  0
   -2.9814   -6.5803   -2.1314 H   0  0  0  1  0  0  0  0  0  0  0  0
    3.9417   -0.7262    0.2301 H   0  0  0  1  0  0  0  0  0  0  0  0
    2.8060   -3.1137    1.0763 H   0  0  0  1  0  0  0  0  0  0  0  0
    5.3490   -2.5370    0.6452 H   0  0  0  1  0  0  0  0  0  0  0  0
    4.8309   -4.1767    0.3335 H   0  0  0  1  0  0  0  0  0  0  0  0
    5.4040   -1.9871   -1.6190 H   0  0  0  1  0  0  0  0  0  0  0  0
    5.7499   -3.6948   -1.7542 H   0  0  0  1  0  0  0  0  0  0  0  0
    3.4760   -2.3409   -2.7845 H   0  0  0  1  0  0  0  0  0  0  0  0
    2.4006   -4.3675   -0.9074 H   0  0  0  1  0  0  0  0  0  0  0  0
    1.7354   -2.8113   -1.3434 H   0  0  0  1  0  0  0  0  0  0  0  0
    2.8693   -4.5862   -3.3644 H   0  0  0  1  0  0  0  0  0  0  0  0
    4.0416   -5.1581   -2.4373 H   0  0  0  1  0  0  0  0  0  0  0  0
  1  2  4  0  0  0  0
  1  6  4  0  0  0  0
  1 18  1  0  0  0  0
  2  3  4  0  0  0  0
  3  4  4  0  0  0  0
  3 25  1  0  0  0  0
  4  5  4  0  0  0  0
  4  7  4  0  0  0  0
  5  6  4  0  0  0  0
  5  9  4  0  0  0  0
  7  8  4  0  0  0  0
  7 26  1  0  0  0  0
  8  9  4  0  0  0  0
  9 10  1  0  0  0  0
 10 11  4  0  0  0  0
 10 15  4  0  0  0  0
 11 12  4  0  0  0  0
 11 27  1  0  0  0  0
 12 13  4  0  0  0  0
 12 28  1  0  0  0  0
 13 14  4  0  0  0  0
 13 16  1  0  0  0  0
 14 15  4  0  0  0  0
 14 29  1  0  0  0  0
 15 30  1  0  0  0  0
 16 17  1  0  0  0  0
 17 31  1  0  0  0  0
 17 32  1  0  0  0  0
 17 33  1  0  0  0  0
 18 19  1  0  0  0  0
 18 34  1  0  0  0  0
 19 20  1  0  0  0  0
 19 23  1  0  0  0  0
 19 35  1  0  0  0  0
 20 21  1  0  0  0  0
 20 36  1  0  0  0  0
 20 37  1  0  0  0  0
 21 22  1  0  0  0  0
 21 38  1  0  0  0  0
 21 39  1  0  0  0  0
 22 23  1  0  0  0  0
 22 24  1  0  0  0  0
 22 40  1  0  0  0  0
 23 41  1  0  0  0  0
 23 42  1  0  0  0  0
 24 43  1  0  0  0  0
 24 44  1  0  0  0  0
M  END
> <ConfClashScore>
0 

> <ConfOneFourInteractionScore>
-0.985399 

> <ConfScore>
-0.0207434 

> <ConfScorePBest>
0.00286018 

> <ConfTolerance>
0.379393 

$$$$
c22.sdf
 OpenBabel04162418103D

 44 47  0  0  0  0  0  0  0  0999 V2000
    1.9452   -0.6103    0.1255 C   0  0  0  1  0  0  0  0  0  0  0  0
    2.0363    0.7233    0.1481 N   0  0  0  1  0  0  0  0  0  0  0  0
    0.8946    1.4376    0.0881 C   0  0  0  1  0  0  0  0  0  0  0  0
   -0.3452    0.7385    0.0096 C   0  0  0  1  0  0  0  0  0  0  0  0
   -0.2528   -0.6478    0.0020 C   0  0  0  1  0  0  0  0  0  0  0  0
    0.8780   -1.3913    0.0539 N   0  0  0  1  0  0  0  0  0  0  0  0
   -1.7303    0.9921   -0.0538 C   0  0  0  1  0  0  0  0  0  0  0  0
   -2.4281   -0.1191   -0.1028 N   0  0  0  1  0  0  0  0  0  0  0  0
   -1.5125   -1.1342   -0.0681 N   0  0  0  1  0  0  0  0  0  0  0  0
   -1.8419   -2.5192   -0.1013 C   0  0  0  1  0  0  0  0  0  0  0  0
   -1.7864   -3.2142   -1.2947 C   0  0  0  1  0  0  0  0  0  0  0  0
   -2.1018   -4.5637   -1.3260 C   0  0  0  1  0  0  0  0  0  0  0  0
   -2.4769   -5.2130   -0.1650 C   0  0  0  1  0  0  0  0  0  0  0  0
   -2.5326   -4.5157    1.0319 C   0  0  0  1  0  0  0  0  0  0  0  0
   -2.2182   -3.1702    1.0632 C   0  0  0  1  0  0  0  0  0  0  0  0
   -2.8819   -6.5044   -0.2106 O   0  0  0  1  0  0  0  0  0  0  0  0
   -3.0039   -7.1084   -1.5078 C   0  0  0  1  0  0  0  0  0  0  0  0
    3.1257   -1.2629    0.1851 N   0  0  0  1  0  0  0  0  0  0  0  0
    3.2523   -2.7211    0.1939 C   0  0  0  1  0  0  0  0  0  0  0  0
    2.3658   -3.3246    1.2896 C   0  0  0  1  0  0  0  0  0  0  0  0
    3.3303   -3.9308    2.3015 C   0  0  0  1  0  0  0  0  0  0  0  0
    4.5606   -4.3293    1.4760 C   0  0  0  1  0  0  0  0  0  0  0  0
    4.6943   -3.1283    0.5358 C   0  0  0  1  0  0  0  0  0  0  0  0
    4.3252   -5.5822    0.7237 N   0  0  0  1  0  0  0  0  0  0  0  0
    0.9179    2.4772    0.0987 H   0  0  0  1  0  0  0  0  0  0  0  0
   -2.1489    1.9441   -0.0608 H   0  0  0  1  0  0  0  0  0  0  0  0
   -1.5079   -2.7248   -2.1691 H   0  0  0  1  0  0  0  0  0  0  0  0
   -2.0561   -5.0876   -2.2232 H   0  0  0  1  0  0  0  0  0  0  0  0
   -2.8110   -5.0052    1.9063 H   0  0  0  1  0  0  0  0  0  0  0  0
   -2.2639   -2.6463    1.9604 H   0  0  0  1  0  0  0  0  0  0  0  0
   -3.2340   -8.1475   -1.3977 H   0  0  0  1  0  0  0  0  0  0  0  0
   -2.0810   -7.0019   -2.0388 H   0  0  0  1  0  0  0  0  0  0  0  0
   -3.7877   -6.6257   -2.0534 H   0  0  0  1  0  0  0  0  0  0  0  0
    3.9464   -0.7287    0.2248 H   0  0  0  1  0  0  0  0  0  0  0  0
    2.9745   -3.1095   -0.7635 H   0  0  0  1  0  0  0  0  0  0  0  0
    1.7696   -2.5645    1.7496 H   0  0  0  1  0  0  0  0  0  0  0  0
    1.7280   -4.0804    0.8810 H   0  0  0  1  0  0  0  0  0  0  0  0
    3.5940   -3.2119    3.0487 H   0  0  0  1  0  0  0  0  0  0  0  0
    2.8957   -4.7893    2.7693 H   0  0  0  1  0  0  0  0  0  0  0  0
    5.4269   -4.4409    2.0939 H   0  0  0  1  0  0  0  0  0  0  0  0
    5.2051   -2.3248    1.0239 H   0  0  0  1  0  0  0  0  0  0  0  0
    5.2265   -3.4036   -0.3508 H   0  0  0  1  0  0  0  0  0  0  0  0
    3.5110   -5.4928    0.1858 H   0  0  0  1  0  0  0  0  0  0  0  0
    4.2206   -6.3260    1.3531 H   0  0  0  1  0  0  0  0  0  0  0  0
  1  2  4  0  0  0  0
  1  6  4  0  0  0  0
  1 18  1  0  0  0  0
  2  3  4  0  0  0  0
  3  4  4  0  0  0  0
  3 25  1  0  0  0  0
  4  5  4  0  0  0  0
  4  7  4  0  0  0  0
  5  6  4  0  0  0  0
  5  9  4  0  0  0  0
  7  8  4  0  0  0  0
  7 26  1  0  0  0  0
  8  9  4  0  0  0  0
  9 10  1  0  0  0  0
 10 11  4  0  0  0  0
 10 15  4  0  0  0  0
 11 12  4  0  0  0  0
 11 27  1  0  0  0  0
 12 13  4  0  0  0  0
 12 28  1  0  0  0  0
 13 14  4  0  0  0  0
 13 16  1  0  0  0  0
 14 15  4  0  0  0  0
 14 29  1  0  0  0  0
 15 30  1  0  0  0  0
 16 17  1  0  0  0  0
 17 31  1  0  0  0  0
 17 32  1  0  0  0  0
 17 33  1  0  0  0  0
 18 19  1  0  0  0  0
 18 34  1  0  0  0  0
 19 20  1  0  0  0  0
 19 23  1  0  0  0  0
 19 35  1  0  0  0  0
 20 21  1  0  0  0  0
 20 36  1  0  0  0  0
 20 37  1  0  0  0  0
 21 22  1  0  0  0  0
 21 38  1  0  0  0  0
 21 39  1  0  0  0  0
 22 23  1  0  0  0  0
 22 24  1  0  0  0  0
 22 40  1  0  0  0  0
 23 41  1  0  0  0  0
 23 42  1  0  0  0  0
 24 43  1  0  0  0  0
 24 44  1  0  0  0  0
M  END
> <ConfClashScore>
0 

> <ConfOneFourInteractionScore>
-0.985399 

> <ConfScore>
-0.0203966 

> <ConfScorePBest>
0.00284685 

> <ConfTolerance>
0.415901 

$$$$
c22.sdf
 OpenBabel04162418103D

 44 47  0  0  0  0  0  0  0  0999 V2000
    1.9452   -0.6102    0.1256 C   0  0  0  1  0  0  0  0  0  0  0  0
    2.0363    0.7232    0.1482 N   0  0  0  1  0  0  0  0  0  0  0  0
    0.8946    1.4376    0.0881 C   0  0  0  1  0  0  0  0  0  0  0  0
   -0.3453    0.7386    0.0096 C   0  0  0  1  0  0  0  0  0  0  0  0
   -0.2529   -0.6478    0.0020 C   0  0  0  1  0  0  0  0  0  0  0  0
    0.8779   -1.3912    0.0539 N   0  0  0  1  0  0  0  0  0  0  0  0
   -1.7304    0.9920   -0.0538 C   0  0  0  1  0  0  0  0  0  0  0  0
   -2.4282   -0.1191   -0.1029 N   0  0  0  1  0  0  0  0  0  0  0  0
   -1.5125   -1.1341   -0.0681 N   0  0  0  1  0  0  0  0  0  0  0  0
   -1.8397   -2.5099   -0.1012 C   0  0  0  1  0  0  0  0  0  0  0  0
   -1.7558   -3.1591   -1.3184 C   0  0  0  1  0  0  0  0  0  0  0  0
   -2.0601   -4.5086   -1.4064 C   0  0  0  1  0  0  0  0  0  0  0  0
   -2.4523   -5.2038   -0.2781 C   0  0  0  1  0  0  0  0  0  0  0  0
   -2.5364   -4.5524    0.9427 C   0  0  0  1  0  0  0  0  0  0  0  0
   -2.2331   -3.2069    1.0306 C   0  0  0  1  0  0  0  0  0  0  0  0
   -2.7283   -6.5129   -0.4872 O   0  0  0  1  0  0  0  0  0  0  0  0
   -3.0872   -7.2992    0.6597 C   0  0  0  1  0  0  0  0  0  0  0  0
    3.1257   -1.2629    0.1852 N   0  0  0  1  0  0  0  0  0  0  0  0
    3.2655   -2.7119    0.0327 C   0  0  0  1  0  0  0  0  0  0  0  0
    3.0676   -3.4193    1.3777 C   0  0  0  1  0  0  0  0  0  0  0  0
    3.7514   -4.7547    1.1350 C   0  0  0  1  0  0  0  0  0  0  0  0
    4.9994   -4.4042    0.3179 C   0  0  0  1  0  0  0  0  0  0  0  0
    4.6922   -3.0762   -0.3872 C   0  0  0  1  0  0  0  0  0  0  0  0
    5.2732   -5.4639   -0.6808 N   0  0  0  1  0  0  0  0  0  0  0  0
    0.9178    2.4772    0.0988 H   0  0  0  1  0  0  0  0  0  0  0  0
   -2.1490    1.9441   -0.0609 H   0  0  0  1  0  0  0  0  0  0  0  0
   -1.4646   -2.6351   -2.1682 H   0  0  0  1  0  0  0  0  0  0  0  0
   -1.9930   -4.9981   -2.3216 H   0  0  0  1  0  0  0  0  0  0  0  0
   -2.8277   -5.0763    1.7926 H   0  0  0  1  0  0  0  0  0  0  0  0
   -2.3000   -2.7174    1.9458 H   0  0  0  1  0  0  0  0  0  0  0  0
   -2.2001   -7.6526    1.1423 H   0  0  0  1  0  0  0  0  0  0  0  0
   -3.6800   -8.1338    0.3483 H   0  0  0  1  0  0  0  0  0  0  0  0
   -3.6489   -6.6972    1.3430 H   0  0  0  1  0  0  0  0  0  0  0  0
    3.9368   -0.7352    0.3397 H   0  0  0  1  0  0  0  0  0  0  0  0
    2.5577   -3.0651   -0.6879 H   0  0  0  1  0  0  0  0  0  0  0  0
    2.0290   -3.5491    1.5996 H   0  0  0  1  0  0  0  0  0  0  0  0
    3.5382   -2.8805    2.1733 H   0  0  0  1  0  0  0  0  0  0  0  0
    3.1116   -5.4125    0.5846 H   0  0  0  1  0  0  0  0  0  0  0  0
    4.0234   -5.2143    2.0622 H   0  0  0  1  0  0  0  0  0  0  0  0
    5.8459   -4.2941    0.9630 H   0  0  0  1  0  0  0  0  0  0  0  0
    4.7511   -3.1942   -1.4490 H   0  0  0  1  0  0  0  0  0  0  0  0
    5.3795   -2.3185   -0.0733 H   0  0  0  1  0  0  0  0  0  0  0  0
    4.5173   -5.5323   -1.3008 H   0  0  0  1  0  0  0  0  0  0  0  0
    5.3974   -6.3208   -0.2218 H   0  0  0  1  0  0  0  0  0  0  0  0
  1  2  4  0  0  0  0
  1  6  4  0  0  0  0
  1 18  1  0  0  0  0
  2  3  4  0  0  0  0
  3  4  4  0  0  0  0
  3 25  1  0  0  0  0
  4  5  4  0  0  0  0
  4  7  4  0  0  0  0
  5  6  4  0  0  0  0
  5  9  4  0  0  0  0
  7  8  4  0  0  0  0
  7 26  1  0  0  0  0
  8  9  4  0  0  0  0
  9 10  1  0  0  0  0
 10 11  4  0  0  0  0
 10 15  4  0  0  0  0
 11 12  4  0  0  0  0
 11 27  1  0  0  0  0
 12 13  4  0  0  0  0
 12 28  1  0  0  0  0
 13 14  4  0  0  0  0
 13 16  1  0  0  0  0
 14 15  4  0  0  0  0
 14 29  1  0  0  0  0
 15 30  1  0  0  0  0
 16 17  1  0  0  0  0
 17 31  1  0  0  0  0
 17 32  1  0  0  0  0
 17 33  1  0  0  0  0
 18 19  1  0  0  0  0
 18 34  1  0  0  0  0
 19 20  1  0  0  0  0
 19 23  1  0  0  0  0
 19 35  1  0  0  0  0
 20 21  1  0  0  0  0
 20 36  1  0  0  0  0
 20 37  1  0  0  0  0
 21 22  1  0  0  0  0
 21 38  1  0  0  0  0
 21 39  1  0  0  0  0
 22 23  1  0  0  0  0
 22 24  1  0  0  0  0
 22 40  1  0  0  0  0
 23 41  1  0  0  0  0
 23 42  1  0  0  0  0
 24 43  1  0  0  0  0
 24 44  1  0  0  0  0
M  END
> <ConfClashScore>
0 

> <ConfOneFourInteractionScore>
-0.984337 

> <ConfScore>
-0.0187791 

> <ConfScorePBest>
0.00283353 

> <ConfTolerance>
0.376188 

$$$$
c22.sdf
 OpenBabel04162418103D

 44 47  0  0  0  0  0  0  0  0999 V2000
    1.9452   -0.6102    0.1256 C   0  0  0  1  0  0  0  0  0  0  0  0
    2.0363    0.7233    0.1481 N   0  0  0  1  0  0  0  0  0  0  0  0
    0.8946    1.4376    0.0881 C   0  0  0  1  0  0  0  0  0  0  0  0
   -0.3453    0.7386    0.0096 C   0  0  0  1  0  0  0  0  0  0  0  0
   -0.2528   -0.6478    0.0020 C   0  0  0  1  0  0  0  0  0  0  0  0
    0.8779   -1.3913    0.0539 N   0  0  0  1  0  0  0  0  0  0  0  0
   -1.7304    0.9921   -0.0538 C   0  0  0  1  0  0  0  0  0  0  0  0
   -2.4282   -0.1192   -0.1029 N   0  0  0  1  0  0  0  0  0  0  0  0
   -1.5126   -1.1341   -0.0681 N   0  0  0  1  0  0  0  0  0  0  0  0
   -1.8385   -2.5052   -0.1010 C   0  0  0  1  0  0  0  0  0  0  0  0
   -1.7294   -3.1605   -1.3129 C   0  0  0  1  0  0  0  0  0  0  0  0
   -2.0324   -4.5102   -1.4005 C   0  0  0  1  0  0  0  0  0  0  0  0
   -2.4488   -5.1996   -0.2773 C   0  0  0  1  0  0  0  0  0  0  0  0
   -2.5583   -4.5421    0.9383 C   0  0  0  1  0  0  0  0  0  0  0  0
   -2.2562   -3.1962    1.0258 C   0  0  0  1  0  0  0  0  0  0  0  0
   -2.6579   -6.5374   -0.2993 O   0  0  0  1  0  0  0  0  0  0  0  0
   -3.1018   -7.1523    0.9203 C   0  0  0  1  0  0  0  0  0  0  0  0
    3.1213   -1.2604    0.1849 N   0  0  0  1  0  0  0  0  0  0  0  0
    3.2459   -2.7201    0.2530 C   0  0  0  1  0  0  0  0  0  0  0  0
    3.5473   -3.1610    1.6901 C   0  0  0  1  0  0  0  0  0  0  0  0
    4.9562   -3.7395    1.6483 C   0  0  0  1  0  0  0  0  0  0  0  0
    5.1073   -4.2936    0.2257 C   0  0  0  1  0  0  0  0  0  0  0  0
    4.4340   -3.1934   -0.5992 C   0  0  0  1  0  0  0  0  0  0  0  0
    4.4088   -5.5894    0.0724 N   0  0  0  1  0  0  0  0  0  0  0  0
    0.9179    2.4772    0.0987 H   0  0  0  1  0  0  0  0  0  0  0  0
   -2.1490    1.9441   -0.0608 H   0  0  0  1  0  0  0  0  0  0  0  0
   -1.4198   -2.6410   -2.1590 H   0  0  0  1  0  0  0  0  0  0  0  0
   -1.9463   -5.0044   -2.3116 H   0  0  0  1  0  0  0  0  0  0  0  0
   -2.8679   -5.0616    1.7844 H   0  0  0  1  0  0  0  0  0  0  0  0
   -2.3422   -2.7020    1.9368 H   0  0  0  1  0  0  0  0  0  0  0  0
   -3.6260   -8.0572    0.6938 H   0  0  0  1  0  0  0  0  0  0  0  0
   -3.7548   -6.4826    1.4400 H   0  0  0  1  0  0  0  0  0  0  0  0
   -2.2554   -7.3752    1.5357 H   0  0  0  1  0  0  0  0  0  0  0  0
    3.9435   -0.7271    0.1825 H   0  0  0  1  0  0  0  0  0  0  0  0
    2.3394   -3.1725   -0.0912 H   0  0  0  1  0  0  0  0  0  0  0  0
    3.5059   -2.3238    2.3550 H   0  0  0  1  0  0  0  0  0  0  0  0
    2.8466   -3.9047    2.0082 H   0  0  0  1  0  0  0  0  0  0  0  0
    5.0648   -4.5209    2.3710 H   0  0  0  1  0  0  0  0  0  0  0  0
    5.6829   -2.9766    1.8351 H   0  0  0  1  0  0  0  0  0  0  0  0
    6.1368   -4.4091   -0.0421 H   0  0  0  1  0  0  0  0  0  0  0  0
    4.0925   -3.5826   -1.5356 H   0  0  0  1  0  0  0  0  0  0  0  0
    5.1147   -2.3866   -0.7748 H   0  0  0  1  0  0  0  0  0  0  0  0
    3.4674   -5.4852    0.3244 H   0  0  0  1  0  0  0  0  0  0  0  0
    4.8298   -6.2578    0.6522 H   0  0  0  1  0  0  0  0  0  0  0  0
  1  2  4  0  0  0  0
  1  6  4  0  0  0  0
  1 18  1  0  0  0  0
  2  3  4  0  0  0  0
  3  4  4  0  0  0  0
  3 25  1  0  0  0  0
  4  5  4  0  0  0  0
  4  7  4  0  0  0  0
  5  6  4  0  0  0  0
  5  9  4  0  0  0  0
  7  8  4  0  0  0  0
  7 26  1  0  0  0  0
  8  9  4  0  0  0  0
  9 10  1  0  0  0  0
 10 11  4  0  0  0  0
 10 15  4  0  0  0  0
 11 12  4  0  0  0  0
 11 27  1  0  0  0  0
 12 13  4  0  0  0  0
 12 28  1  0  0  0  0
 13 14  4  0  0  0  0
 13 16  1  0  0  0  0
 14 15  4  0  0  0  0
 14 29  1  0  0  0  0
 15 30  1  0  0  0  0
 16 17  1  0  0  0  0
 17 31  1  0  0  0  0
 17 32  1  0  0  0  0
 17 33  1  0  0  0  0
 18 19  1  0  0  0  0
 18 34  1  0  0  0  0
 19 20  1  0  0  0  0
 19 23  1  0  0  0  0
 19 35  1  0  0  0  0
 20 21  1  0  0  0  0
 20 36  1  0  0  0  0
 20 37  1  0  0  0  0
 21 22  1  0  0  0  0
 21 38  1  0  0  0  0
 21 39  1  0  0  0  0
 22 23  1  0  0  0  0
 22 24  1  0  0  0  0
 22 40  1  0  0  0  0
 23 41  1  0  0  0  0
 23 42  1  0  0  0  0
 24 43  1  0  0  0  0
 24 44  1  0  0  0  0
M  END
> <ConfClashScore>
0 

> <ConfOneFourInteractionScore>
-0.984337 

> <ConfScore>
-0.0187791 

> <ConfScorePBest>
0.0028202 

> <ConfTolerance>
0.329567 

$$$$
c22.sdf
 OpenBabel04162418103D

 44 47  0  0  0  0  0  0  0  0999 V2000
    1.9452   -0.6102    0.1254 C   0  0  0  1  0  0  0  0  0  0  0  0
    2.0363    0.7233    0.1480 N   0  0  0  1  0  0  0  0  0  0  0  0
    0.8946    1.4376    0.0881 C   0  0  0  1  0  0  0  0  0  0  0  0
   -0.3453    0.7386    0.0095 C   0  0  0  1  0  0  0  0  0  0  0  0
   -0.2528   -0.6478    0.0019 C   0  0  0  1  0  0  0  0  0  0  0  0
    0.8780   -1.3912    0.0538 N   0  0  0  1  0  0  0  0  0  0  0  0
   -1.7304    0.9921   -0.0538 C   0  0  0  1  0  0  0  0  0  0  0  0
   -2.4282   -0.1192   -0.1028 N   0  0  0  1  0  0  0  0  0  0  0  0
   -1.5125   -1.1341   -0.0681 N   0  0  0  1  0  0  0  0  0  0  0  0
   -1.8396   -2.5099   -0.1011 C   0  0  0  1  0  0  0  0  0  0  0  0
   -1.2755   -3.3764    0.8159 C   0  0  0  1  0  0  0  0  0  0  0  0
   -1.6003   -4.7237    0.7869 C   0  0  0  1  0  0  0  0  0  0  0  0
   -2.4840   -5.2015   -0.1624 C   0  0  0  1  0  0  0  0  0  0  0  0
   -3.0497   -4.3322   -1.0821 C   0  0  0  1  0  0  0  0  0  0  0  0
   -2.7259   -2.9888   -1.0533 C   0  0  0  1  0  0  0  0  0  0  0  0
   -2.7201   -6.5333   -0.0964 O   0  0  0  1  0  0  0  0  0  0  0  0
   -3.5852   -7.0966   -1.0948 C   0  0  0  1  0  0  0  0  0  0  0  0
    3.1380   -1.2696    0.1856 N   0  0  0  1  0  0  0  0  0  0  0  0
    4.4049   -0.5548    0.3612 C   0  0  0  1  0  0  0  0  0  0  0  0
    4.3768    0.2656    1.6560 C   0  0  0  1  0  0  0  0  0  0  0  0
    4.4182    1.7227    1.2122 C   0  0  0  1  0  0  0  0  0  0  0  0
    5.1891    1.7036   -0.1141 C   0  0  0  1  0  0  0  0  0  0  0  0
    4.6104    0.4528   -0.7809 C   0  0  0  1  0  0  0  0  0  0  0  0
    6.6393    1.5739    0.1076 N   0  0  0  1  0  0  0  0  0  0  0  0
    0.9179    2.4772    0.0987 H   0  0  0  1  0  0  0  0  0  0  0  0
   -2.1490    1.9441   -0.0607 H   0  0  0  1  0  0  0  0  0  0  0  0
   -0.6075   -3.0177    1.5277 H   0  0  0  1  0  0  0  0  0  0  0  0
   -1.1789   -5.3751    1.4795 H   0  0  0  1  0  0  0  0  0  0  0  0
   -3.7177   -4.6909   -1.7939 H   0  0  0  1  0  0  0  0  0  0  0  0
   -3.1473   -2.3374   -1.7459 H   0  0  0  1  0  0  0  0  0  0  0  0
   -3.6414   -8.1568   -0.9618 H   0  0  0  1  0  0  0  0  0  0  0  0
   -3.1955   -6.8796   -2.0675 H   0  0  0  1  0  0  0  0  0  0  0  0
   -4.5631   -6.6730   -0.9993 H   0  0  0  1  0  0  0  0  0  0  0  0
    3.1477   -2.2466    0.1093 H   0  0  0  1  0  0  0  0  0  0  0  0
    5.2113   -1.2577    0.3851 H   0  0  0  1  0  0  0  0  0  0  0  0
    3.4805    0.0671    2.2056 H   0  0  0  1  0  0  0  0  0  0  0  0
    5.2268    0.0352    2.2637 H   0  0  0  1  0  0  0  0  0  0  0  0
    4.9280    2.3232    1.9362 H   0  0  0  1  0  0  0  0  0  0  0  0
    3.4279    2.1012    1.0675 H   0  0  0  1  0  0  0  0  0  0  0  0
    4.9935    2.5819   -0.6932 H   0  0  0  1  0  0  0  0  0  0  0  0
    3.6779    0.6779   -1.2549 H   0  0  0  1  0  0  0  0  0  0  0  0
    5.2947    0.0637   -1.5058 H   0  0  0  1  0  0  0  0  0  0  0  0
    7.1003    1.5370   -0.7565 H   0  0  0  1  0  0  0  0  0  0  0  0
    6.8205    0.7520    0.6096 H   0  0  0  1  0  0  0  0  0  0  0  0
  1  2  4  0  0  0  0
  1  6  4  0  0  0  0
  1 18  1  0  0  0  0
  2  3  4  0  0  0  0
  3  4  4  0  0  0  0
  3 25  1  0  0  0  0
  4  5  4  0  0  0  0
  4  7  4  0  0  0  0
  5  6  4  0  0  0  0
  5  9  4  0  0  0  0
  7  8  4  0  0  0  0
  7 26  1  0  0  0  0
  8  9  4  0  0  0  0
  9 10  1  0  0  0  0
 10 11  4  0  0  0  0
 10 15  4  0  0  0  0
 11 12  4  0  0  0  0
 11 27  1  0  0  0  0
 12 13  4  0  0  0  0
 12 28  1  0  0  0  0
 13 14  4  0  0  0  0
 13 16  1  0  0  0  0
 14 15  4  0  0  0  0
 14 29  1  0  0  0  0
 15 30  1  0  0  0  0
 16 17  1  0  0  0  0
 17 31  1  0  0  0  0
 17 32  1  0  0  0  0
 17 33  1  0  0  0  0
 18 19  1  0  0  0  0
 18 34  1  0  0  0  0
 19 20  1  0  0  0  0
 19 23  1  0  0  0  0
 19 35  1  0  0  0  0
 20 21  1  0  0  0  0
 20 36  1  0  0  0  0
 20 37  1  0  0  0  0
 21 22  1  0  0  0  0
 21 38  1  0  0  0  0
 21 39  1  0  0  0  0
 22 23  1  0  0  0  0
 22 24  1  0  0  0  0
 22 40  1  0  0  0  0
 23 41  1  0  0  0  0
 23 42  1  0  0  0  0
 24 43  1  0  0  0  0
 24 44  1  0  0  0  0
M  END
> <ConfClashScore>
2.06604e-06 

> <ConfOneFourInteractionScore>
-0.980204 

> <ConfScore>
-0.0178305 

> <ConfScorePBest>
0.00280687 

> <ConfTolerance>
0.201061 

$$$$
c22.sdf
 OpenBabel04162418103D

 44 47  0  0  0  0  0  0  0  0999 V2000
    1.9452   -0.6102    0.1255 C   0  0  0  1  0  0  0  0  0  0  0  0
    2.0363    0.7233    0.1481 N   0  0  0  1  0  0  0  0  0  0  0  0
    0.8946    1.4376    0.0881 C   0  0  0  1  0  0  0  0  0  0  0  0
   -0.3453    0.7385    0.0095 C   0  0  0  1  0  0  0  0  0  0  0  0
   -0.2529   -0.6477    0.0019 C   0  0  0  1  0  0  0  0  0  0  0  0
    0.8779   -1.3913    0.0538 N   0  0  0  1  0  0  0  0  0  0  0  0
   -1.7303    0.9921   -0.0538 C   0  0  0  1  0  0  0  0  0  0  0  0
   -2.4282   -0.1191   -0.1029 N   0  0  0  1  0  0  0  0  0  0  0  0
   -1.5125   -1.1342   -0.0681 N   0  0  0  1  0  0  0  0  0  0  0  0
   -1.8370   -2.4985   -0.1009 C   0  0  0  1  0  0  0  0  0  0  0  0
   -1.4903   -3.2178    1.0272 C   0  0  0  1  0  0  0  0  0  0  0  0
   -1.7718   -4.5732    1.0984 C   0  0  0  1  0  0  0  0  0  0  0  0
   -2.3942   -5.2065    0.0393 C   0  0  0  1  0  0  0  0  0  0  0  0
   -2.7418   -4.4849   -1.0921 C   0  0  0  1  0  0  0  0  0  0  0  0
   -2.4612   -3.1334   -1.1633 C   0  0  0  1  0  0  0  0  0  0  0  0
   -2.6644   -6.5318    0.1068 O   0  0  0  1  0  0  0  0  0  0  0  0
   -3.2912   -7.1327   -1.0370 C   0  0  0  1  0  0  0  0  0  0  0  0
    3.1379   -1.2696    0.1855 N   0  0  0  1  0  0  0  0  0  0  0  0
    3.2224   -2.7242    0.0282 C   0  0  0  1  0  0  0  0  0  0  0  0
    3.8688   -3.3497    1.2545 C   0  0  0  1  0  0  0  0  0  0  0  0
    4.6198   -4.5702    0.6937 C   0  0  0  1  0  0  0  0  0  0  0  0
    5.0994   -4.1067   -0.6730 C   0  0  0  1  0  0  0  0  0  0  0  0
    4.1083   -3.0721   -1.1403 C   0  0  0  1  0  0  0  0  0  0  0  0
    5.1339   -5.2287   -1.6029 N   0  0  0  1  0  0  0  0  0  0  0  0
    0.9178    2.4772    0.0987 H   0  0  0  1  0  0  0  0  0  0  0  0
   -2.1490    1.9441   -0.0608 H   0  0  0  1  0  0  0  0  0  0  0  0
   -1.0185   -2.7421    1.8226 H   0  0  0  1  0  0  0  0  0  0  0  0
   -1.5146   -5.1136    1.9490 H   0  0  0  1  0  0  0  0  0  0  0  0
   -3.2137   -4.9606   -1.8876 H   0  0  0  1  0  0  0  0  0  0  0  0
   -2.7184   -2.5930   -2.0138 H   0  0  0  1  0  0  0  0  0  0  0  0
   -4.3225   -6.8496   -1.0692 H   0  0  0  1  0  0  0  0  0  0  0  0
   -3.2160   -8.1978   -0.9662 H   0  0  0  1  0  0  0  0  0  0  0  0
   -2.8020   -6.7987   -1.9281 H   0  0  0  1  0  0  0  0  0  0  0  0
    3.9594   -0.7575    0.3379 H   0  0  0  1  0  0  0  0  0  0  0  0
    2.2413   -3.1252   -0.1185 H   0  0  0  1  0  0  0  0  0  0  0  0
    4.5478   -2.6649    1.7181 H   0  0  0  1  0  0  0  0  0  0  0  0
    3.1267   -3.6521    1.9636 H   0  0  0  1  0  0  0  0  0  0  0  0
    3.9647   -5.4113    0.6022 H   0  0  0  1  0  0  0  0  0  0  0  0
    5.4476   -4.8287    1.3202 H   0  0  0  1  0  0  0  0  0  0  0  0
    6.0760   -3.6762   -0.5964 H   0  0  0  1  0  0  0  0  0  0  0  0
    4.6258   -2.1984   -1.4776 H   0  0  0  1  0  0  0  0  0  0  0  0
    3.5178   -3.4684   -1.9396 H   0  0  0  1  0  0  0  0  0  0  0  0
    5.7922   -5.8870   -1.2970 H   0  0  0  1  0  0  0  0  0  0  0  0
    5.3841   -4.9066   -2.4940 H   0  0  0  1  0  0  0  0  0  0  0  0
  1  2  4  0  0  0  0
  1  6  4  0  0  0  0
  1 18  1  0  0  0  0
  2  3  4  0  0  0  0
  3  4  4  0  0  0  0
  3 25  1  0  0  0  0
  4  5  4  0  0  0  0
  4  7  4  0  0  0  0
  5  6  4  0  0  0  0
  5  9  4  0  0  0  0
  7  8  4  0  0  0  0
  7 26  1  0  0  0  0
  8  9  4  0  0  0  0
  9 10  1  0  0  0  0
 10 11  4  0  0  0  0
 10 15  4  0  0  0  0
 11 12  4  0  0  0  0
 11 27  1  0  0  0  0
 12 13  4  0  0  0  0
 12 28  1  0  0  0  0
 13 14  4  0  0  0  0
 13 16  1  0  0  0  0
 14 15  4  0  0  0  0
 14 29  1  0  0  0  0
 15 30  1  0  0  0  0
 16 17  1  0  0  0  0
 17 31  1  0  0  0  0
 17 32  1  0  0  0  0
 17 33  1  0  0  0  0
 18 19  1  0  0  0  0
 18 34  1  0  0  0  0
 19 20  1  0  0  0  0
 19 23  1  0  0  0  0
 19 35  1  0  0  0  0
 20 21  1  0  0  0  0
 20 36  1  0  0  0  0
 20 37  1  0  0  0  0
 21 22  1  0  0  0  0
 21 38  1  0  0  0  0
 21 39  1  0  0  0  0
 22 23  1  0  0  0  0
 22 24  1  0  0  0  0
 22 40  1  0  0  0  0
 23 41  1  0  0  0  0
 23 42  1  0  0  0  0
 24 43  1  0  0  0  0
 24 44  1  0  0  0  0
M  END
> <ConfClashScore>
0 

> <ConfOneFourInteractionScore>
-0.984337 

> <ConfScore>
-0.0173826 

> <ConfScorePBest>
0.00279354 

> <ConfTolerance>
0.431321 

$$$$
c22.sdf
 OpenBabel04162418103D

 44 47  0  0  0  0  0  0  0  0999 V2000
    1.9452   -0.6102    0.1257 C   0  0  0  1  0  0  0  0  0  0  0  0
    2.0363    0.7233    0.1482 N   0  0  0  1  0  0  0  0  0  0  0  0
    0.8946    1.4376    0.0881 C   0  0  0  1  0  0  0  0  0  0  0  0
   -0.3453    0.7386    0.0097 C   0  0  0  1  0  0  0  0  0  0  0  0
   -0.2528   -0.6478    0.0021 C   0  0  0  1  0  0  0  0  0  0  0  0
    0.8779   -1.3913    0.0539 N   0  0  0  1  0  0  0  0  0  0  0  0
   -1.7303    0.9921   -0.0538 C   0  0  0  1  0  0  0  0  0  0  0  0
   -2.4281   -0.1192   -0.1028 N   0  0  0  1  0  0  0  0  0  0  0  0
   -1.5126   -1.1342   -0.0681 N   0  0  0  1  0  0  0  0  0  0  0  0
   -1.8416   -2.5177   -0.1012 C   0  0  0  1  0  0  0  0  0  0  0  0
   -1.3649   -3.3650    0.8812 C   0  0  0  1  0  0  0  0  0  0  0  0
   -1.6900   -4.7122    0.8518 C   0  0  0  1  0  0  0  0  0  0  0  0
   -2.4862   -5.2092   -0.1628 C   0  0  0  1  0  0  0  0  0  0  0  0
   -2.9642   -4.3592   -1.1480 C   0  0  0  1  0  0  0  0  0  0  0  0
   -2.6401   -3.0159   -1.1189 C   0  0  0  1  0  0  0  0  0  0  0  0
   -2.7219   -6.5399   -0.2499 O   0  0  0  1  0  0  0  0  0  0  0  0
   -3.6538   -6.9770   -1.2514 C   0  0  0  1  0  0  0  0  0  0  0  0
    3.1379   -1.2697    0.1858 N   0  0  0  1  0  0  0  0  0  0  0  0
    3.2090   -2.7317    0.1902 C   0  0  0  1  0  0  0  0  0  0  0  0
    2.5479   -3.3046   -1.0705 C   0  0  0  1  0  0  0  0  0  0  0  0
    1.4035   -4.2007   -0.5852 C   0  0  0  1  0  0  0  0  0  0  0  0
    1.8062   -4.6031    0.8240 C   0  0  0  1  0  0  0  0  0  0  0  0
    2.4105   -3.3028    1.3653 C   0  0  0  1  0  0  0  0  0  0  0  0
    2.8106   -5.6995    0.8067 N   0  0  0  1  0  0  0  0  0  0  0  0
    0.9179    2.4772    0.0987 H   0  0  0  1  0  0  0  0  0  0  0  0
   -2.1490    1.9441   -0.0608 H   0  0  0  1  0  0  0  0  0  0  0  0
   -0.7625   -2.9918    1.6424 H   0  0  0  1  0  0  0  0  0  0  0  0
   -1.3346   -5.3490    1.5932 H   0  0  0  1  0  0  0  0  0  0  0  0
   -3.5666   -4.7324   -1.9092 H   0  0  0  1  0  0  0  0  0  0  0  0
   -2.9954   -2.3790   -1.8603 H   0  0  0  1  0  0  0  0  0  0  0  0
   -4.6470   -6.7104   -0.9557 H   0  0  0  1  0  0  0  0  0  0  0  0
   -3.5875   -8.0393   -1.3606 H   0  0  0  1  0  0  0  0  0  0  0  0
   -3.4213   -6.5069   -2.1840 H   0  0  0  1  0  0  0  0  0  0  0  0
    3.9685   -0.7512    0.2272 H   0  0  0  1  0  0  0  0  0  0  0  0
    4.2322   -3.0393    0.2487 H   0  0  0  1  0  0  0  0  0  0  0  0
    3.2554   -3.8784   -1.6318 H   0  0  0  1  0  0  0  0  0  0  0  0
    2.1655   -2.5132   -1.6807 H   0  0  0  1  0  0  0  0  0  0  0  0
    1.3070   -5.0629   -1.2114 H   0  0  0  1  0  0  0  0  0  0  0  0
    0.4794   -3.6615   -0.5749 H   0  0  0  1  0  0  0  0  0  0  0  0
    0.9566   -4.9061    1.3996 H   0  0  0  1  0  0  0  0  0  0  0  0
    1.6397   -2.6235    1.6641 H   0  0  0  1  0  0  0  0  0  0  0  0
    3.0530   -3.5024    2.1974 H   0  0  0  1  0  0  0  0  0  0  0  0
    3.6254   -5.3898    0.3587 H   0  0  0  1  0  0  0  0  0  0  0  0
    2.4450   -6.4697    0.3233 H   0  0  0  1  0  0  0  0  0  0  0  0
  1  2  4  0  0  0  0
  1  6  4  0  0  0  0
  1 18  1  0  0  0  0
  2  3  4  0  0  0  0
  3  4  4  0  0  0  0
  3 25  1  0  0  0  0
  4  5  4  0  0  0  0
  4  7  4  0  0  0  0
  5  6  4  0  0  0  0
  5  9  4  0  0  0  0
  7  8  4  0  0  0  0
  7 26  1  0  0  0  0
  8  9  4  0  0  0  0
  9 10  1  0  0  0  0
 10 11  4  0  0  0  0
 10 15  4  0  0  0  0
 11 12  4  0  0  0  0
 11 27  1  0  0  0  0
 12 13  4  0  0  0  0
 12 28  1  0  0  0  0
 13 14  4  0  0  0  0
 13 16  1  0  0  0  0
 14 15  4  0  0  0  0
 14 29  1  0  0  0  0
 15 30  1  0  0  0  0
 16 17  1  0  0  0  0
 17 31  1  0  0  0  0
 17 32  1  0  0  0  0
 17 33  1  0  0  0  0
 18 19  1  0  0  0  0
 18 34  1  0  0  0  0
 19 20  1  0  0  0  0
 19 23  1  0  0  0  0
 19 35  1  0  0  0  0
 20 21  1  0  0  0  0
 20 36  1  0  0  0  0
 20 37  1  0  0  0  0
 21 22  1  0  0  0  0
 21 38  1  0  0  0  0
 21 39  1  0  0  0  0
 22 23  1  0  0  0  0
 22 24  1  0  0  0  0
 22 40  1  0  0  0  0
 23 41  1  0  0  0  0
 23 42  1  0  0  0  0
 24 43  1  0  0  0  0
 24 44  1  0  0  0  0
M  END
> <ConfClashScore>
0 

> <ConfOneFourInteractionScore>
-0.980204 

> <ConfScore>
-0.0150347 

> <ConfScorePBest>
0.00278021 

> <ConfTolerance>
0.242937 

$$$$
c22.sdf
 OpenBabel04162418103D

 44 47  0  0  0  0  0  0  0  0999 V2000
    1.9452   -0.6102    0.1255 C   0  0  0  1  0  0  0  0  0  0  0  0
    2.0363    0.7233    0.1481 N   0  0  0  1  0  0  0  0  0  0  0  0
    0.8946    1.4376    0.0881 C   0  0  0  1  0  0  0  0  0  0  0  0
   -0.3453    0.7386    0.0096 C   0  0  0  1  0  0  0  0  0  0  0  0
   -0.2528   -0.6477    0.0020 C   0  0  0  1  0  0  0  0  0  0  0  0
    0.8779   -1.3912    0.0539 N   0  0  0  1  0  0  0  0  0  0  0  0
   -1.7303    0.9921   -0.0538 C   0  0  0  1  0  0  0  0  0  0  0  0
   -2.4281   -0.1191   -0.1028 N   0  0  0  1  0  0  0  0  0  0  0  0
   -1.5125   -1.1341   -0.0681 N   0  0  0  1  0  0  0  0  0  0  0  0
   -1.8419   -2.5192   -0.1014 C   0  0  0  1  0  0  0  0  0  0  0  0
   -0.9244   -3.4363   -0.5780 C   0  0  0  1  0  0  0  0  0  0  0  0
   -1.2430   -4.7851   -0.6053 C   0  0  0  1  0  0  0  0  0  0  0  0
   -2.4802   -5.2122   -0.1611 C   0  0  0  1  0  0  0  0  0  0  0  0
   -3.4003   -4.2923    0.3169 C   0  0  0  1  0  0  0  0  0  0  0  0
   -3.0827   -2.9474    0.3442 C   0  0  0  1  0  0  0  0  0  0  0  0
   -2.6795   -6.5494   -0.2406 O   0  0  0  1  0  0  0  0  0  0  0  0
   -4.0268   -7.0223   -0.0875 C   0  0  0  1  0  0  0  0  0  0  0  0
    3.1257   -1.2628    0.1850 N   0  0  0  1  0  0  0  0  0  0  0  0
    4.4113   -0.6038    0.4167 C   0  0  0  1  0  0  0  0  0  0  0  0
    5.0111   -0.1857   -0.9394 C   0  0  0  1  0  0  0  0  0  0  0  0
    6.4572   -0.2197   -0.4190 C   0  0  0  1  0  0  0  0  0  0  0  0
    6.6287   -1.5567    0.3457 C   0  0  0  1  0  0  0  0  0  0  0  0
    5.3431   -1.5738    1.1707 C   0  0  0  1  0  0  0  0  0  0  0  0
    7.8251   -1.5416    1.2045 N   0  0  0  1  0  0  0  0  0  0  0  0
    0.9178    2.4773    0.0988 H   0  0  0  1  0  0  0  0  0  0  0  0
   -2.1490    1.9441   -0.0607 H   0  0  0  1  0  0  0  0  0  0  0  0
    0.0050   -3.1146   -0.9160 H   0  0  0  1  0  0  0  0  0  0  0  0
   -0.5511   -5.4757   -0.9602 H   0  0  0  1  0  0  0  0  0  0  0  0
   -4.3298   -4.6140    0.6549 H   0  0  0  1  0  0  0  0  0  0  0  0
   -3.7747   -2.2567    0.6991 H   0  0  0  1  0  0  0  0  0  0  0  0
   -4.6223   -6.6756   -0.9061 H   0  0  0  1  0  0  0  0  0  0  0  0
   -4.4325   -6.6513    0.8306 H   0  0  0  1  0  0  0  0  0  0  0  0
   -4.0295   -8.0922   -0.0727 H   0  0  0  1  0  0  0  0  0  0  0  0
    3.1211   -2.2356    0.0661 H   0  0  0  1  0  0  0  0  0  0  0  0
    4.2617    0.2705    1.0152 H   0  0  0  1  0  0  0  0  0  0  0  0
    4.6992    0.7871   -1.2580 H   0  0  0  1  0  0  0  0  0  0  0  0
    4.8259   -0.8936   -1.7200 H   0  0  0  1  0  0  0  0  0  0  0  0
    7.1441   -0.1737   -1.2381 H   0  0  0  1  0  0  0  0  0  0  0  0
    6.6306    0.6056    0.2396 H   0  0  0  1  0  0  0  0  0  0  0  0
    6.6797   -2.3902   -0.3231 H   0  0  0  1  0  0  0  0  0  0  0  0
    4.9239   -2.5577    1.2028 H   0  0  0  1  0  0  0  0  0  0  0  0
    5.5252   -1.2304    2.1675 H   0  0  0  1  0  0  0  0  0  0  0  0
    8.6267   -1.4553    0.6473 H   0  0  0  1  0  0  0  0  0  0  0  0
    7.8709   -2.3768    1.7152 H   0  0  0  1  0  0  0  0  0  0  0  0
  1  2  4  0  0  0  0
  1  6  4  0  0  0  0
  1 18  1  0  0  0  0
  2  3  4  0  0  0  0
  3  4  4  0  0  0  0
  3 25  1  0  0  0  0
  4  5  4  0  0  0  0
  4  7  4  0  0  0  0
  5  6  4  0  0  0  0
  5  9  4  0  0  0  0
  7  8  4  0  0  0  0
  7 26  1  0  0  0  0
  8  9  4  0  0  0  0
  9 10  1  0  0  0  0
 10 11  4  0  0  0  0
 10 15  4  0  0  0  0
 11 12  4  0  0  0  0
 11 27  1  0  0  0  0
 12 13  4  0  0  0  0
 12 28  1  0  0  0  0
 13 14  4  0  0  0  0
 13 16  1  0  0  0  0
 14 15  4  0  0  0  0
 14 29  1  0  0  0  0
 15 30  1  0  0  0  0
 16 17  1  0  0  0  0
 17 31  1  0  0  0  0
 17 32  1  0  0  0  0
 17 33  1  0  0  0  0
 18 19  1  0  0  0  0
 18 34  1  0  0  0  0
 19 20  1  0  0  0  0
 19 23  1  0  0  0  0
 19 35  1  0  0  0  0
 20 21  1  0  0  0  0
 20 36  1  0  0  0  0
 20 37  1  0  0  0  0
 21 22  1  0  0  0  0
 21 38  1  0  0  0  0
 21 39  1  0  0  0  0
 22 23  1  0  0  0  0
 22 24  1  0  0  0  0
 22 40  1  0  0  0  0
 23 41  1  0  0  0  0
 23 42  1  0  0  0  0
 24 43  1  0  0  0  0
 24 44  1  0  0  0  0
M  END
> <ConfClashScore>
0 

> <ConfOneFourInteractionScore>
-0.984337 

> <ConfScore>
-0.0149435 

> <ConfScorePBest>
0.00276689 

> <ConfTolerance>
0.379537 

$$$$
c22.sdf
 OpenBabel04162418103D

 44 47  0  0  0  0  0  0  0  0999 V2000
    1.9452   -0.6102    0.1255 C   0  0  0  1  0  0  0  0  0  0  0  0
    2.0363    0.7234    0.1482 N   0  0  0  1  0  0  0  0  0  0  0  0
    0.8946    1.4376    0.0881 C   0  0  0  1  0  0  0  0  0  0  0  0
   -0.3452    0.7387    0.0097 C   0  0  0  1  0  0  0  0  0  0  0  0
   -0.2528   -0.6477    0.0020 C   0  0  0  1  0  0  0  0  0  0  0  0
    0.8780   -1.3912    0.0539 N   0  0  0  1  0  0  0  0  0  0  0  0
   -1.7304    0.9921   -0.0538 C   0  0  0  1  0  0  0  0  0  0  0  0
   -2.4281   -0.1191   -0.1028 N   0  0  0  1  0  0  0  0  0  0  0  0
   -1.5125   -1.1341   -0.0681 N   0  0  0  1  0  0  0  0  0  0  0  0
   -1.8384   -2.5052   -0.1009 C   0  0  0  1  0  0  0  0  0  0  0  0
   -1.8931   -3.2249   -1.2795 C   0  0  0  1  0  0  0  0  0  0  0  0
   -2.2139   -4.5732   -1.2538 C   0  0  0  1  0  0  0  0  0  0  0  0
   -2.4843   -5.1965   -0.0502 C   0  0  0  1  0  0  0  0  0  0  0  0
   -2.4295   -4.4744    1.1318 C   0  0  0  1  0  0  0  0  0  0  0  0
   -2.1096   -3.1301    1.1063 C   0  0  0  1  0  0  0  0  0  0  0  0
   -2.7886   -6.5052   -0.1496 O   0  0  0  1  0  0  0  0  0  0  0  0
   -2.8247   -7.2224    1.1060 C   0  0  0  1  0  0  0  0  0  0  0  0
    3.1213   -1.2603    0.1848 N   0  0  0  1  0  0  0  0  0  0  0  0
    4.4263   -0.5934    0.1512 C   0  0  0  1  0  0  0  0  0  0  0  0
    4.5019    0.4145   -0.9875 C   0  0  0  1  0  0  0  0  0  0  0  0
    5.9793    0.5913   -1.3106 C   0  0  0  1  0  0  0  0  0  0  0  0
    6.6893   -0.6281   -0.7191 C   0  0  0  1  0  0  0  0  0  0  0  0
    5.5742   -1.6039   -0.2232 C   0  0  0  1  0  0  0  0  0  0  0  0
    7.5476   -0.2175    0.4146 N   0  0  0  1  0  0  0  0  0  0  0  0
    0.9178    2.4773    0.0988 H   0  0  0  1  0  0  0  0  0  0  0  0
   -2.1490    1.9440   -0.0607 H   0  0  0  1  0  0  0  0  0  0  0  0
   -1.6936   -2.7550   -2.1856 H   0  0  0  1  0  0  0  0  0  0  0  0
   -2.2512   -5.1158   -2.1403 H   0  0  0  1  0  0  0  0  0  0  0  0
   -2.6289   -4.9443    2.0379 H   0  0  0  1  0  0  0  0  0  0  0  0
   -2.0723   -2.5875    1.9927 H   0  0  0  1  0  0  0  0  0  0  0  0
   -1.8280   -7.3473    1.4748 H   0  0  0  1  0  0  0  0  0  0  0  0
   -3.2719   -8.1827    0.9553 H   0  0  0  1  0  0  0  0  0  0  0  0
   -3.4009   -6.6677    1.8169 H   0  0  0  1  0  0  0  0  0  0  0  0
    3.1048   -2.2377    0.2547 H   0  0  0  1  0  0  0  0  0  0  0  0
    4.6133   -0.1266    1.0956 H   0  0  0  1  0  0  0  0  0  0  0  0
    3.9780    0.0445   -1.8440 H   0  0  0  1  0  0  0  0  0  0  0  0
    4.0758    1.3478   -0.6839 H   0  0  0  1  0  0  0  0  0  0  0  0
    6.3519    1.4904   -0.8658 H   0  0  0  1  0  0  0  0  0  0  0  0
    6.1261    0.6294   -2.3698 H   0  0  0  1  0  0  0  0  0  0  0  0
    7.2889   -1.1038   -1.4669 H   0  0  0  1  0  0  0  0  0  0  0  0
    5.8954   -2.1653    0.6291 H   0  0  0  1  0  0  0  0  0  0  0  0
    5.2679   -2.2750   -0.9983 H   0  0  0  1  0  0  0  0  0  0  0  0
    7.9772   -1.0081    0.8028 H   0  0  0  1  0  0  0  0  0  0  0  0
    6.9990    0.2238    1.0962 H   0  0  0  1  0  0  0  0  0  0  0  0
  1  2  4  0  0  0  0
  1  6  4  0  0  0  0
  1 18  1  0  0  0  0
  2  3  4  0  0  0  0
  3  4  4  0  0  0  0
  3 25  1  0  0  0  0
  4  5  4  0  0  0  0
  4  7  4  0  0  0  0
  5  6  4  0  0  0  0
  5  9  4  0  0  0  0
  7  8  4  0  0  0  0
  7 26  1  0  0  0  0
  8  9  4  0  0  0  0
  9 10  1  0  0  0  0
 10 11  4  0  0  0  0
 10 15  4  0  0  0  0
 11 12  4  0  0  0  0
 11 27  1  0  0  0  0
 12 13  4  0  0  0  0
 12 28  1  0  0  0  0
 13 14  4  0  0  0  0
 13 16  1  0  0  0  0
 14 15  4  0  0  0  0
 14 29  1  0  0  0  0
 15 30  1  0  0  0  0
 16 17  1  0  0  0  0
 17 31  1  0  0  0  0
 17 32  1  0  0  0  0
 17 33  1  0  0  0  0
 18 19  1  0  0  0  0
 18 34  1  0  0  0  0
 19 20  1  0  0  0  0
 19 23  1  0  0  0  0
 19 35  1  0  0  0  0
 20 21  1  0  0  0  0
 20 36  1  0  0  0  0
 20 37  1  0  0  0  0
 21 22  1  0  0  0  0
 21 38  1  0  0  0  0
 21 39  1  0  0  0  0
 22 23  1  0  0  0  0
 22 24  1  0  0  0  0
 22 40  1  0  0  0  0
 23 41  1  0  0  0  0
 23 42  1  0  0  0  0
 24 43  1  0  0  0  0
 24 44  1  0  0  0  0
M  END
> <ConfClashScore>
0 

> <ConfOneFourInteractionScore>
-0.985399 

> <ConfScore>
-0.0147234 

> <ConfScorePBest>
0.00275356 

> <ConfTolerance>
0.285998 

$$$$
c22.sdf
 OpenBabel04162418103D

 44 47  0  0  0  0  0  0  0  0999 V2000
    1.9452   -0.6102    0.1256 C   0  0  0  1  0  0  0  0  0  0  0  0
    2.0364    0.7233    0.1482 N   0  0  0  1  0  0  0  0  0  0  0  0
    0.8946    1.4376    0.0881 C   0  0  0  1  0  0  0  0  0  0  0  0
   -0.3452    0.7386    0.0096 C   0  0  0  1  0  0  0  0  0  0  0  0
   -0.2528   -0.6478    0.0020 C   0  0  0  1  0  0  0  0  0  0  0  0
    0.8780   -1.3912    0.0539 N   0  0  0  1  0  0  0  0  0  0  0  0
   -1.7303    0.9921   -0.0538 C   0  0  0  1  0  0  0  0  0  0  0  0
   -2.4281   -0.1191   -0.1028 N   0  0  0  1  0  0  0  0  0  0  0  0
   -1.5126   -1.1342   -0.0681 N   0  0  0  1  0  0  0  0  0  0  0  0
   -1.8418   -2.5193   -0.1013 C   0  0  0  1  0  0  0  0  0  0  0  0
   -2.8736   -3.0031    0.6806 C   0  0  0  1  0  0  0  0  0  0  0  0
   -3.1977   -4.3503    0.6442 C   0  0  0  1  0  0  0  0  0  0  0  0
   -2.4856   -5.2107   -0.1700 C   0  0  0  1  0  0  0  0  0  0  0  0
   -1.4507   -4.7253   -0.9541 C   0  0  0  1  0  0  0  0  0  0  0  0
   -1.1275   -3.3820   -0.9179 C   0  0  0  1  0  0  0  0  0  0  0  0
   -2.7988   -6.5279   -0.2016 O   0  0  0  1  0  0  0  0  0  0  0  0
   -1.9484   -7.3862   -0.9778 C   0  0  0  1  0  0  0  0  0  0  0  0
    3.1257   -1.2629    0.1852 N   0  0  0  1  0  0  0  0  0  0  0  0
    4.4247   -0.5933    0.3052 C   0  0  0  1  0  0  0  0  0  0  0  0
    4.4056    0.3974    1.4751 C   0  0  0  1  0  0  0  0  0  0  0  0
    4.5366    1.7759    0.8394 C   0  0  0  1  0  0  0  0  0  0  0  0
    5.3408    1.5372   -0.4451 C   0  0  0  1  0  0  0  0  0  0  0  0
    4.7144    0.2366   -0.9554 C   0  0  0  1  0  0  0  0  0  0  0  0
    6.7975    1.3654   -0.1545 N   0  0  0  1  0  0  0  0  0  0  0  0
    0.9179    2.4773    0.0988 H   0  0  0  1  0  0  0  0  0  0  0  0
   -2.1490    1.9442   -0.0608 H   0  0  0  1  0  0  0  0  0  0  0  0
   -3.4070   -2.3564    1.2963 H   0  0  0  1  0  0  0  0  0  0  0  0
   -3.9767   -4.7137    1.2296 H   0  0  0  1  0  0  0  0  0  0  0  0
   -0.9174   -5.3721   -1.5698 H   0  0  0  1  0  0  0  0  0  0  0  0
   -0.3485   -3.0186   -1.5033 H   0  0  0  1  0  0  0  0  0  0  0  0
   -0.9326   -7.2590   -0.6665 H   0  0  0  1  0  0  0  0  0  0  0  0
   -2.0378   -7.1340   -2.0139 H   0  0  0  1  0  0  0  0  0  0  0  0
   -2.2412   -8.4049   -0.8316 H   0  0  0  1  0  0  0  0  0  0  0  0
    3.1137   -2.2420    0.1458 H   0  0  0  1  0  0  0  0  0  0  0  0
    5.1916   -1.3251    0.4515 H   0  0  0  1  0  0  0  0  0  0  0  0
    5.2254    0.2110    2.1369 H   0  0  0  1  0  0  0  0  0  0  0  0
    3.4854    0.3205    2.0157 H   0  0  0  1  0  0  0  0  0  0  0  0
    5.0580    2.4443    1.4922 H   0  0  0  1  0  0  0  0  0  0  0  0
    3.5722    2.1793    0.6111 H   0  0  0  1  0  0  0  0  0  0  0  0
    5.2080    2.3362   -1.1443 H   0  0  0  1  0  0  0  0  0  0  0  0
    5.3962   -0.2814   -1.5971 H   0  0  0  1  0  0  0  0  0  0  0  0
    3.8084    0.4402   -1.4869 H   0  0  0  1  0  0  0  0  0  0  0  0
    7.2585    1.0590   -0.9632 H   0  0  0  1  0  0  0  0  0  0  0  0
    6.9122    0.7021    0.5578 H   0  0  0  1  0  0  0  0  0  0  0  0
  1  2  4  0  0  0  0
  1  6  4  0  0  0  0
  1 18  1  0  0  0  0
  2  3  4  0  0  0  0
  3  4  4  0  0  0  0
  3 25  1  0  0  0  0
  4  5  4  0  0  0  0
  4  7  4  0  0  0  0
  5  6  4  0  0  0  0
  5  9  4  0  0  0  0
  7  8  4  0  0  0  0
  7 26  1  0  0  0  0
  8  9  4  0  0  0  0
  9 10  1  0  0  0  0
 10 11  4  0  0  0  0
 10 15  4  0  0  0  0
 11 12  4  0  0  0  0
 11 27  1  0  0  0  0
 12 13  4  0  0  0  0
 12 28  1  0  0  0  0
 13 14  4  0  0  0  0
 13 16  1  0  0  0  0
 14 15  4  0  0  0  0
 14 29  1  0  0  0  0
 15 30  1  0  0  0  0
 16 17  1  0  0  0  0
 17 31  1  0  0  0  0
 17 32  1  0  0  0  0
 17 33  1  0  0  0  0
 18 19  1  0  0  0  0
 18 34  1  0  0  0  0
 19 20  1  0  0  0  0
 19 23  1  0  0  0  0
 19 35  1  0  0  0  0
 20 21  1  0  0  0  0
 20 36  1  0  0  0  0
 20 37  1  0  0  0  0
 21 22  1  0  0  0  0
 21 38  1  0  0  0  0
 21 39  1  0  0  0  0
 22 23  1  0  0  0  0
 22 24  1  0  0  0  0
 22 40  1  0  0  0  0
 23 41  1  0  0  0  0
 23 42  1  0  0  0  0
 24 43  1  0  0  0  0
 24 44  1  0  0  0  0
M  END
> <ConfClashScore>
0 

> <ConfOneFourInteractionScore>
-0.980204 

> <ConfScore>
-0.01338 

> <ConfScorePBest>
0.00274023 

> <ConfTolerance>
0.196526 

$$$$
c22.sdf
 OpenBabel04162418103D

 44 47  0  0  0  0  0  0  0  0999 V2000
    1.9452   -0.6102    0.1256 C   0  0  0  1  0  0  0  0  0  0  0  0
    2.0363    0.7233    0.1483 N   0  0  0  1  0  0  0  0  0  0  0  0
    0.8946    1.4376    0.0881 C   0  0  0  1  0  0  0  0  0  0  0  0
   -0.3452    0.7386    0.0096 C   0  0  0  1  0  0  0  0  0  0  0  0
   -0.2528   -0.6477    0.0020 C   0  0  0  1  0  0  0  0  0  0  0  0
    0.8780   -1.3913    0.0540 N   0  0  0  1  0  0  0  0  0  0  0  0
   -1.7303    0.9921   -0.0538 C   0  0  0  1  0  0  0  0  0  0  0  0
   -2.4281   -0.1192   -0.1029 N   0  0  0  1  0  0  0  0  0  0  0  0
   -1.5126   -1.1341   -0.0681 N   0  0  0  1  0  0  0  0  0  0  0  0
   -1.8396   -2.5099   -0.1011 C   0  0  0  1  0  0  0  0  0  0  0  0
   -3.0716   -2.9383    0.3559 C   0  0  0  1  0  0  0  0  0  0  0  0
   -3.3941   -4.2860    0.3185 C   0  0  0  1  0  0  0  0  0  0  0  0
   -2.4819   -5.2018   -0.1707 C   0  0  0  1  0  0  0  0  0  0  0  0
   -1.2463   -4.7719   -0.6291 C   0  0  0  1  0  0  0  0  0  0  0  0
   -0.9245   -3.4283   -0.5919 C   0  0  0  1  0  0  0  0  0  0  0  0
   -2.8548   -6.4963   -0.1749 O   0  0  0  1  0  0  0  0  0  0  0  0
   -2.0089   -7.3746   -0.9532 C   0  0  0  1  0  0  0  0  0  0  0  0
    3.1257   -1.2628    0.1853 N   0  0  0  1  0  0  0  0  0  0  0  0
    4.4337   -0.6002    0.0893 C   0  0  0  1  0  0  0  0  0  0  0  0
    5.5628   -1.5973    0.3825 C   0  0  0  1  0  0  0  0  0  0  0  0
    6.3174   -1.0458    1.5969 C   0  0  0  1  0  0  0  0  0  0  0  0
    6.0372    0.4477    1.5734 C   0  0  0  1  0  0  0  0  0  0  0  0
    4.5622    0.4880    1.1588 C   0  0  0  1  0  0  0  0  0  0  0  0
    6.9016    1.1470    0.5736 N   0  0  0  1  0  0  0  0  0  0  0  0
    0.9178    2.4772    0.0988 H   0  0  0  1  0  0  0  0  0  0  0  0
   -2.1489    1.9440   -0.0609 H   0  0  0  1  0  0  0  0  0  0  0  0
   -3.7565   -2.2497    0.7278 H   0  0  0  1  0  0  0  0  0  0  0  0
   -4.3227   -4.6079    0.6588 H   0  0  0  1  0  0  0  0  0  0  0  0
   -0.5614   -5.4605   -1.0010 H   0  0  0  1  0  0  0  0  0  0  0  0
    0.0040   -3.1062   -0.9321 H   0  0  0  1  0  0  0  0  0  0  0  0
   -1.1174   -7.5918   -0.4030 H   0  0  0  1  0  0  0  0  0  0  0  0
   -1.7513   -6.8963   -1.8751 H   0  0  0  1  0  0  0  0  0  0  0  0
   -2.5327   -8.2850   -1.1574 H   0  0  0  1  0  0  0  0  0  0  0  0
    3.1092   -2.2360    0.2992 H   0  0  0  1  0  0  0  0  0  0  0  0
    4.5504   -0.1799   -0.8879 H   0  0  0  1  0  0  0  0  0  0  0  0
    6.2193   -1.6716   -0.4592 H   0  0  0  1  0  0  0  0  0  0  0  0
    5.1568   -2.5619    0.6051 H   0  0  0  1  0  0  0  0  0  0  0  0
    7.3667   -1.2351    1.5078 H   0  0  0  1  0  0  0  0  0  0  0  0
    5.9507   -1.4851    2.5011 H   0  0  0  1  0  0  0  0  0  0  0  0
    6.1817    0.8856    2.5389 H   0  0  0  1  0  0  0  0  0  0  0  0
    4.3091    1.4460    0.7555 H   0  0  0  1  0  0  0  0  0  0  0  0
    3.9289    0.2734    1.9942 H   0  0  0  1  0  0  0  0  0  0  0  0
    6.6153    2.0804    0.4897 H   0  0  0  1  0  0  0  0  0  0  0  0
    6.8215    0.7015   -0.2955 H   0  0  0  1  0  0  0  0  0  0  0  0
  1  2  4  0  0  0  0
  1  6  4  0  0  0  0
  1 18  1  0  0  0  0
  2  3  4  0  0  0  0
  3  4  4  0  0  0  0
  3 25  1  0  0  0  0
  4  5  4  0  0  0  0
  4  7  4  0  0  0  0
  5  6  4  0  0  0  0
  5  9  4  0  0  0  0
  7  8  4  0  0  0  0
  7 26  1  0  0  0  0
  8  9  4  0  0  0  0
  9 10  1  0  0  0  0
 10 11  4  0  0  0  0
 10 15  4  0  0  0  0
 11 12  4  0  0  0  0
 11 27  1  0  0  0  0
 12 13  4  0  0  0  0
 12 28  1  0  0  0  0
 13 14  4  0  0  0  0
 13 16  1  0  0  0  0
 14 15  4  0  0  0  0
 14 29  1  0  0  0  0
 15 30  1  0  0  0  0
 16 17  1  0  0  0  0
 17 31  1  0  0  0  0
 17 32  1  0  0  0  0
 17 33  1  0  0  0  0
 18 19  1  0  0  0  0
 18 34  1  0  0  0  0
 19 20  1  0  0  0  0
 19 23  1  0  0  0  0
 19 35  1  0  0  0  0
 20 21  1  0  0  0  0
 20 36  1  0  0  0  0
 20 37  1  0  0  0  0
 21 22  1  0  0  0  0
 21 38  1  0  0  0  0
 21 39  1  0  0  0  0
 22 23  1  0  0  0  0
 22 24  1  0  0  0  0
 22 40  1  0  0  0  0
 23 41  1  0  0  0  0
 23 42  1  0  0  0  0
 24 43  1  0  0  0  0
 24 44  1  0  0  0  0
M  END
> <ConfClashScore>
0 

> <ConfOneFourInteractionScore>
-0.985399 

> <ConfScore>
-0.0132643 

> <ConfScorePBest>
0.0027269 

> <ConfTolerance>
0.353586 

$$$$
c22.sdf
 OpenBabel04162418103D

 44 47  0  0  0  0  0  0  0  0999 V2000
    1.9452   -0.6102    0.1255 C   0  0  0  1  0  0  0  0  0  0  0  0
    2.0362    0.7232    0.1481 N   0  0  0  1  0  0  0  0  0  0  0  0
    0.8946    1.4376    0.0881 C   0  0  0  1  0  0  0  0  0  0  0  0
   -0.3453    0.7386    0.0096 C   0  0  0  1  0  0  0  0  0  0  0  0
   -0.2529   -0.6477    0.0020 C   0  0  0  1  0  0  0  0  0  0  0  0
    0.8779   -1.3913    0.0538 N   0  0  0  1  0  0  0  0  0  0  0  0
   -1.7303    0.9921   -0.0538 C   0  0  0  1  0  0  0  0  0  0  0  0
   -2.4281   -0.1191   -0.1028 N   0  0  0  1  0  0  0  0  0  0  0  0
   -1.5126   -1.1342   -0.0681 N   0  0  0  1  0  0  0  0  0  0  0  0
   -1.8419   -2.5193   -0.1014 C   0  0  0  1  0  0  0  0  0  0  0  0
   -2.1184   -3.1306   -1.3097 C   0  0  0  1  0  0  0  0  0  0  0  0
   -2.3430   -4.4976   -1.3592 C   0  0  0  1  0  0  0  0  0  0  0  0
   -2.2960   -5.2483   -0.1996 C   0  0  0  1  0  0  0  0  0  0  0  0
   -2.0188   -4.6349    1.0122 C   0  0  0  1  0  0  0  0  0  0  0  0
   -1.7946   -3.2719    1.0617 C   0  0  0  1  0  0  0  0  0  0  0  0
   -2.5366   -6.5699   -0.3708 O   0  0  0  1  0  0  0  0  0  0  0  0
   -2.3701   -7.4208    0.7741 C   0  0  0  1  0  0  0  0  0  0  0  0
    3.1379   -1.2696    0.1857 N   0  0  0  1  0  0  0  0  0  0  0  0
    3.2096   -2.7345    0.1826 C   0  0  0  1  0  0  0  0  0  0  0  0
    2.4687   -3.3261    1.3704 C   0  0  0  1  0  0  0  0  0  0  0  0
    3.4370   -3.1632    2.5469 C   0  0  0  1  0  0  0  0  0  0  0  0
    4.8433   -3.0836    1.9380 C   0  0  0  1  0  0  0  0  0  0  0  0
    4.6418   -3.2225    0.4263 C   0  0  0  1  0  0  0  0  0  0  0  0
    5.6993   -4.1931    2.4545 N   0  0  0  1  0  0  0  0  0  0  0  0
    0.9179    2.4772    0.0988 H   0  0  0  1  0  0  0  0  0  0  0  0
   -2.1490    1.9440   -0.0608 H   0  0  0  1  0  0  0  0  0  0  0  0
   -2.1577   -2.5652   -2.1816 H   0  0  0  1  0  0  0  0  0  0  0  0
   -2.5471   -4.9583   -2.2689 H   0  0  0  1  0  0  0  0  0  0  0  0
   -1.9794   -5.2003    1.8842 H   0  0  0  1  0  0  0  0  0  0  0  0
   -1.5906   -2.8112    1.9715 H   0  0  0  1  0  0  0  0  0  0  0  0
   -2.5457   -8.4379    0.4917 H   0  0  0  1  0  0  0  0  0  0  0  0
   -3.0676   -7.1364    1.5341 H   0  0  0  1  0  0  0  0  0  0  0  0
   -1.3730   -7.3222    1.1494 H   0  0  0  1  0  0  0  0  0  0  0  0
    3.9682   -0.7512    0.2321 H   0  0  0  1  0  0  0  0  0  0  0  0
    2.8234   -3.1091   -0.7422 H   0  0  0  1  0  0  0  0  0  0  0  0
    1.5593   -2.7924    1.5527 H   0  0  0  1  0  0  0  0  0  0  0  0
    2.2488   -4.3597    1.2023 H   0  0  0  1  0  0  0  0  0  0  0  0
    3.3652   -4.0038    3.2051 H   0  0  0  1  0  0  0  0  0  0  0  0
    3.2159   -2.2665    3.0874 H   0  0  0  1  0  0  0  0  0  0  0  0
    5.2986   -2.1435    2.1697 H   0  0  0  1  0  0  0  0  0  0  0  0
    5.3437   -2.6149   -0.1058 H   0  0  0  1  0  0  0  0  0  0  0  0
    4.7503   -4.2427    0.1229 H   0  0  0  1  0  0  0  0  0  0  0  0
    5.2067   -5.0386    2.4008 H   0  0  0  1  0  0  0  0  0  0  0  0
    5.9386   -4.0134    3.3877 H   0  0  0  1  0  0  0  0  0  0  0  0
  1  2  4  0  0  0  0
  1  6  4  0  0  0  0
  1 18  1  0  0  0  0
  2  3  4  0  0  0  0
  3  4  4  0  0  0  0
  3 25  1  0  0  0  0
  4  5  4  0  0  0  0
  4  7  4  0  0  0  0
  5  6  4  0  0  0  0
  5  9  4  0  0  0  0
  7  8  4  0  0  0  0
  7 26  1  0  0  0  0
  8  9  4  0  0  0  0
  9 10  1  0  0  0  0
 10 11  4  0  0  0  0
 10 15  4  0  0  0  0
 11 12  4  0  0  0  0
 11 27  1  0  0  0  0
 12 13  4  0  0  0  0
 12 28  1  0  0  0  0
 13 14  4  0  0  0  0
 13 16  1  0  0  0  0
 14 15  4  0  0  0  0
 14 29  1  0  0  0  0
 15 30  1  0  0  0  0
 16 17  1  0  0  0  0
 17 31  1  0  0  0  0
 17 32  1  0  0  0  0
 17 33  1  0  0  0  0
 18 19  1  0  0  0  0
 18 34  1  0  0  0  0
 19 20  1  0  0  0  0
 19 23  1  0  0  0  0
 19 35  1  0  0  0  0
 20 21  1  0  0  0  0
 20 36  1  0  0  0  0
 20 37  1  0  0  0  0
 21 22  1  0  0  0  0
 21 38  1  0  0  0  0
 21 39  1  0  0  0  0
 22 23  1  0  0  0  0
 22 24  1  0  0  0  0
 22 40  1  0  0  0  0
 23 41  1  0  0  0  0
 23 42  1  0  0  0  0
 24 43  1  0  0  0  0
 24 44  1  0  0  0  0
M  END
> <ConfClashScore>
0 

> <ConfOneFourInteractionScore>
-0.981848 

> <ConfScore>
-0.0123006 

> <ConfScorePBest>
0.00271357 

> <ConfTolerance>
0.399126 

$$$$
c22.sdf
 OpenBabel04162418103D

 44 47  0  0  0  0  0  0  0  0999 V2000
    1.9452   -0.6103    0.1256 C   0  0  0  1  0  0  0  0  0  0  0  0
    2.0363    0.7233    0.1482 N   0  0  0  1  0  0  0  0  0  0  0  0
    0.8946    1.4376    0.0881 C   0  0  0  1  0  0  0  0  0  0  0  0
   -0.3452    0.7386    0.0097 C   0  0  0  1  0  0  0  0  0  0  0  0
   -0.2528   -0.6477    0.0020 C   0  0  0  1  0  0  0  0  0  0  0  0
    0.8779   -1.3912    0.0539 N   0  0  0  1  0  0  0  0  0  0  0  0
   -1.7303    0.9921   -0.0538 C   0  0  0  1  0  0  0  0  0  0  0  0
   -2.4281   -0.1191   -0.1028 N   0  0  0  1  0  0  0  0  0  0  0  0
   -1.5126   -1.1342   -0.0681 N   0  0  0  1  0  0  0  0  0  0  0  0
   -1.8416   -2.5184   -0.1013 C   0  0  0  1  0  0  0  0  0  0  0  0
   -1.9748   -3.1681   -1.3139 C   0  0  0  1  0  0  0  0  0  0  0  0
   -2.2901   -4.5175   -1.3462 C   0  0  0  1  0  0  0  0  0  0  0  0
   -2.4767   -5.2121   -0.1659 C   0  0  0  1  0  0  0  0  0  0  0  0
   -2.3431   -4.5604    1.0502 C   0  0  0  1  0  0  0  0  0  0  0  0
   -2.0287   -3.2149    1.0825 C   0  0  0  1  0  0  0  0  0  0  0  0
   -2.7879   -6.5262   -0.2668 O   0  0  0  1  0  0  0  0  0  0  0  0
   -3.2059   -7.0045   -1.5547 C   0  0  0  1  0  0  0  0  0  0  0  0
    3.1214   -1.2605    0.1849 N   0  0  0  1  0  0  0  0  0  0  0  0
    4.4230   -0.5901    0.2553 C   0  0  0  1  0  0  0  0  0  0  0  0
    5.5413   -1.6208    0.4598 C   0  0  0  1  0  0  0  0  0  0  0  0
    6.2152   -1.2353    1.7796 C   0  0  0  1  0  0  0  0  0  0  0  0
    5.1311   -0.4841    2.5601 C   0  0  0  1  0  0  0  0  0  0  0  0
    4.4738    0.3444    1.4687 C   0  0  0  1  0  0  0  0  0  0  0  0
    5.7182    0.3721    3.5997 N   0  0  0  1  0  0  0  0  0  0  0  0
    0.9178    2.4773    0.0988 H   0  0  0  1  0  0  0  0  0  0  0  0
   -2.1490    1.9441   -0.0608 H   0  0  0  1  0  0  0  0  0  0  0  0
   -1.8384   -2.6445   -2.2021 H   0  0  0  1  0  0  0  0  0  0  0  0
   -2.3863   -5.0073   -2.2585 H   0  0  0  1  0  0  0  0  0  0  0  0
   -2.4795   -5.0839    1.9385 H   0  0  0  1  0  0  0  0  0  0  0  0
   -1.9325   -2.7250    1.9949 H   0  0  0  1  0  0  0  0  0  0  0  0
   -4.1095   -6.5095   -1.8435 H   0  0  0  1  0  0  0  0  0  0  0  0
   -3.3779   -8.0594   -1.5046 H   0  0  0  1  0  0  0  0  0  0  0  0
   -2.4420   -6.8009   -2.2758 H   0  0  0  1  0  0  0  0  0  0  0  0
    3.1071   -2.2403    0.1808 H   0  0  0  1  0  0  0  0  0  0  0  0
    4.5891   -0.0370   -0.6456 H   0  0  0  1  0  0  0  0  0  0  0  0
    5.1331   -2.6079    0.5227 H   0  0  0  1  0  0  0  0  0  0  0  0
    6.2437   -1.5755   -0.3461 H   0  0  0  1  0  0  0  0  0  0  0  0
    6.5286   -2.1083    2.3130 H   0  0  0  1  0  0  0  0  0  0  0  0
    7.0598   -0.6028    1.6020 H   0  0  0  1  0  0  0  0  0  0  0  0
    4.4339   -1.1616    3.0071 H   0  0  0  1  0  0  0  0  0  0  0  0
    5.0572    1.2146    1.2514 H   0  0  0  1  0  0  0  0  0  0  0  0
    3.4874    0.6393    1.7603 H   0  0  0  1  0  0  0  0  0  0  0  0
    5.0023    0.8105    4.1052 H   0  0  0  1  0  0  0  0  0  0  0  0
    6.2856    1.0523    3.1804 H   0  0  0  1  0  0  0  0  0  0  0  0
  1  2  4  0  0  0  0
  1  6  4  0  0  0  0
  1 18  1  0  0  0  0
  2  3  4  0  0  0  0
  3  4  4  0  0  0  0
  3 25  1  0  0  0  0
  4  5  4  0  0  0  0
  4  7  4  0  0  0  0
  5  6  4  0  0  0  0
  5  9  4  0  0  0  0
  7  8  4  0  0  0  0
  7 26  1  0  0  0  0
  8  9  4  0  0  0  0
  9 10  1  0  0  0  0
 10 11  4  0  0  0  0
 10 15  4  0  0  0  0
 11 12  4  0  0  0  0
 11 27  1  0  0  0  0
 12 13  4  0  0  0  0
 12 28  1  0  0  0  0
 13 14  4  0  0  0  0
 13 16  1  0  0  0  0
 14 15  4  0  0  0  0
 14 29  1  0  0  0  0
 15 30  1  0  0  0  0
 16 17  1  0  0  0  0
 17 31  1  0  0  0  0
 17 32  1  0  0  0  0
 17 33  1  0  0  0  0
 18 19  1  0  0  0  0
 18 34  1  0  0  0  0
 19 20  1  0  0  0  0
 19 23  1  0  0  0  0
 19 35  1  0  0  0  0
 20 21  1  0  0  0  0
 20 36  1  0  0  0  0
 20 37  1  0  0  0  0
 21 22  1  0  0  0  0
 21 38  1  0  0  0  0
 21 39  1  0  0  0  0
 22 23  1  0  0  0  0
 22 24  1  0  0  0  0
 22 40  1  0  0  0  0
 23 41  1  0  0  0  0
 23 42  1  0  0  0  0
 24 43  1  0  0  0  0
 24 44  1  0  0  0  0
M  END
> <ConfClashScore>
0 

> <ConfOneFourInteractionScore>
-0.985399 

> <ConfScore>
-0.0120859 

> <ConfScorePBest>
0.00270024 

> <ConfTolerance>
0.396319 

$$$$
c22.sdf
 OpenBabel04162418103D

 44 47  0  0  0  0  0  0  0  0999 V2000
    1.9452   -0.6102    0.1256 C   0  0  0  1  0  0  0  0  0  0  0  0
    2.0363    0.7232    0.1481 N   0  0  0  1  0  0  0  0  0  0  0  0
    0.8946    1.4376    0.0881 C   0  0  0  1  0  0  0  0  0  0  0  0
   -0.3452    0.7386    0.0097 C   0  0  0  1  0  0  0  0  0  0  0  0
   -0.2528   -0.6477    0.0020 C   0  0  0  1  0  0  0  0  0  0  0  0
    0.8779   -1.3913    0.0539 N   0  0  0  1  0  0  0  0  0  0  0  0
   -1.7303    0.9921   -0.0538 C   0  0  0  1  0  0  0  0  0  0  0  0
   -2.4281   -0.1190   -0.1028 N   0  0  0  1  0  0  0  0  0  0  0  0
   -1.5126   -1.1342   -0.0681 N   0  0  0  1  0  0  0  0  0  0  0  0
   -1.8397   -2.5098   -0.1011 C   0  0  0  1  0  0  0  0  0  0  0  0
   -2.9151   -2.9819    0.6274 C   0  0  0  1  0  0  0  0  0  0  0  0
   -3.2389   -4.3293    0.5909 C   0  0  0  1  0  0  0  0  0  0  0  0
   -2.4832   -5.2014   -0.1698 C   0  0  0  1  0  0  0  0  0  0  0  0
   -1.4046   -4.7277   -0.9005 C   0  0  0  1  0  0  0  0  0  0  0  0
   -1.0817   -3.3843   -0.8641 C   0  0  0  1  0  0  0  0  0  0  0  0
   -2.8907   -6.4920   -0.1235 O   0  0  0  1  0  0  0  0  0  0  0  0
   -2.2876   -7.4044   -1.0542 C   0  0  0  1  0  0  0  0  0  0  0  0
    3.1256   -1.2629    0.1852 N   0  0  0  1  0  0  0  0  0  0  0  0
    4.4260   -0.5935    0.2441 C   0  0  0  1  0  0  0  0  0  0  0  0
    4.5074    0.3135    1.4748 C   0  0  0  1  0  0  0  0  0  0  0  0
    5.5853    1.3153    1.0408 C   0  0  0  1  0  0  0  0  0  0  0  0
    5.2688    1.6153   -0.4191 C   0  0  0  1  0  0  0  0  0  0  0  0
    4.6042    0.3441   -0.9605 C   0  0  0  1  0  0  0  0  0  0  0  0
    6.5108    1.9097   -1.1684 N   0  0  0  1  0  0  0  0  0  0  0  0
    0.9179    2.4773    0.0988 H   0  0  0  1  0  0  0  0  0  0  0  0
   -2.1490    1.9441   -0.0608 H   0  0  0  1  0  0  0  0  0  0  0  0
   -3.4815   -2.3264    1.2030 H   0  0  0  1  0  0  0  0  0  0  0  0
   -4.0507   -4.6840    1.1359 H   0  0  0  1  0  0  0  0  0  0  0  0
   -0.8384   -5.3832   -1.4760 H   0  0  0  1  0  0  0  0  0  0  0  0
   -0.2700   -3.0296   -1.4090 H   0  0  0  1  0  0  0  0  0  0  0  0
   -2.6460   -7.1973   -2.0408 H   0  0  0  1  0  0  0  0  0  0  0  0
   -2.5430   -8.4082   -0.7856 H   0  0  0  1  0  0  0  0  0  0  0  0
   -1.2242   -7.2876   -1.0295 H   0  0  0  1  0  0  0  0  0  0  0  0
    3.1110   -2.2427    0.1892 H   0  0  0  1  0  0  0  0  0  0  0  0
    5.2047   -1.3271    0.2667 H   0  0  0  1  0  0  0  0  0  0  0  0
    4.8082   -0.2328    2.3444 H   0  0  0  1  0  0  0  0  0  0  0  0
    3.5738    0.8008    1.6643 H   0  0  0  1  0  0  0  0  0  0  0  0
    6.5603    0.8845    1.1345 H   0  0  0  1  0  0  0  0  0  0  0  0
    5.5307    2.2069    1.6296 H   0  0  0  1  0  0  0  0  0  0  0  0
    4.6007    2.4478   -0.4938 H   0  0  0  1  0  0  0  0  0  0  0  0
    3.6535    0.5779   -1.3922 H   0  0  0  1  0  0  0  0  0  0  0  0
    5.2284   -0.1150   -1.6986 H   0  0  0  1  0  0  0  0  0  0  0  0
    7.1196    1.1441   -1.1063 H   0  0  0  1  0  0  0  0  0  0  0  0
    6.9427    2.7020   -0.7861 H   0  0  0  1  0  0  0  0  0  0  0  0
  1  2  4  0  0  0  0
  1  6  4  0  0  0  0
  1 18  1  0  0  0  0
  2  3  4  0  0  0  0
  3  4  4  0  0  0  0
  3 25  1  0  0  0  0
  4  5  4  0  0  0  0
  4  7  4  0  0  0  0
  5  6  4  0  0  0  0
  5  9  4  0  0  0  0
  7  8  4  0  0  0  0
  7 26  1  0  0  0  0
  8  9  4  0  0  0  0
  9 10  1  0  0  0  0
 10 11  4  0  0  0  0
 10 15  4  0  0  0  0
 11 12  4  0  0  0  0
 11 27  1  0  0  0  0
 12 13  4  0  0  0  0
 12 28  1  0  0  0  0
 13 14  4  0  0  0  0
 13 16  1  0  0  0  0
 14 15  4  0  0  0  0
 14 29  1  0  0  0  0
 15 30  1  0  0  0  0
 16 17  1  0  0  0  0
 17 31  1  0  0  0  0
 17 32  1  0  0  0  0
 17 33  1  0  0  0  0
 18 19  1  0  0  0  0
 18 34  1  0  0  0  0
 19 20  1  0  0  0  0
 19 23  1  0  0  0  0
 19 35  1  0  0  0  0
 20 21  1  0  0  0  0
 20 36  1  0  0  0  0
 20 37  1  0  0  0  0
 21 22  1  0  0  0  0
 21 38  1  0  0  0  0
 21 39  1  0  0  0  0
 22 23  1  0  0  0  0
 22 24  1  0  0  0  0
 22 40  1  0  0  0  0
 23 41  1  0  0  0  0
 23 42  1  0  0  0  0
 24 43  1  0  0  0  0
 24 44  1  0  0  0  0
M  END
> <ConfClashScore>
0 

> <ConfOneFourInteractionScore>
-0.980204 

> <ConfScore>
-0.0103776 

> <ConfScorePBest>
0.00268692 

> <ConfTolerance>
0.210189 

$$$$
c22.sdf
 OpenBabel04162418103D

 44 47  0  0  0  0  0  0  0  0999 V2000
    1.9452   -0.6102    0.1255 C   0  0  0  1  0  0  0  0  0  0  0  0
    2.0362    0.7233    0.1481 N   0  0  0  1  0  0  0  0  0  0  0  0
    0.8946    1.4375    0.0881 C   0  0  0  1  0  0  0  0  0  0  0  0
   -0.3452    0.7386    0.0096 C   0  0  0  1  0  0  0  0  0  0  0  0
   -0.2528   -0.6478    0.0020 C   0  0  0  1  0  0  0  0  0  0  0  0
    0.8779   -1.3913    0.0538 N   0  0  0  1  0  0  0  0  0  0  0  0
   -1.7304    0.9921   -0.0538 C   0  0  0  1  0  0  0  0  0  0  0  0
   -2.4281   -0.1191   -0.1029 N   0  0  0  1  0  0  0  0  0  0  0  0
   -1.5125   -1.1341   -0.0681 N   0  0  0  1  0  0  0  0  0  0  0  0
   -1.8385   -2.5051   -0.1010 C   0  0  0  1  0  0  0  0  0  0  0  0
   -1.4472   -3.3831    0.8921 C   0  0  0  1  0  0  0  0  0  0  0  0
   -1.7999   -4.7212    0.8124 C   0  0  0  1  0  0  0  0  0  0  0  0
   -2.5383   -5.1787   -0.2627 C   0  0  0  1  0  0  0  0  0  0  0  0
   -2.9307   -4.2979   -1.2587 C   0  0  0  1  0  0  0  0  0  0  0  0
   -2.5791   -2.9636   -1.1794 C   0  0  0  1  0  0  0  0  0  0  0  0
   -2.9312   -6.4441   -0.4485 O   0  0  0  1  0  0  0  0  0  0  0  0
   -2.6311   -7.4960    0.5295 C   0  0  0  1  0  0  0  0  0  0  0  0
    3.1323   -1.2665    0.1855 N   0  0  0  1  0  0  0  0  0  0  0  0
    3.2639   -2.7470    0.1445 C   0  0  0  1  0  0  0  0  0  0  0  0
    3.7317   -3.2765    1.5052 C   0  0  0  1  0  0  0  0  0  0  0  0
    5.1251   -3.8424    1.2612 C   0  0  0  1  0  0  0  0  0  0  0  0
    5.1070   -4.3041   -0.2018 C   0  0  0  1  0  0  0  0  0  0  0  0
    4.3428   -3.1579   -0.8699 C   0  0  0  1  0  0  0  0  0  0  0  0
    4.3988   -5.5820   -0.3531 N   0  0  0  1  0  0  0  0  0  0  0  0
    0.9179    2.4772    0.0987 H   0  0  0  1  0  0  0  0  0  0  0  0
   -2.1490    1.9441   -0.0608 H   0  0  0  1  0  0  0  0  0  0  0  0
   -0.8882   -3.0397    1.6991 H   0  0  0  1  0  0  0  0  0  0  0  0
   -1.5089   -5.3811    1.5617 H   0  0  0  1  0  0  0  0  0  0  0  0
   -3.4898   -4.6413   -2.0656 H   0  0  0  1  0  0  0  0  0  0  0  0
   -2.8701   -2.3037   -1.9286 H   0  0  0  1  0  0  0  0  0  0  0  0
   -1.6682   -7.9135    0.3208 H   0  0  0  1  0  0  0  0  0  0  0  0
   -3.3738   -8.2637    0.4664 H   0  0  0  1  0  0  0  0  0  0  0  0
   -2.6323   -7.0778    1.5144 H   0  0  0  1  0  0  0  0  0  0  0  0
    3.9508   -0.7328    0.2601 H   0  0  0  1  0  0  0  0  0  0  0  0
    2.3224   -3.1821   -0.1188 H   0  0  0  1  0  0  0  0  0  0  0  0
    3.0724   -4.0431    1.8553 H   0  0  0  1  0  0  0  0  0  0  0  0
    3.7701   -2.4834    2.2224 H   0  0  0  1  0  0  0  0  0  0  0  0
    5.8698   -3.0885    1.4097 H   0  0  0  1  0  0  0  0  0  0  0  0
    5.3170   -4.6675    1.9148 H   0  0  0  1  0  0  0  0  0  0  0  0
    6.0976   -4.3959   -0.5955 H   0  0  0  1  0  0  0  0  0  0  0  0
    3.8928   -3.4889   -1.7825 H   0  0  0  1  0  0  0  0  0  0  0  0
    4.9991   -2.3374   -1.0723 H   0  0  0  1  0  0  0  0  0  0  0  0
    4.2867   -5.7831   -1.3057 H   0  0  0  1  0  0  0  0  0  0  0  0
    3.5186   -5.5199    0.0732 H   0  0  0  1  0  0  0  0  0  0  0  0
  1  2  4  0  0  0  0
  1  6  4  0  0  0  0
  1 18  1  0  0  0  0
  2  3  4  0  0  0  0
  3  4  4  0  0  0  0
  3 25  1  0  0  0  0
  4  5  4  0  0  0  0
  4  7  4  0  0  0  0
  5  6  4  0  0  0  0
  5  9  4  0  0  0  0
  7  8  4  0  0  0  0
  7 26  1  0  0  0  0
  8  9  4  0  0  0  0
  9 10  1  0  0  0  0
 10 11  4  0  0  0  0
 10 15  4  0  0  0  0
 11 12  4  0  0  0  0
 11 27  1  0  0  0  0
 12 13  4  0  0  0  0
 12 28  1  0  0  0  0
 13 14  4  0  0  0  0
 13 16  1  0  0  0  0
 14 15  4  0  0  0  0
 14 29  1  0  0  0  0
 15 30  1  0  0  0  0
 16 17  1  0  0  0  0
 17 31  1  0  0  0  0
 17 32  1  0  0  0  0
 17 33  1  0  0  0  0
 18 19  1  0  0  0  0
 18 34  1  0  0  0  0
 19 20  1  0  0  0  0
 19 23  1  0  0  0  0
 19 35  1  0  0  0  0
 20 21  1  0  0  0  0
 20 36  1  0  0  0  0
 20 37  1  0  0  0  0
 21 22  1  0  0  0  0
 21 38  1  0  0  0  0
 21 39  1  0  0  0  0
 22 23  1  0  0  0  0
 22 24  1  0  0  0  0
 22 40  1  0  0  0  0
 23 41  1  0  0  0  0
 23 42  1  0  0  0  0
 24 43  1  0  0  0  0
 24 44  1  0  0  0  0
M  END
> <ConfClashScore>
0 

> <ConfOneFourInteractionScore>
-0.984337 

> <ConfScore>
-0.00819718 

> <ConfScorePBest>
0.00267359 

> <ConfTolerance>
0.325471 

$$$$
c22.sdf
 OpenBabel04162418103D

 44 47  0  0  0  0  0  0  0  0999 V2000
    1.9452   -0.6101    0.1256 C   0  0  0  1  0  0  0  0  0  0  0  0
    2.0362    0.7233    0.1482 N   0  0  0  1  0  0  0  0  0  0  0  0
    0.8946    1.4376    0.0881 C   0  0  0  1  0  0  0  0  0  0  0  0
   -0.3453    0.7386    0.0096 C   0  0  0  1  0  0  0  0  0  0  0  0
   -0.2528   -0.6478    0.0020 C   0  0  0  1  0  0  0  0  0  0  0  0
    0.8779   -1.3912    0.0539 N   0  0  0  1  0  0  0  0  0  0  0  0
   -1.7304    0.9921   -0.0538 C   0  0  0  1  0  0  0  0  0  0  0  0
   -2.4282   -0.1191   -0.1029 N   0  0  0  1  0  0  0  0  0  0  0  0
   -1.5125   -1.1341   -0.0681 N   0  0  0  1  0  0  0  0  0  0  0  0
   -1.8419   -2.5192   -0.1012 C   0  0  0  1  0  0  0  0  0  0  0  0
   -0.9793   -3.4479    0.4496 C   0  0  0  1  0  0  0  0  0  0  0  0
   -1.3024   -4.7956    0.4222 C   0  0  0  1  0  0  0  0  0  0  0  0
   -2.4845   -5.2112   -0.1609 C   0  0  0  1  0  0  0  0  0  0  0  0
   -3.3497   -4.2796   -0.7135 C   0  0  0  1  0  0  0  0  0  0  0  0
   -3.0276   -2.9358   -0.6860 C   0  0  0  1  0  0  0  0  0  0  0  0
   -2.7381   -6.5415   -0.1596 O   0  0  0  1  0  0  0  0  0  0  0  0
   -3.8582   -6.9968   -0.9346 C   0  0  0  1  0  0  0  0  0  0  0  0
    3.1213   -1.2603    0.1850 N   0  0  0  1  0  0  0  0  0  0  0  0
    4.4212   -0.5917    0.2288 C   0  0  0  1  0  0  0  0  0  0  0  0
    5.5526   -1.5444   -0.2928 C   0  0  0  1  0  0  0  0  0  0  0  0
    6.4580   -1.8766    0.9076 C   0  0  0  1  0  0  0  0  0  0  0  0
    6.3096   -0.6088    1.8141 C   0  0  0  1  0  0  0  0  0  0  0  0
    4.8189   -0.2799    1.6680 C   0  0  0  1  0  0  0  0  0  0  0  0
    7.1564    0.5048    1.3235 N   0  0  0  1  0  0  0  0  0  0  0  0
    0.9178    2.4773    0.0987 H   0  0  0  1  0  0  0  0  0  0  0  0
   -2.1490    1.9441   -0.0609 H   0  0  0  1  0  0  0  0  0  0  0  0
   -0.0877   -3.1356    0.8849 H   0  0  0  1  0  0  0  0  0  0  0  0
   -0.6551   -5.4941    0.8402 H   0  0  0  1  0  0  0  0  0  0  0  0
   -4.2412   -4.5918   -1.1486 H   0  0  0  1  0  0  0  0  0  0  0  0
   -3.6748   -2.2373   -1.1042 H   0  0  0  1  0  0  0  0  0  0  0  0
   -3.8810   -8.0665   -0.9349 H   0  0  0  1  0  0  0  0  0  0  0  0
   -3.7641   -6.6419   -1.9396 H   0  0  0  1  0  0  0  0  0  0  0  0
   -4.7640   -6.6211   -0.5066 H   0  0  0  1  0  0  0  0  0  0  0  0
    3.1062   -2.2401    0.1998 H   0  0  0  1  0  0  0  0  0  0  0  0
    4.3820    0.3041   -0.3552 H   0  0  0  1  0  0  0  0  0  0  0  0
    6.1209   -1.0550   -1.0561 H   0  0  0  1  0  0  0  0  0  0  0  0
    5.1232   -2.4417   -0.6873 H   0  0  0  1  0  0  0  0  0  0  0  0
    6.1182   -2.7551    1.4152 H   0  0  0  1  0  0  0  0  0  0  0  0
    7.4732   -2.0128    0.5986 H   0  0  0  1  0  0  0  0  0  0  0  0
    6.5609   -0.8273    2.8310 H   0  0  0  1  0  0  0  0  0  0  0  0
    4.6509    0.7559    1.8774 H   0  0  0  1  0  0  0  0  0  0  0  0
    4.2446   -0.8787    2.3437 H   0  0  0  1  0  0  0  0  0  0  0  0
    8.0976    0.3082    1.5132 H   0  0  0  1  0  0  0  0  0  0  0  0
    6.8988    1.3349    1.7764 H   0  0  0  1  0  0  0  0  0  0  0  0
  1  2  4  0  0  0  0
  1  6  4  0  0  0  0
  1 18  1  0  0  0  0
  2  3  4  0  0  0  0
  3  4  4  0  0  0  0
  3 25  1  0  0  0  0
  4  5  4  0  0  0  0
  4  7  4  0  0  0  0
  5  6  4  0  0  0  0
  5  9  4  0  0  0  0
  7  8  4  0  0  0  0
  7 26  1  0  0  0  0
  8  9  4  0  0  0  0
  9 10  1  0  0  0  0
 10 11  4  0  0  0  0
 10 15  4  0  0  0  0
 11 12  4  0  0  0  0
 11 27  1  0  0  0  0
 12 13  4  0  0  0  0
 12 28  1  0  0  0  0
 13 14  4  0  0  0  0
 13 16  1  0  0  0  0
 14 15  4  0  0  0  0
 14 29  1  0  0  0  0
 15 30  1  0  0  0  0
 16 17  1  0  0  0  0
 17 31  1  0  0  0  0
 17 32  1  0  0  0  0
 17 33  1  0  0  0  0
 18 19  1  0  0  0  0
 18 34  1  0  0  0  0
 19 20  1  0  0  0  0
 19 23  1  0  0  0  0
 19 35  1  0  0  0  0
 20 21  1  0  0  0  0
 20 36  1  0  0  0  0
 20 37  1  0  0  0  0
 21 22  1  0  0  0  0
 21 38  1  0  0  0  0
 21 39  1  0  0  0  0
 22 23  1  0  0  0  0
 22 24  1  0  0  0  0
 22 40  1  0  0  0  0
 23 41  1  0  0  0  0
 23 42  1  0  0  0  0
 24 43  1  0  0  0  0
 24 44  1  0  0  0  0
M  END
> <ConfClashScore>
0 

> <ConfOneFourInteractionScore>
-0.984337 

> <ConfScore>
-0.00753191 

> <ConfScorePBest>
0.00266026 

> <ConfTolerance>
0.346869 

$$$$
c22.sdf
 OpenBabel04162418103D

 44 47  0  0  0  0  0  0  0  0999 V2000
    1.9452   -0.6102    0.1255 C   0  0  0  1  0  0  0  0  0  0  0  0
    2.0363    0.7232    0.1481 N   0  0  0  1  0  0  0  0  0  0  0  0
    0.8946    1.4376    0.0881 C   0  0  0  1  0  0  0  0  0  0  0  0
   -0.3453    0.7386    0.0096 C   0  0  0  1  0  0  0  0  0  0  0  0
   -0.2528   -0.6477    0.0020 C   0  0  0  1  0  0  0  0  0  0  0  0
    0.8779   -1.3912    0.0538 N   0  0  0  1  0  0  0  0  0  0  0  0
   -1.7304    0.9921   -0.0538 C   0  0  0  1  0  0  0  0  0  0  0  0
   -2.4282   -0.1191   -0.1028 N   0  0  0  1  0  0  0  0  0  0  0  0
   -1.5125   -1.1341   -0.0681 N   0  0  0  1  0  0  0  0  0  0  0  0
   -1.8370   -2.4984   -0.1009 C   0  0  0  1  0  0  0  0  0  0  0  0
   -1.3860   -3.2412    0.9739 C   0  0  0  1  0  0  0  0  0  0  0  0
   -1.6581   -4.5988    1.0408 C   0  0  0  1  0  0  0  0  0  0  0  0
   -2.3755   -5.2107    0.0303 C   0  0  0  1  0  0  0  0  0  0  0  0
   -2.8279   -4.4655   -1.0475 C   0  0  0  1  0  0  0  0  0  0  0  0
   -2.5567   -3.1119   -1.1144 C   0  0  0  1  0  0  0  0  0  0  0  0
   -2.6354   -6.5311    0.0930 O   0  0  0  1  0  0  0  0  0  0  0  0
   -2.0967   -7.2067    1.2532 C   0  0  0  1  0  0  0  0  0  0  0  0
    3.1213   -1.2605    0.1848 N   0  0  0  1  0  0  0  0  0  0  0  0
    4.4236   -0.5924    0.1905 C   0  0  0  1  0  0  0  0  0  0  0  0
    4.5369    0.3553   -0.9933 C   0  0  0  1  0  0  0  0  0  0  0  0
    5.6066   -0.2014   -1.9469 C   0  0  0  1  0  0  0  0  0  0  0  0
    5.7553   -1.6441   -1.4968 C   0  0  0  1  0  0  0  0  0  0  0  0
    5.5552   -1.6233    0.0163 C   0  0  0  1  0  0  0  0  0  0  0  0
    7.1221   -2.1611   -1.8375 N   0  0  0  1  0  0  0  0  0  0  0  0
    0.9179    2.4772    0.0988 H   0  0  0  1  0  0  0  0  0  0  0  0
   -2.1490    1.9441   -0.0608 H   0  0  0  1  0  0  0  0  0  0  0  0
   -0.8427   -2.7817    1.7323 H   0  0  0  1  0  0  0  0  0  0  0  0
   -1.3221   -5.1570    1.8515 H   0  0  0  1  0  0  0  0  0  0  0  0
   -3.3711   -4.9250   -1.8059 H   0  0  0  1  0  0  0  0  0  0  0  0
   -2.8926   -2.5537   -1.9251 H   0  0  0  1  0  0  0  0  0  0  0  0
   -2.7491   -7.0579    2.0881 H   0  0  0  1  0  0  0  0  0  0  0  0
   -1.1300   -6.8083    1.4807 H   0  0  0  1  0  0  0  0  0  0  0  0
   -2.0125   -8.2536    1.0487 H   0  0  0  1  0  0  0  0  0  0  0  0
    3.1052   -2.2395    0.2266 H   0  0  0  1  0  0  0  0  0  0  0  0
    4.5464   -0.0570    1.1088 H   0  0  0  1  0  0  0  0  0  0  0  0
    3.5963    0.4177   -1.4995 H   0  0  0  1  0  0  0  0  0  0  0  0
    4.8245    1.3282   -0.6532 H   0  0  0  1  0  0  0  0  0  0  0  0
    6.5290    0.3305   -1.8410 H   0  0  0  1  0  0  0  0  0  0  0  0
    5.2787   -0.1487   -2.9641 H   0  0  0  1  0  0  0  0  0  0  0  0
    5.0143   -2.2592   -1.9632 H   0  0  0  1  0  0  0  0  0  0  0  0
    5.2607   -2.5854    0.3802 H   0  0  0  1  0  0  0  0  0  0  0  0
    6.4455   -1.3083    0.5193 H   0  0  0  1  0  0  0  0  0  0  0  0
    7.8013   -1.5772   -1.4397 H   0  0  0  1  0  0  0  0  0  0  0  0
    7.2328   -2.1745   -2.8111 H   0  0  0  1  0  0  0  0  0  0  0  0
  1  2  4  0  0  0  0
  1  6  4  0  0  0  0
  1 18  1  0  0  0  0
  2  3  4  0  0  0  0
  3  4  4  0  0  0  0
  3 25  1  0  0  0  0
  4  5  4  0  0  0  0
  4  7  4  0  0  0  0
  5  6  4  0  0  0  0
  5  9  4  0  0  0  0
  7  8  4  0  0  0  0
  7 26  1  0  0  0  0
  8  9  4  0  0  0  0
  9 10  1  0  0  0  0
 10 11  4  0  0  0  0
 10 15  4  0  0  0  0
 11 12  4  0  0  0  0
 11 27  1  0  0  0  0
 12 13  4  0  0  0  0
 12 28  1  0  0  0  0
 13 14  4  0  0  0  0
 13 16  1  0  0  0  0
 14 15  4  0  0  0  0
 14 29  1  0  0  0  0
 15 30  1  0  0  0  0
 16 17  1  0  0  0  0
 17 31  1  0  0  0  0
 17 32  1  0  0  0  0
 17 33  1  0  0  0  0
 18 19  1  0  0  0  0
 18 34  1  0  0  0  0
 19 20  1  0  0  0  0
 19 23  1  0  0  0  0
 19 35  1  0  0  0  0
 20 21  1  0  0  0  0
 20 36  1  0  0  0  0
 20 37  1  0  0  0  0
 21 22  1  0  0  0  0
 21 38  1  0  0  0  0
 21 39  1  0  0  0  0
 22 23  1  0  0  0  0
 22 24  1  0  0  0  0
 22 40  1  0  0  0  0
 23 41  1  0  0  0  0
 23 42  1  0  0  0  0
 24 43  1  0  0  0  0
 24 44  1  0  0  0  0
M  END
> <ConfClashScore>
0 

> <ConfOneFourInteractionScore>
-0.985399 

> <ConfScore>
-0.00592851 

> <ConfScorePBest>
0.00264693 

> <ConfTolerance>
0.357534 

$$$$
c22.sdf
 OpenBabel04162418103D

 44 47  0  0  0  0  0  0  0  0999 V2000
    1.9452   -0.6102    0.1254 C   0  0  0  1  0  0  0  0  0  0  0  0
    2.0363    0.7234    0.1481 N   0  0  0  1  0  0  0  0  0  0  0  0
    0.8946    1.4376    0.0881 C   0  0  0  1  0  0  0  0  0  0  0  0
   -0.3452    0.7386    0.0096 C   0  0  0  1  0  0  0  0  0  0  0  0
   -0.2528   -0.6478    0.0019 C   0  0  0  1  0  0  0  0  0  0  0  0
    0.8780   -1.3913    0.0538 N   0  0  0  1  0  0  0  0  0  0  0  0
   -1.7303    0.9920   -0.0538 C   0  0  0  1  0  0  0  0  0  0  0  0
   -2.4281   -0.1191   -0.1029 N   0  0  0  1  0  0  0  0  0  0  0  0
   -1.5126   -1.1341   -0.0681 N   0  0  0  1  0  0  0  0  0  0  0  0
   -1.8419   -2.5193   -0.1014 C   0  0  0  1  0  0  0  0  0  0  0  0
   -2.0311   -3.2131    1.0789 C   0  0  0  1  0  0  0  0  0  0  0  0
   -2.3569   -4.5600    1.0462 C   0  0  0  1  0  0  0  0  0  0  0  0
   -2.4873   -5.2105   -0.1663 C   0  0  0  1  0  0  0  0  0  0  0  0
   -2.2975   -4.5145   -1.3499 C   0  0  0  1  0  0  0  0  0  0  0  0
   -1.9726   -3.1714   -1.3176 C   0  0  0  1  0  0  0  0  0  0  0  0
   -2.8022   -6.5242   -0.0728 O   0  0  0  1  0  0  0  0  0  0  0  0
   -3.0154   -7.2369   -1.3012 C   0  0  0  1  0  0  0  0  0  0  0  0
    3.1162   -1.2576    0.1845 N   0  0  0  1  0  0  0  0  0  0  0  0
    4.5041   -0.7895    0.1446 C   0  0  0  1  0  0  0  0  0  0  0  0
    5.4536   -1.9045   -0.3339 C   0  0  0  1  0  0  0  0  0  0  0  0
    6.7602   -1.6891    0.4137 C   0  0  0  1  0  0  0  0  0  0  0  0
    6.5380   -0.5717    1.4463 C   0  0  0  1  0  0  0  0  0  0  0  0
    5.0249   -0.4891    1.5474 C   0  0  0  1  0  0  0  0  0  0  0  0
    7.1095    0.7105    0.9726 N   0  0  0  1  0  0  0  0  0  0  0  0
    0.9178    2.4773    0.0988 H   0  0  0  1  0  0  0  0  0  0  0  0
   -2.1490    1.9441   -0.0607 H   0  0  0  1  0  0  0  0  0  0  0  0
   -1.9289   -2.7246    1.9913 H   0  0  0  1  0  0  0  0  0  0  0  0
   -2.5032   -5.0811    1.9343 H   0  0  0  1  0  0  0  0  0  0  0  0
   -2.3996   -5.0029   -2.2624 H   0  0  0  1  0  0  0  0  0  0  0  0
   -1.8263   -2.6503   -2.2056 H   0  0  0  1  0  0  0  0  0  0  0  0
   -3.3384   -6.5540   -2.0589 H   0  0  0  1  0  0  0  0  0  0  0  0
   -3.7651   -7.9859   -1.1533 H   0  0  0  1  0  0  0  0  0  0  0  0
   -2.1014   -7.7019   -1.6067 H   0  0  0  1  0  0  0  0  0  0  0  0
    3.0280   -2.2298    0.2708 H   0  0  0  1  0  0  0  0  0  0  0  0
    4.5723    0.0726   -0.4856 H   0  0  0  1  0  0  0  0  0  0  0  0
    5.0457   -2.8658   -0.1006 H   0  0  0  1  0  0  0  0  0  0  0  0
    5.6123   -1.8305   -1.3894 H   0  0  0  1  0  0  0  0  0  0  0  0
    7.5282   -1.4009   -0.2733 H   0  0  0  1  0  0  0  0  0  0  0  0
    7.0465   -2.5918    0.9116 H   0  0  0  1  0  0  0  0  0  0  0  0
    6.9720   -0.8295    2.3897 H   0  0  0  1  0  0  0  0  0  0  0  0
    4.6570   -1.2121    2.2452 H   0  0  0  1  0  0  0  0  0  0  0  0
    4.7241    0.4903    1.8559 H   0  0  0  1  0  0  0  0  0  0  0  0
    6.7084    0.9489    0.1108 H   0  0  0  1  0  0  0  0  0  0  0  0
    8.0792    0.6162    0.8666 H   0  0  0  1  0  0  0  0  0  0  0  0
  1  2  4  0  0  0  0
  1  6  4  0  0  0  0
  1 18  1  0  0  0  0
  2  3  4  0  0  0  0
  3  4  4  0  0  0  0
  3 25  1  0  0  0  0
  4  5  4  0  0  0  0
  4  7  4  0  0  0  0
  5  6  4  0  0  0  0
  5  9  4  0  0  0  0
  7  8  4  0  0  0  0
  7 26  1  0  0  0  0
  8  9  4  0  0  0  0
  9 10  1  0  0  0  0
 10 11  4  0  0  0  0
 10 15  4  0  0  0  0
 11 12  4  0  0  0  0
 11 27  1  0  0  0  0
 12 13  4  0  0  0  0
 12 28  1  0  0  0  0
 13 14  4  0  0  0  0
 13 16  1  0  0  0  0
 14 15  4  0  0  0  0
 14 29  1  0  0  0  0
 15 30  1  0  0  0  0
 16 17  1  0  0  0  0
 17 31  1  0  0  0  0
 17 32  1  0  0  0  0
 17 33  1  0  0  0  0
 18 19  1  0  0  0  0
 18 34  1  0  0  0  0
 19 20  1  0  0  0  0
 19 23  1  0  0  0  0
 19 35  1  0  0  0  0
 20 21  1  0  0  0  0
 20 36  1  0  0  0  0
 20 37  1  0  0  0  0
 21 22  1  0  0  0  0
 21 38  1  0  0  0  0
 21 39  1  0  0  0  0
 22 23  1  0  0  0  0
 22 24  1  0  0  0  0
 22 40  1  0  0  0  0
 23 41  1  0  0  0  0
 23 42  1  0  0  0  0
 24 43  1  0  0  0  0
 24 44  1  0  0  0  0
M  END
> <ConfClashScore>
0 

> <ConfOneFourInteractionScore>
-0.984337 

> <ConfScore>
-0.00420765 

> <ConfScorePBest>
0.0026336 

> <ConfTolerance>
0.414621 

$$$$
c22.sdf
 OpenBabel04162418103D

 44 47  0  0  0  0  0  0  0  0999 V2000
    1.9452   -0.6102    0.1256 C   0  0  0  1  0  0  0  0  0  0  0  0
    2.0363    0.7233    0.1482 N   0  0  0  1  0  0  0  0  0  0  0  0
    0.8946    1.4376    0.0881 C   0  0  0  1  0  0  0  0  0  0  0  0
   -0.3452    0.7386    0.0096 C   0  0  0  1  0  0  0  0  0  0  0  0
   -0.2528   -0.6478    0.0020 C   0  0  0  1  0  0  0  0  0  0  0  0
    0.8780   -1.3912    0.0539 N   0  0  0  1  0  0  0  0  0  0  0  0
   -1.7304    0.9921   -0.0538 C   0  0  0  1  0  0  0  0  0  0  0  0
   -2.4281   -0.1192   -0.1029 N   0  0  0  1  0  0  0  0  0  0  0  0
   -1.5125   -1.1342   -0.0681 N   0  0  0  1  0  0  0  0  0  0  0  0
   -1.8419   -2.5192   -0.1014 C   0  0  0  1  0  0  0  0  0  0  0  0
   -1.4790   -3.3369    0.9521 C   0  0  0  1  0  0  0  0  0  0  0  0
   -1.8818   -4.6631    0.9706 C   0  0  0  1  0  0  0  0  0  0  0  0
   -2.6418   -5.1692   -0.0670 C   0  0  0  1  0  0  0  0  0  0  0  0
   -3.0057   -4.3490   -1.1236 C   0  0  0  1  0  0  0  0  0  0  0  0
   -2.6040   -3.0266   -1.1421 C   0  0  0  1  0  0  0  0  0  0  0  0
   -2.9706   -6.4770    0.0577 O   0  0  0  1  0  0  0  0  0  0  0  0
   -3.9807   -6.9868   -0.8267 C   0  0  0  1  0  0  0  0  0  0  0  0
    3.1213   -1.2604    0.1849 N   0  0  0  1  0  0  0  0  0  0  0  0
    3.2453   -2.7180    0.3076 C   0  0  0  1  0  0  0  0  0  0  0  0
    4.7009   -3.1676    0.0766 C   0  0  0  1  0  0  0  0  0  0  0  0
    4.6221   -4.6150   -0.4398 C   0  0  0  1  0  0  0  0  0  0  0  0
    3.1613   -4.8367   -0.9240 C   0  0  0  1  0  0  0  0  0  0  0  0
    2.4508   -3.4444   -0.8303 C   0  0  0  1  0  0  0  0  0  0  0  0
    2.4711   -5.8292   -0.0470 N   0  0  0  1  0  0  0  0  0  0  0  0
    0.9178    2.4773    0.0988 H   0  0  0  1  0  0  0  0  0  0  0  0
   -2.1490    1.9440   -0.0607 H   0  0  0  1  0  0  0  0  0  0  0  0
   -0.9038   -2.9572    1.7310 H   0  0  0  1  0  0  0  0  0  0  0  0
   -1.6122   -5.2774    1.7654 H   0  0  0  1  0  0  0  0  0  0  0  0
   -3.5809   -4.7287   -1.9024 H   0  0  0  1  0  0  0  0  0  0  0  0
   -2.8737   -2.4123   -1.9368 H   0  0  0  1  0  0  0  0  0  0  0  0
   -3.8464   -8.0408   -0.9525 H   0  0  0  1  0  0  0  0  0  0  0  0
   -3.9005   -6.5014   -1.7769 H   0  0  0  1  0  0  0  0  0  0  0  0
   -4.9479   -6.7980   -0.4098 H   0  0  0  1  0  0  0  0  0  0  0  0
    3.9441   -0.7296    0.1438 H   0  0  0  1  0  0  0  0  0  0  0  0
    2.8988   -3.0260    1.2719 H   0  0  0  1  0  0  0  0  0  0  0  0
    5.1729   -2.5393   -0.6497 H   0  0  0  1  0  0  0  0  0  0  0  0
    5.2513   -3.1297    0.9933 H   0  0  0  1  0  0  0  0  0  0  0  0
    5.3049   -4.7547   -1.2518 H   0  0  0  1  0  0  0  0  0  0  0  0
    4.8579   -5.3007    0.3470 H   0  0  0  1  0  0  0  0  0  0  0  0
    3.1554   -5.1880   -1.9346 H   0  0  0  1  0  0  0  0  0  0  0  0
    1.4196   -3.5561   -0.5678 H   0  0  0  1  0  0  0  0  0  0  0  0
    2.5283   -2.9104   -1.7542 H   0  0  0  1  0  0  0  0  0  0  0  0
    2.9087   -6.7019   -0.1332 H   0  0  0  1  0  0  0  0  0  0  0  0
    1.5323   -5.9066   -0.3175 H   0  0  0  1  0  0  0  0  0  0  0  0
  1  2  4  0  0  0  0
  1  6  4  0  0  0  0
  1 18  1  0  0  0  0
  2  3  4  0  0  0  0
  3  4  4  0  0  0  0
  3 25  1  0  0  0  0
  4  5  4  0  0  0  0
  4  7  4  0  0  0  0
  5  6  4  0  0  0  0
  5  9  4  0  0  0  0
  7  8  4  0  0  0  0
  7 26  1  0  0  0  0
  8  9  4  0  0  0  0
  9 10  1  0  0  0  0
 10 11  4  0  0  0  0
 10 15  4  0  0  0  0
 11 12  4  0  0  0  0
 11 27  1  0  0  0  0
 12 13  4  0  0  0  0
 12 28  1  0  0  0  0
 13 14  4  0  0  0  0
 13 16  1  0  0  0  0
 14 15  4  0  0  0  0
 14 29  1  0  0  0  0
 15 30  1  0  0  0  0
 16 17  1  0  0  0  0
 17 31  1  0  0  0  0
 17 32  1  0  0  0  0
 17 33  1  0  0  0  0
 18 19  1  0  0  0  0
 18 34  1  0  0  0  0
 19 20  1  0  0  0  0
 19 23  1  0  0  0  0
 19 35  1  0  0  0  0
 20 21  1  0  0  0  0
 20 36  1  0  0  0  0
 20 37  1  0  0  0  0
 21 22  1  0  0  0  0
 21 38  1  0  0  0  0
 21 39  1  0  0  0  0
 22 23  1  0  0  0  0
 22 24  1  0  0  0  0
 22 40  1  0  0  0  0
 23 41  1  0  0  0  0
 23 42  1  0  0  0  0
 24 43  1  0  0  0  0
 24 44  1  0  0  0  0
M  END
> <ConfClashScore>
0 

> <ConfOneFourInteractionScore>
-0.985399 

> <ConfScore>
-0.00338073 

> <ConfScorePBest>
0.00262028 

> <ConfTolerance>
0.294752 

$$$$
c22.sdf
 OpenBabel04162418103D

 44 47  0  0  0  0  0  0  0  0999 V2000
    1.9452   -0.6102    0.1256 C   0  0  0  1  0  0  0  0  0  0  0  0
    2.0363    0.7233    0.1482 N   0  0  0  1  0  0  0  0  0  0  0  0
    0.8946    1.4375    0.0881 C   0  0  0  1  0  0  0  0  0  0  0  0
   -0.3453    0.7385    0.0096 C   0  0  0  1  0  0  0  0  0  0  0  0
   -0.2529   -0.6478    0.0020 C   0  0  0  1  0  0  0  0  0  0  0  0
    0.8779   -1.3913    0.0540 N   0  0  0  1  0  0  0  0  0  0  0  0
   -1.7303    0.9921   -0.0538 C   0  0  0  1  0  0  0  0  0  0  0  0
   -2.4281   -0.1191   -0.1029 N   0  0  0  1  0  0  0  0  0  0  0  0
   -1.5125   -1.1341   -0.0681 N   0  0  0  1  0  0  0  0  0  0  0  0
   -1.8396   -2.5099   -0.1010 C   0  0  0  1  0  0  0  0  0  0  0  0
   -2.1212   -3.1245   -1.3065 C   0  0  0  1  0  0  0  0  0  0  0  0
   -2.4364   -4.4739   -1.3393 C   0  0  0  1  0  0  0  0  0  0  0  0
   -2.4746   -5.2036   -0.1661 C   0  0  0  1  0  0  0  0  0  0  0  0
   -2.1922   -4.5870    1.0428 C   0  0  0  1  0  0  0  0  0  0  0  0
   -1.8778   -3.2415    1.0758 C   0  0  0  1  0  0  0  0  0  0  0  0
   -2.7991   -6.5091   -0.3218 O   0  0  0  1  0  0  0  0  0  0  0  0
   -2.7593   -7.3394    0.8494 C   0  0  0  1  0  0  0  0  0  0  0  0
    3.1323   -1.2664    0.1856 N   0  0  0  1  0  0  0  0  0  0  0  0
    4.4229   -0.6013    0.3117 C   0  0  0  1  0  0  0  0  0  0  0  0
    5.5793   -1.5876    0.1150 C   0  0  0  1  0  0  0  0  0  0  0  0
    6.7784   -0.9131    0.7872 C   0  0  0  1  0  0  0  0  0  0  0  0
    6.1803    0.0277    1.8418 C   0  0  0  1  0  0  0  0  0  0  0  0
    4.6588   -0.1184    1.7333 C   0  0  0  1  0  0  0  0  0  0  0  0
    6.5818    1.4259    1.5681 N   0  0  0  1  0  0  0  0  0  0  0  0
    0.9178    2.4773    0.0987 H   0  0  0  1  0  0  0  0  0  0  0  0
   -2.1490    1.9440   -0.0609 H   0  0  0  1  0  0  0  0  0  0  0  0
   -2.0964   -2.5746   -2.1889 H   0  0  0  1  0  0  0  0  0  0  0  0
   -2.6443   -4.9373   -2.2468 H   0  0  0  1  0  0  0  0  0  0  0  0
   -2.2169   -5.1369    1.9253 H   0  0  0  1  0  0  0  0  0  0  0  0
   -1.6699   -2.7781    1.9833 H   0  0  0  1  0  0  0  0  0  0  0  0
   -3.5426   -7.0506    1.5187 H   0  0  0  1  0  0  0  0  0  0  0  0
   -1.8136   -7.2235    1.3364 H   0  0  0  1  0  0  0  0  0  0  0  0
   -2.8919   -8.3625    0.5657 H   0  0  0  1  0  0  0  0  0  0  0  0
    3.1205   -2.2454    0.1415 H   0  0  0  1  0  0  0  0  0  0  0  0
    4.4780    0.2068   -0.3876 H   0  0  0  1  0  0  0  0  0  0  0  0
    5.3608   -2.5243    0.5838 H   0  0  0  1  0  0  0  0  0  0  0  0
    5.7689   -1.7450   -0.9263 H   0  0  0  1  0  0  0  0  0  0  0  0
    7.3459   -0.3581    0.0697 H   0  0  0  1  0  0  0  0  0  0  0  0
    7.4069   -1.6441    1.2516 H   0  0  0  1  0  0  0  0  0  0  0  0
    6.5108   -0.2540    2.8197 H   0  0  0  1  0  0  0  0  0  0  0  0
    4.2963   -0.8346    2.4408 H   0  0  0  1  0  0  0  0  0  0  0  0
    4.1759    0.8222    1.8981 H   0  0  0  1  0  0  0  0  0  0  0  0
    7.5590    1.4962    1.5914 H   0  0  0  1  0  0  0  0  0  0  0  0
    6.1957    2.0156    2.2490 H   0  0  0  1  0  0  0  0  0  0  0  0
  1  2  4  0  0  0  0
  1  6  4  0  0  0  0
  1 18  1  0  0  0  0
  2  3  4  0  0  0  0
  3  4  4  0  0  0  0
  3 25  1  0  0  0  0
  4  5  4  0  0  0  0
  4  7  4  0  0  0  0
  5  6  4  0  0  0  0
  5  9  4  0  0  0  0
  7  8  4  0  0  0  0
  7 26  1  0  0  0  0
  8  9  4  0  0  0  0
  9 10  1  0  0  0  0
 10 11  4  0  0  0  0
 10 15  4  0  0  0  0
 11 12  4  0  0  0  0
 11 27  1  0  0  0  0
 12 13  4  0  0  0  0
 12 28  1  0  0  0  0
 13 14  4  0  0  0  0
 13 16  1  0  0  0  0
 14 15  4  0  0  0  0
 14 29  1  0  0  0  0
 15 30  1  0  0  0  0
 16 17  1  0  0  0  0
 17 31  1  0  0  0  0
 17 32  1  0  0  0  0
 17 33  1  0  0  0  0
 18 19  1  0  0  0  0
 18 34  1  0  0  0  0
 19 20  1  0  0  0  0
 19 23  1  0  0  0  0
 19 35  1  0  0  0  0
 20 21  1  0  0  0  0
 20 36  1  0  0  0  0
 20 37  1  0  0  0  0
 21 22  1  0  0  0  0
 21 38  1  0  0  0  0
 21 39  1  0  0  0  0
 22 23  1  0  0  0  0
 22 24  1  0  0  0  0
 22 40  1  0  0  0  0
 23 41  1  0  0  0  0
 23 42  1  0  0  0  0
 24 43  1  0  0  0  0
 24 44  1  0  0  0  0
M  END
> <ConfClashScore>
0 

> <ConfOneFourInteractionScore>
-0.984337 

> <ConfScore>
-0.00212791 

> <ConfScorePBest>
0.00260695 

> <ConfTolerance>
0.385639 

$$$$
c22.sdf
 OpenBabel04162418103D

 44 47  0  0  0  0  0  0  0  0999 V2000
    1.9453   -0.6103    0.1256 C   0  0  0  1  0  0  0  0  0  0  0  0
    2.0363    0.7233    0.1482 N   0  0  0  1  0  0  0  0  0  0  0  0
    0.8946    1.4376    0.0881 C   0  0  0  1  0  0  0  0  0  0  0  0
   -0.3453    0.7386    0.0096 C   0  0  0  1  0  0  0  0  0  0  0  0
   -0.2528   -0.6478    0.0020 C   0  0  0  1  0  0  0  0  0  0  0  0
    0.8780   -1.3913    0.0539 N   0  0  0  1  0  0  0  0  0  0  0  0
   -1.7303    0.9921   -0.0538 C   0  0  0  1  0  0  0  0  0  0  0  0
   -2.4281   -0.1192   -0.1029 N   0  0  0  1  0  0  0  0  0  0  0  0
   -1.5125   -1.1342   -0.0681 N   0  0  0  1  0  0  0  0  0  0  0  0
   -1.8397   -2.5099   -0.1011 C   0  0  0  1  0  0  0  0  0  0  0  0
   -2.5116   -3.0860    0.9604 C   0  0  0  1  0  0  0  0  0  0  0  0
   -2.8368   -4.4330    0.9256 C   0  0  0  1  0  0  0  0  0  0  0  0
   -2.4846   -5.2012   -0.1680 C   0  0  0  1  0  0  0  0  0  0  0  0
   -1.8105   -4.6233   -1.2326 C   0  0  0  1  0  0  0  0  0  0  0  0
   -1.4862   -3.2802   -1.1981 C   0  0  0  1  0  0  0  0  0  0  0  0
   -2.8455   -6.4871   -0.0879 O   0  0  0  1  0  0  0  0  0  0  0  0
   -2.3761   -7.4817   -1.0592 C   0  0  0  1  0  0  0  0  0  0  0  0
    3.1257   -1.2628    0.1852 N   0  0  0  1  0  0  0  0  0  0  0  0
    3.2495   -2.7167    0.3264 C   0  0  0  1  0  0  0  0  0  0  0  0
    2.6197   -3.2088    1.6359 C   0  0  0  1  0  0  0  0  0  0  0  0
    3.6422   -2.8618    2.7109 C   0  0  0  1  0  0  0  0  0  0  0  0
    5.0037   -2.9099    2.0076 C   0  0  0  1  0  0  0  0  0  0  0  0
    4.7089   -3.1385    0.5167 C   0  0  0  1  0  0  0  0  0  0  0  0
    5.8270   -4.0318    2.5502 N   0  0  0  1  0  0  0  0  0  0  0  0
    0.9179    2.4772    0.0988 H   0  0  0  1  0  0  0  0  0  0  0  0
   -2.1491    1.9440   -0.0608 H   0  0  0  1  0  0  0  0  0  0  0  0
   -2.7732   -2.5089    1.7850 H   0  0  0  1  0  0  0  0  0  0  0  0
   -3.3461   -4.8657    1.7225 H   0  0  0  1  0  0  0  0  0  0  0  0
   -1.5490   -5.2003   -2.0573 H   0  0  0  1  0  0  0  0  0  0  0  0
   -0.9770   -2.8475   -1.9950 H   0  0  0  1  0  0  0  0  0  0  0  0
   -2.4851   -8.4630   -0.6468 H   0  0  0  1  0  0  0  0  0  0  0  0
   -1.3455   -7.3018   -1.2837 H   0  0  0  1  0  0  0  0  0  0  0  0
   -2.9554   -7.4055   -1.9557 H   0  0  0  1  0  0  0  0  0  0  0  0
    3.9485   -0.7333    0.1308 H   0  0  0  1  0  0  0  0  0  0  0  0
    2.8110   -3.1967   -0.5235 H   0  0  0  1  0  0  0  0  0  0  0  0
    2.4531   -4.2652    1.6007 H   0  0  0  1  0  0  0  0  0  0  0  0
    1.6929   -2.7071    1.8207 H   0  0  0  1  0  0  0  0  0  0  0  0
    3.4571   -1.8830    3.1014 H   0  0  0  1  0  0  0  0  0  0  0  0
    3.6063   -3.5764    3.5063 H   0  0  0  1  0  0  0  0  0  0  0  0
    5.5248   -1.9856    2.1449 H   0  0  0  1  0  0  0  0  0  0  0  0
    5.3548   -2.5386   -0.0897 H   0  0  0  1  0  0  0  0  0  0  0  0
    4.8372   -4.1701    0.2629 H   0  0  0  1  0  0  0  0  0  0  0  0
    6.6037   -4.1776    1.9707 H   0  0  0  1  0  0  0  0  0  0  0  0
    5.2857   -4.8481    2.5822 H   0  0  0  1  0  0  0  0  0  0  0  0
  1  2  4  0  0  0  0
  1  6  4  0  0  0  0
  1 18  1  0  0  0  0
  2  3  4  0  0  0  0
  3  4  4  0  0  0  0
  3 25  1  0  0  0  0
  4  5  4  0  0  0  0
  4  7  4  0  0  0  0
  5  6  4  0  0  0  0
  5  9  4  0  0  0  0
  7  8  4  0  0  0  0
  7 26  1  0  0  0  0
  8  9  4  0  0  0  0
  9 10  1  0  0  0  0
 10 11  4  0  0  0  0
 10 15  4  0  0  0  0
 11 12  4  0  0  0  0
 11 27  1  0  0  0  0
 12 13  4  0  0  0  0
 12 28  1  0  0  0  0
 13 14  4  0  0  0  0
 13 16  1  0  0  0  0
 14 15  4  0  0  0  0
 14 29  1  0  0  0  0
 15 30  1  0  0  0  0
 16 17  1  0  0  0  0
 17 31  1  0  0  0  0
 17 32  1  0  0  0  0
 17 33  1  0  0  0  0
 18 19  1  0  0  0  0
 18 34  1  0  0  0  0
 19 20  1  0  0  0  0
 19 23  1  0  0  0  0
 19 35  1  0  0  0  0
 20 21  1  0  0  0  0
 20 36  1  0  0  0  0
 20 37  1  0  0  0  0
 21 22  1  0  0  0  0
 21 38  1  0  0  0  0
 21 39  1  0  0  0  0
 22 23  1  0  0  0  0
 22 24  1  0  0  0  0
 22 40  1  0  0  0  0
 23 41  1  0  0  0  0
 23 42  1  0  0  0  0
 24 43  1  0  0  0  0
 24 44  1  0  0  0  0
M  END
> <ConfClashScore>
0 

> <ConfOneFourInteractionScore>
-0.985399 

> <ConfScore>
-0.00200546 

> <ConfScorePBest>
0.00259362 

> <ConfTolerance>
0.328257 

$$$$
c22.sdf
 OpenBabel04162418103D

 44 47  0  0  0  0  0  0  0  0999 V2000
    1.9452   -0.6103    0.1256 C   0  0  0  1  0  0  0  0  0  0  0  0
    2.0363    0.7233    0.1481 N   0  0  0  1  0  0  0  0  0  0  0  0
    0.8946    1.4376    0.0881 C   0  0  0  1  0  0  0  0  0  0  0  0
   -0.3452    0.7386    0.0096 C   0  0  0  1  0  0  0  0  0  0  0  0
   -0.2528   -0.6478    0.0020 C   0  0  0  1  0  0  0  0  0  0  0  0
    0.8779   -1.3913    0.0540 N   0  0  0  1  0  0  0  0  0  0  0  0
   -1.7303    0.9921   -0.0538 C   0  0  0  1  0  0  0  0  0  0  0  0
   -2.4281   -0.1191   -0.1029 N   0  0  0  1  0  0  0  0  0  0  0  0
   -1.5125   -1.1341   -0.0681 N   0  0  0  1  0  0  0  0  0  0  0  0
   -1.8396   -2.5098   -0.1010 C   0  0  0  1  0  0  0  0  0  0  0  0
   -2.6617   -3.0010   -1.0977 C   0  0  0  1  0  0  0  0  0  0  0  0
   -2.9778   -4.3501   -1.1330 C   0  0  0  1  0  0  0  0  0  0  0  0
   -2.4756   -5.2033   -0.1686 C   0  0  0  1  0  0  0  0  0  0  0  0
   -1.6511   -4.7106    0.8310 C   0  0  0  1  0  0  0  0  0  0  0  0
   -1.3358   -3.3654    0.8663 C   0  0  0  1  0  0  0  0  0  0  0  0
   -2.7888   -6.5204   -0.2002 O   0  0  0  1  0  0  0  0  0  0  0  0
   -3.4828   -7.0022   -1.3615 C   0  0  0  1  0  0  0  0  0  0  0  0
    3.1213   -1.2605    0.1850 N   0  0  0  1  0  0  0  0  0  0  0  0
    3.3098   -2.7024    0.3397 C   0  0  0  1  0  0  0  0  0  0  0  0
    2.7368   -3.4646   -0.8474 C   0  0  0  1  0  0  0  0  0  0  0  0
    2.4386   -4.8734   -0.3531 C   0  0  0  1  0  0  0  0  0  0  0  0
    2.3816   -4.7818    1.1732 C   0  0  0  1  0  0  0  0  0  0  0  0
    2.4566   -3.2642    1.5378 C   0  0  0  1  0  0  0  0  0  0  0  0
    3.5481   -5.5203    1.7816 N   0  0  0  1  0  0  0  0  0  0  0  0
    0.9179    2.4773    0.0987 H   0  0  0  1  0  0  0  0  0  0  0  0
   -2.1490    1.9441   -0.0609 H   0  0  0  1  0  0  0  0  0  0  0  0
   -3.0429   -2.3583   -1.8210 H   0  0  0  1  0  0  0  0  0  0  0  0
   -3.5931   -4.7203   -1.8853 H   0  0  0  1  0  0  0  0  0  0  0  0
   -1.2699   -5.3532    1.5543 H   0  0  0  1  0  0  0  0  0  0  0  0
   -0.7205   -2.9951    1.6186 H   0  0  0  1  0  0  0  0  0  0  0  0
   -3.8058   -8.0082   -1.1928 H   0  0  0  1  0  0  0  0  0  0  0  0
   -2.8262   -6.9754   -2.2059 H   0  0  0  1  0  0  0  0  0  0  0  0
   -4.3338   -6.3818   -1.5510 H   0  0  0  1  0  0  0  0  0  0  0  0
    3.9319   -0.7139    0.1179 H   0  0  0  1  0  0  0  0  0  0  0  0
    4.3502   -2.9145    0.4714 H   0  0  0  1  0  0  0  0  0  0  0  0
    1.8382   -2.9949   -1.1892 H   0  0  0  1  0  0  0  0  0  0  0  0
    3.4493   -3.4958   -1.6451 H   0  0  0  1  0  0  0  0  0  0  0  0
    3.2140   -5.5456   -0.6564 H   0  0  0  1  0  0  0  0  0  0  0  0
    1.5005   -5.2124   -0.7404 H   0  0  0  1  0  0  0  0  0  0  0  0
    1.4658   -5.2021    1.5333 H   0  0  0  1  0  0  0  0  0  0  0  0
    2.9489   -3.1105    2.4753 H   0  0  0  1  0  0  0  0  0  0  0  0
    1.4837   -2.8200    1.5682 H   0  0  0  1  0  0  0  0  0  0  0  0
    3.5167   -6.4615    1.5108 H   0  0  0  1  0  0  0  0  0  0  0  0
    3.4991   -5.4598    2.7585 H   0  0  0  1  0  0  0  0  0  0  0  0
  1  2  4  0  0  0  0
  1  6  4  0  0  0  0
  1 18  1  0  0  0  0
  2  3  4  0  0  0  0
  3  4  4  0  0  0  0
  3 25  1  0  0  0  0
  4  5  4  0  0  0  0
  4  7  4  0  0  0  0
  5  6  4  0  0  0  0
  5  9  4  0  0  0  0
  7  8  4  0  0  0  0
  7 26  1  0  0  0  0
  8  9  4  0  0  0  0
  9 10  1  0  0  0  0
 10 11  4  0  0  0  0
 10 15  4  0  0  0  0
 11 12  4  0  0  0  0
 11 27  1  0  0  0  0
 12 13  4  0  0  0  0
 12 28  1  0  0  0  0
 13 14  4  0  0  0  0
 13 16  1  0  0  0  0
 14 15  4  0  0  0  0
 14 29  1  0  0  0  0
 15 30  1  0  0  0  0
 16 17  1  0  0  0  0
 17 31  1  0  0  0  0
 17 32  1  0  0  0  0
 17 33  1  0  0  0  0
 18 19  1  0  0  0  0
 18 34  1  0  0  0  0
 19 20  1  0  0  0  0
 19 23  1  0  0  0  0
 19 35  1  0  0  0  0
 20 21  1  0  0  0  0
 20 36  1  0  0  0  0
 20 37  1  0  0  0  0
 21 22  1  0  0  0  0
 21 38  1  0  0  0  0
 21 39  1  0  0  0  0
 22 23  1  0  0  0  0
 22 24  1  0  0  0  0
 22 40  1  0  0  0  0
 23 41  1  0  0  0  0
 23 42  1  0  0  0  0
 24 43  1  0  0  0  0
 24 44  1  0  0  0  0
M  END
> <ConfClashScore>
0 

> <ConfOneFourInteractionScore>
-0.980204 

> <ConfScore>
-0.000674509 

> <ConfScorePBest>
0.00258029 

> <ConfTolerance>
0.253731 

$$$$
c22.sdf
 OpenBabel04162418103D

 44 47  0  0  0  0  0  0  0  0999 V2000
    1.9452   -0.6102    0.1256 C   0  0  0  1  0  0  0  0  0  0  0  0
    2.0363    0.7234    0.1482 N   0  0  0  1  0  0  0  0  0  0  0  0
    0.8946    1.4375    0.0881 C   0  0  0  1  0  0  0  0  0  0  0  0
   -0.3453    0.7386    0.0097 C   0  0  0  1  0  0  0  0  0  0  0  0
   -0.2528   -0.6477    0.0021 C   0  0  0  1  0  0  0  0  0  0  0  0
    0.8780   -1.3912    0.0539 N   0  0  0  1  0  0  0  0  0  0  0  0
   -1.7303    0.9921   -0.0538 C   0  0  0  1  0  0  0  0  0  0  0  0
   -2.4281   -0.1191   -0.1029 N   0  0  0  1  0  0  0  0  0  0  0  0
   -1.5125   -1.1341   -0.0681 N   0  0  0  1  0  0  0  0  0  0  0  0
   -1.9654   -2.4822   -0.1072 C   0  0  0  1  0  0  0  0  0  0  0  0
   -1.1333   -3.4771   -0.5848 C   0  0  0  1  0  0  0  0  0  0  0  0
   -1.5727   -4.7913   -0.6180 C   0  0  0  1  0  0  0  0  0  0  0  0
   -2.8446   -5.1063   -0.1784 C   0  0  0  1  0  0  0  0  0  0  0  0
   -3.6790   -4.1083    0.3008 C   0  0  0  1  0  0  0  0  0  0  0  0
   -3.2411   -2.7979    0.3338 C   0  0  0  1  0  0  0  0  0  0  0  0
   -3.1623   -6.4127   -0.2628 O   0  0  0  1  0  0  0  0  0  0  0  0
   -4.3875   -6.7894    0.4075 C   0  0  0  1  0  0  0  0  0  0  0  0
    3.1257   -1.2628    0.1853 N   0  0  0  1  0  0  0  0  0  0  0  0
    3.2515   -2.7261    0.2252 C   0  0  0  1  0  0  0  0  0  0  0  0
    4.7143   -3.1677    0.0867 C   0  0  0  1  0  0  0  0  0  0  0  0
    5.0214   -3.0269   -1.3989 C   0  0  0  1  0  0  0  0  0  0  0  0
    3.6849   -3.2566   -2.1140 C   0  0  0  1  0  0  0  0  0  0  0  0
    2.6225   -3.3762   -1.0101 C   0  0  0  1  0  0  0  0  0  0  0  0
    3.7375   -4.4959   -2.9081 N   0  0  0  1  0  0  0  0  0  0  0  0
    0.9178    2.4773    0.0988 H   0  0  0  1  0  0  0  0  0  0  0  0
   -2.1490    1.9440   -0.0608 H   0  0  0  1  0  0  0  0  0  0  0  0
   -0.1777   -3.2396   -0.9195 H   0  0  0  1  0  0  0  0  0  0  0  0
   -0.9451   -5.5405   -0.9736 H   0  0  0  1  0  0  0  0  0  0  0  0
   -4.6347   -4.3458    0.6353 H   0  0  0  1  0  0  0  0  0  0  0  0
   -3.8686   -2.0486    0.6894 H   0  0  0  1  0  0  0  0  0  0  0  0
   -4.3199   -7.8074    0.7298 H   0  0  0  1  0  0  0  0  0  0  0  0
   -5.2105   -6.6834   -0.2681 H   0  0  0  1  0  0  0  0  0  0  0  0
   -4.5385   -6.1559    1.2565 H   0  0  0  1  0  0  0  0  0  0  0  0
    3.9472   -0.7288    0.2030 H   0  0  0  1  0  0  0  0  0  0  0  0
    2.8143   -3.0977    1.1284 H   0  0  0  1  0  0  0  0  0  0  0  0
    4.8332   -4.1832    0.4020 H   0  0  0  1  0  0  0  0  0  0  0  0
    5.3553   -2.5365    0.6660 H   0  0  0  1  0  0  0  0  0  0  0  0
    5.7397   -3.7590   -1.7036 H   0  0  0  1  0  0  0  0  0  0  0  0
    5.3968   -2.0478   -1.6124 H   0  0  0  1  0  0  0  0  0  0  0  0
    3.4611   -2.4303   -2.7560 H   0  0  0  1  0  0  0  0  0  0  0  0
    2.3950   -4.4041   -0.8182 H   0  0  0  1  0  0  0  0  0  0  0  0
    1.7290   -2.8594   -1.2919 H   0  0  0  1  0  0  0  0  0  0  0  0
    2.8643   -4.6556   -3.3234 H   0  0  0  1  0  0  0  0  0  0  0  0
    3.9635   -5.2490   -2.3232 H   0  0  0  1  0  0  0  0  0  0  0  0
  1  2  4  0  0  0  0
  1  6  4  0  0  0  0
  1 18  1  0  0  0  0
  2  3  4  0  0  0  0
  3  4  4  0  0  0  0
  3 25  1  0  0  0  0
  4  5  4  0  0  0  0
  4  7  4  0  0  0  0
  5  6  4  0  0  0  0
  5  9  4  0  0  0  0
  7  8  4  0  0  0  0
  7 26  1  0  0  0  0
  8  9  4  0  0  0  0
  9 10  1  0  0  0  0
 10 11  4  0  0  0  0
 10 15  4  0  0  0  0
 11 12  4  0  0  0  0
 11 27  1  0  0  0  0
 12 13  4  0  0  0  0
 12 28  1  0  0  0  0
 13 14  4  0  0  0  0
 13 16  1  0  0  0  0
 14 15  4  0  0  0  0
 14 29  1  0  0  0  0
 15 30  1  0  0  0  0
 16 17  1  0  0  0  0
 17 31  1  0  0  0  0
 17 32  1  0  0  0  0
 17 33  1  0  0  0  0
 18 19  1  0  0  0  0
 18 34  1  0  0  0  0
 19 20  1  0  0  0  0
 19 23  1  0  0  0  0
 19 35  1  0  0  0  0
 20 21  1  0  0  0  0
 20 36  1  0  0  0  0
 20 37  1  0  0  0  0
 21 22  1  0  0  0  0
 21 38  1  0  0  0  0
 21 39  1  0  0  0  0
 22 23  1  0  0  0  0
 22 24  1  0  0  0  0
 22 40  1  0  0  0  0
 23 41  1  0  0  0  0
 23 42  1  0  0  0  0
 24 43  1  0  0  0  0
 24 44  1  0  0  0  0
M  END
> <ConfClashScore>
0 

> <ConfOneFourInteractionScore>
-0.985399 

> <ConfScore>
0.00144646 

> <ConfScorePBest>
0.00256696 

> <ConfTolerance>
0.482463 

$$$$
c22.sdf
 OpenBabel04162418103D

 44 47  0  0  0  0  0  0  0  0999 V2000
    1.9452   -0.6102    0.1256 C   0  0  0  1  0  0  0  0  0  0  0  0
    2.0363    0.7233    0.1483 N   0  0  0  1  0  0  0  0  0  0  0  0
    0.8946    1.4376    0.0881 C   0  0  0  1  0  0  0  0  0  0  0  0
   -0.3453    0.7386    0.0096 C   0  0  0  1  0  0  0  0  0  0  0  0
   -0.2529   -0.6477    0.0020 C   0  0  0  1  0  0  0  0  0  0  0  0
    0.8779   -1.3913    0.0539 N   0  0  0  1  0  0  0  0  0  0  0  0
   -1.7304    0.9921   -0.0538 C   0  0  0  1  0  0  0  0  0  0  0  0
   -2.4282   -0.1192   -0.1029 N   0  0  0  1  0  0  0  0  0  0  0  0
   -1.5125   -1.1341   -0.0681 N   0  0  0  1  0  0  0  0  0  0  0  0
   -1.8412   -2.5164   -0.1013 C   0  0  0  1  0  0  0  0  0  0  0  0
   -0.9246   -3.4333   -0.5800 C   0  0  0  1  0  0  0  0  0  0  0  0
   -1.2431   -4.7821   -0.6074 C   0  0  0  1  0  0  0  0  0  0  0  0
   -2.4793   -5.2095   -0.1609 C   0  0  0  1  0  0  0  0  0  0  0  0
   -3.3986   -4.2898    0.3192 C   0  0  0  1  0  0  0  0  0  0  0  0
   -3.0811   -2.9449    0.3466 C   0  0  0  1  0  0  0  0  0  0  0  0
   -2.6777   -6.5397   -0.2403 O   0  0  0  1  0  0  0  0  0  0  0  0
   -4.0208   -6.9780    0.0706 C   0  0  0  1  0  0  0  0  0  0  0  0
    3.1380   -1.2695    0.1858 N   0  0  0  1  0  0  0  0  0  0  0  0
    4.4076   -0.5544    0.2195 C   0  0  0  1  0  0  0  0  0  0  0  0
    5.5925   -1.5307    0.0889 C   0  0  0  1  0  0  0  0  0  0  0  0
    6.7835   -0.8500    0.7864 C   0  0  0  1  0  0  0  0  0  0  0  0
    6.1917    0.2728    1.6842 C   0  0  0  1  0  0  0  0  0  0  0  0
    4.6351    0.1155    1.6170 C   0  0  0  1  0  0  0  0  0  0  0  0
    6.5916    1.5926    1.1777 N   0  0  0  1  0  0  0  0  0  0  0  0
    0.9178    2.4772    0.0988 H   0  0  0  1  0  0  0  0  0  0  0  0
   -2.1490    1.9441   -0.0609 H   0  0  0  1  0  0  0  0  0  0  0  0
    0.0042   -3.1113   -0.9198 H   0  0  0  1  0  0  0  0  0  0  0  0
   -0.5518   -5.4725   -0.9639 H   0  0  0  1  0  0  0  0  0  0  0  0
   -4.3274   -4.6118    0.6589 H   0  0  0  1  0  0  0  0  0  0  0  0
   -3.7723   -2.2545    0.7030 H   0  0  0  1  0  0  0  0  0  0  0  0
   -4.0807   -7.2379    1.1068 H   0  0  0  1  0  0  0  0  0  0  0  0
   -4.2639   -7.8324   -0.5259 H   0  0  0  1  0  0  0  0  0  0  0  0
   -4.7111   -6.1878   -0.1392 H   0  0  0  1  0  0  0  0  0  0  0  0
    3.1412   -2.2494    0.2070 H   0  0  0  1  0  0  0  0  0  0  0  0
    4.4268    0.1763   -0.5620 H   0  0  0  1  0  0  0  0  0  0  0  0
    5.3630   -2.4597    0.5679 H   0  0  0  1  0  0  0  0  0  0  0  0
    5.8171   -1.7066   -0.9424 H   0  0  0  1  0  0  0  0  0  0  0  0
    7.3147   -1.5598    1.3855 H   0  0  0  1  0  0  0  0  0  0  0  0
    7.4459   -0.4299    0.0589 H   0  0  0  1  0  0  0  0  0  0  0  0
    6.5322    0.1590    2.6923 H   0  0  0  1  0  0  0  0  0  0  0  0
    4.1501    1.0677    1.6703 H   0  0  0  1  0  0  0  0  0  0  0  0
    4.2779   -0.5121    2.4066 H   0  0  0  1  0  0  0  0  0  0  0  0
    6.3972    1.6476    0.2188 H   0  0  0  1  0  0  0  0  0  0  0  0
    7.5521    1.7210    1.3239 H   0  0  0  1  0  0  0  0  0  0  0  0
  1  2  4  0  0  0  0
  1  6  4  0  0  0  0
  1 18  1  0  0  0  0
  2  3  4  0  0  0  0
  3  4  4  0  0  0  0
  3 25  1  0  0  0  0
  4  5  4  0  0  0  0
  4  7  4  0  0  0  0
  5  6  4  0  0  0  0
  5  9  4  0  0  0  0
  7  8  4  0  0  0  0
  7 26  1  0  0  0  0
  8  9  4  0  0  0  0
  9 10  1  0  0  0  0
 10 11  4  0  0  0  0
 10 15  4  0  0  0  0
 11 12  4  0  0  0  0
 11 27  1  0  0  0  0
 12 13  4  0  0  0  0
 12 28  1  0  0  0  0
 13 14  4  0  0  0  0
 13 16  1  0  0  0  0
 14 15  4  0  0  0  0
 14 29  1  0  0  0  0
 15 30  1  0  0  0  0
 16 17  1  0  0  0  0
 17 31  1  0  0  0  0
 17 32  1  0  0  0  0
 17 33  1  0  0  0  0
 18 19  1  0  0  0  0
 18 34  1  0  0  0  0
 19 20  1  0  0  0  0
 19 23  1  0  0  0  0
 19 35  1  0  0  0  0
 20 21  1  0  0  0  0
 20 36  1  0  0  0  0
 20 37  1  0  0  0  0
 21 22  1  0  0  0  0
 21 38  1  0  0  0  0
 21 39  1  0  0  0  0
 22 23  1  0  0  0  0
 22 24  1  0  0  0  0
 22 40  1  0  0  0  0
 23 41  1  0  0  0  0
 23 42  1  0  0  0  0
 24 43  1  0  0  0  0
 24 44  1  0  0  0  0
M  END
> <ConfClashScore>
0 

> <ConfOneFourInteractionScore>
-0.984337 

> <ConfScore>
0.00162694 

> <ConfScorePBest>
0.00255363 

> <ConfTolerance>
0.406776 

$$$$
c22.sdf
 OpenBabel04162418103D

 44 47  0  0  0  0  0  0  0  0999 V2000
    1.9453   -0.6102    0.1256 C   0  0  0  1  0  0  0  0  0  0  0  0
    2.0363    0.7233    0.1481 N   0  0  0  1  0  0  0  0  0  0  0  0
    0.8946    1.4376    0.0881 C   0  0  0  1  0  0  0  0  0  0  0  0
   -0.3452    0.7385    0.0096 C   0  0  0  1  0  0  0  0  0  0  0  0
   -0.2528   -0.6478    0.0020 C   0  0  0  1  0  0  0  0  0  0  0  0
    0.8779   -1.3913    0.0539 N   0  0  0  1  0  0  0  0  0  0  0  0
   -1.7303    0.9921   -0.0538 C   0  0  0  1  0  0  0  0  0  0  0  0
   -2.4281   -0.1192   -0.1029 N   0  0  0  1  0  0  0  0  0  0  0  0
   -1.5125   -1.1342   -0.0681 N   0  0  0  1  0  0  0  0  0  0  0  0
   -1.8419   -2.5192   -0.1012 C   0  0  0  1  0  0  0  0  0  0  0  0
   -2.9688   -2.9774    0.5548 C   0  0  0  1  0  0  0  0  0  0  0  0
   -3.2922   -4.3248    0.5180 C   0  0  0  1  0  0  0  0  0  0  0  0
   -2.4850   -5.2109   -0.1702 C   0  0  0  1  0  0  0  0  0  0  0  0
   -1.3548   -4.7512   -0.8282 C   0  0  0  1  0  0  0  0  0  0  0  0
   -1.0321   -3.4077   -0.7916 C   0  0  0  1  0  0  0  0  0  0  0  0
   -2.7982   -6.5280   -0.2018 O   0  0  0  1  0  0  0  0  0  0  0  0
   -3.9873   -6.9366    0.4923 C   0  0  0  1  0  0  0  0  0  0  0  0
    3.1403   -1.2710    0.1859 N   0  0  0  1  0  0  0  0  0  0  0  0
    4.4113   -0.5574    0.1765 C   0  0  0  1  0  0  0  0  0  0  0  0
    5.6157   -1.5404    0.3615 C   0  0  0  1  0  0  0  0  0  0  0  0
    5.6195   -1.7919    1.8807 C   0  0  0  1  0  0  0  0  0  0  0  0
    5.0242   -0.5122    2.5645 C   0  0  0  1  0  0  0  0  0  0  0  0
    4.5468    0.3534    1.4029 C   0  0  0  1  0  0  0  0  0  0  0  0
    6.0674    0.1957    3.3534 N   0  0  0  1  0  0  0  0  0  0  0  0
    0.9179    2.4772    0.0987 H   0  0  0  1  0  0  0  0  0  0  0  0
   -2.1490    1.9441   -0.0609 H   0  0  0  1  0  0  0  0  0  0  0  0
   -3.5740   -2.3114    1.0760 H   0  0  0  1  0  0  0  0  0  0  0  0
   -4.1423   -4.6690    1.0083 H   0  0  0  1  0  0  0  0  0  0  0  0
   -0.7496   -5.4173   -1.3494 H   0  0  0  1  0  0  0  0  0  0  0  0
   -0.1820   -3.0635   -1.2818 H   0  0  0  1  0  0  0  0  0  0  0  0
   -3.7542   -7.1259    1.5193 H   0  0  0  1  0  0  0  0  0  0  0  0
   -4.3729   -7.8284    0.0442 H   0  0  0  1  0  0  0  0  0  0  0  0
   -4.7207   -6.1599    0.4306 H   0  0  0  1  0  0  0  0  0  0  0  0
    3.1427   -2.2497    0.2367 H   0  0  0  1  0  0  0  0  0  0  0  0
    4.5014   -0.0002   -0.7326 H   0  0  0  1  0  0  0  0  0  0  0  0
    5.4574   -2.4499   -0.1794 H   0  0  0  1  0  0  0  0  0  0  0  0
    6.5328   -1.0905    0.0431 H   0  0  0  1  0  0  0  0  0  0  0  0
    6.6199   -1.9582    2.2221 H   0  0  0  1  0  0  0  0  0  0  0  0
    5.0167   -2.6451    2.1123 H   0  0  0  1  0  0  0  0  0  0  0  0
    4.2066   -0.7708    3.2044 H   0  0  0  1  0  0  0  0  0  0  0  0
    3.5996    0.7918    1.6389 H   0  0  0  1  0  0  0  0  0  0  0  0
    5.2594    1.1272    1.2066 H   0  0  0  1  0  0  0  0  0  0  0  0
    6.8451    0.3717    2.7837 H   0  0  0  1  0  0  0  0  0  0  0  0
    6.3379   -0.3627    4.1119 H   0  0  0  1  0  0  0  0  0  0  0  0
  1  2  4  0  0  0  0
  1  6  4  0  0  0  0
  1 18  1  0  0  0  0
  2  3  4  0  0  0  0
  3  4  4  0  0  0  0
  3 25  1  0  0  0  0
  4  5  4  0  0  0  0
  4  7  4  0  0  0  0
  5  6  4  0  0  0  0
  5  9  4  0  0  0  0
  7  8  4  0  0  0  0
  7 26  1  0  0  0  0
  8  9  4  0  0  0  0
  9 10  1  0  0  0  0
 10 11  4  0  0  0  0
 10 15  4  0  0  0  0
 11 12  4  0  0  0  0
 11 27  1  0  0  0  0
 12 13  4  0  0  0  0
 12 28  1  0  0  0  0
 13 14  4  0  0  0  0
 13 16  1  0  0  0  0
 14 15  4  0  0  0  0
 14 29  1  0  0  0  0
 15 30  1  0  0  0  0
 16 17  1  0  0  0  0
 17 31  1  0  0  0  0
 17 32  1  0  0  0  0
 17 33  1  0  0  0  0
 18 19  1  0  0  0  0
 18 34  1  0  0  0  0
 19 20  1  0  0  0  0
 19 23  1  0  0  0  0
 19 35  1  0  0  0  0
 20 21  1  0  0  0  0
 20 36  1  0  0  0  0
 20 37  1  0  0  0  0
 21 22  1  0  0  0  0
 21 38  1  0  0  0  0
 21 39  1  0  0  0  0
 22 23  1  0  0  0  0
 22 24  1  0  0  0  0
 22 40  1  0  0  0  0
 23 41  1  0  0  0  0
 23 42  1  0  0  0  0
 24 43  1  0  0  0  0
 24 44  1  0  0  0  0
M  END
> <ConfClashScore>
0 

> <ConfOneFourInteractionScore>
-0.981848 

> <ConfScore>
0.00162694 

> <ConfScorePBest>
0.00254031 

> <ConfTolerance>
0.409079 

$$$$
c22.sdf
 OpenBabel04162418103D

 44 47  0  0  0  0  0  0  0  0999 V2000
    1.9451   -0.6102    0.1255 C   0  0  0  1  0  0  0  0  0  0  0  0
    2.0363    0.7232    0.1481 N   0  0  0  1  0  0  0  0  0  0  0  0
    0.8946    1.4376    0.0881 C   0  0  0  1  0  0  0  0  0  0  0  0
   -0.3453    0.7386    0.0096 C   0  0  0  1  0  0  0  0  0  0  0  0
   -0.2529   -0.6478    0.0020 C   0  0  0  1  0  0  0  0  0  0  0  0
    0.8779   -1.3913    0.0538 N   0  0  0  1  0  0  0  0  0  0  0  0
   -1.7303    0.9921   -0.0538 C   0  0  0  1  0  0  0  0  0  0  0  0
   -2.4281   -0.1191   -0.1028 N   0  0  0  1  0  0  0  0  0  0  0  0
   -1.5125   -1.1341   -0.0681 N   0  0  0  1  0  0  0  0  0  0  0  0
   -1.8421   -2.5201   -0.1013 C   0  0  0  1  0  0  0  0  0  0  0  0
   -1.6518   -3.2435   -1.2635 C   0  0  0  1  0  0  0  0  0  0  0  0
   -1.8778   -4.6111   -1.2732 C   0  0  0  1  0  0  0  0  0  0  0  0
   -2.2985   -5.2503   -0.1223 C   0  0  0  1  0  0  0  0  0  0  0  0
   -2.4893   -4.5246    1.0432 C   0  0  0  1  0  0  0  0  0  0  0  0
   -2.2640   -3.1610    1.0531 C   0  0  0  1  0  0  0  0  0  0  0  0
   -2.4914   -6.5843   -0.2539 O   0  0  0  1  0  0  0  0  0  0  0  0
   -2.8480   -7.3157    0.9294 C   0  0  0  1  0  0  0  0  0  0  0  0
    3.1213   -1.2605    0.1848 N   0  0  0  1  0  0  0  0  0  0  0  0
    4.4010   -0.6098    0.4844 C   0  0  0  1  0  0  0  0  0  0  0  0
    4.7308    0.4386   -0.5818 C   0  0  0  1  0  0  0  0  0  0  0  0
    5.6125   -0.3039   -1.5917 C   0  0  0  1  0  0  0  0  0  0  0  0
    6.4908   -1.1477   -0.6829 C   0  0  0  1  0  0  0  0  0  0  0  0
    5.5473   -1.6282    0.4250 C   0  0  0  1  0  0  0  0  0  0  0  0
    7.6008   -0.3278   -0.1118 N   0  0  0  1  0  0  0  0  0  0  0  0
    0.9179    2.4772    0.0988 H   0  0  0  1  0  0  0  0  0  0  0  0
   -2.1490    1.9441   -0.0607 H   0  0  0  1  0  0  0  0  0  0  0  0
   -1.3391   -2.7619   -2.1306 H   0  0  0  1  0  0  0  0  0  0  0  0
   -1.7307   -5.1562   -2.1467 H   0  0  0  1  0  0  0  0  0  0  0  0
   -2.8021   -5.0061    1.9103 H   0  0  0  1  0  0  0  0  0  0  0  0
   -2.4111   -2.6159    1.9265 H   0  0  0  1  0  0  0  0  0  0  0  0
   -3.7204   -6.8797    1.3695 H   0  0  0  1  0  0  0  0  0  0  0  0
   -2.0392   -7.2781    1.6289 H   0  0  0  1  0  0  0  0  0  0  0  0
   -3.0502   -8.3343    0.6715 H   0  0  0  1  0  0  0  0  0  0  0  0
    3.1231   -2.2262    0.0180 H   0  0  0  1  0  0  0  0  0  0  0  0
    4.3532   -0.1565    1.4524 H   0  0  0  1  0  0  0  0  0  0  0  0
    5.2611    1.2620   -0.1508 H   0  0  0  1  0  0  0  0  0  0  0  0
    3.8373    0.7951   -1.0504 H   0  0  0  1  0  0  0  0  0  0  0  0
    6.1968    0.3784   -2.1731 H   0  0  0  1  0  0  0  0  0  0  0  0
    5.0256   -0.9167   -2.2436 H   0  0  0  1  0  0  0  0  0  0  0  0
    6.8999   -1.9792   -1.2180 H   0  0  0  1  0  0  0  0  0  0  0  0
    5.1672   -2.6008    0.1920 H   0  0  0  1  0  0  0  0  0  0  0  0
    6.0627   -1.6611    1.3621 H   0  0  0  1  0  0  0  0  0  0  0  0
    8.1133    0.0814   -0.8400 H   0  0  0  1  0  0  0  0  0  0  0  0
    8.1906   -0.9018    0.4200 H   0  0  0  1  0  0  0  0  0  0  0  0
  1  2  4  0  0  0  0
  1  6  4  0  0  0  0
  1 18  1  0  0  0  0
  2  3  4  0  0  0  0
  3  4  4  0  0  0  0
  3 25  1  0  0  0  0
  4  5  4  0  0  0  0
  4  7  4  0  0  0  0
  5  6  4  0  0  0  0
  5  9  4  0  0  0  0
  7  8  4  0  0  0  0
  7 26  1  0  0  0  0
  8  9  4  0  0  0  0
  9 10  1  0  0  0  0
 10 11  4  0  0  0  0
 10 15  4  0  0  0  0
 11 12  4  0  0  0  0
 11 27  1  0  0  0  0
 12 13  4  0  0  0  0
 12 28  1  0  0  0  0
 13 14  4  0  0  0  0
 13 16  1  0  0  0  0
 14 15  4  0  0  0  0
 14 29  1  0  0  0  0
 15 30  1  0  0  0  0
 16 17  1  0  0  0  0
 17 31  1  0  0  0  0
 17 32  1  0  0  0  0
 17 33  1  0  0  0  0
 18 19  1  0  0  0  0
 18 34  1  0  0  0  0
 19 20  1  0  0  0  0
 19 23  1  0  0  0  0
 19 35  1  0  0  0  0
 20 21  1  0  0  0  0
 20 36  1  0  0  0  0
 20 37  1  0  0  0  0
 21 22  1  0  0  0  0
 21 38  1  0  0  0  0
 21 39  1  0  0  0  0
 22 23  1  0  0  0  0
 22 24  1  0  0  0  0
 22 40  1  0  0  0  0
 23 41  1  0  0  0  0
 23 42  1  0  0  0  0
 24 43  1  0  0  0  0
 24 44  1  0  0  0  0
M  END
> <ConfClashScore>
0 

> <ConfOneFourInteractionScore>
-0.981848 

> <ConfScore>
0.00205953 

> <ConfScorePBest>
0.00252698 

> <ConfTolerance>
0.46737 

$$$$
c22.sdf
 OpenBabel04162418103D

 44 47  0  0  0  0  0  0  0  0999 V2000
    1.9453   -0.6102    0.1254 C   0  0  0  1  0  0  0  0  0  0  0  0
    2.0363    0.7234    0.1480 N   0  0  0  1  0  0  0  0  0  0  0  0
    0.8946    1.4376    0.0881 C   0  0  0  1  0  0  0  0  0  0  0  0
   -0.3453    0.7386    0.0096 C   0  0  0  1  0  0  0  0  0  0  0  0
   -0.2528   -0.6478    0.0020 C   0  0  0  1  0  0  0  0  0  0  0  0
    0.8780   -1.3912    0.0538 N   0  0  0  1  0  0  0  0  0  0  0  0
   -1.7303    0.9921   -0.0538 C   0  0  0  1  0  0  0  0  0  0  0  0
   -2.4281   -0.1192   -0.1028 N   0  0  0  1  0  0  0  0  0  0  0  0
   -1.5126   -1.1342   -0.0681 N   0  0  0  1  0  0  0  0  0  0  0  0
   -1.8418   -2.5193   -0.1014 C   0  0  0  1  0  0  0  0  0  0  0  0
   -1.5132   -3.3334    0.9661 C   0  0  0  1  0  0  0  0  0  0  0  0
   -1.8385   -4.6806    0.9359 C   0  0  0  1  0  0  0  0  0  0  0  0
   -2.4868   -5.2107   -0.1636 C   0  0  0  1  0  0  0  0  0  0  0  0
   -2.8163   -4.3940   -1.2341 C   0  0  0  1  0  0  0  0  0  0  0  0
   -2.4920   -3.0508   -1.2043 C   0  0  0  1  0  0  0  0  0  0  0  0
   -2.8670   -6.4970   -0.3494 O   0  0  0  1  0  0  0  0  0  0  0  0
   -2.5810   -7.4251    0.7087 C   0  0  0  1  0  0  0  0  0  0  0  0
    3.1214   -1.2604    0.1847 N   0  0  0  1  0  0  0  0  0  0  0  0
    4.4265   -0.5914    0.1799 C   0  0  0  1  0  0  0  0  0  0  0  0
    5.5674   -1.5851    0.4349 C   0  0  0  1  0  0  0  0  0  0  0  0
    5.5298   -1.8396    1.9366 C   0  0  0  1  0  0  0  0  0  0  0  0
    4.9775   -0.5495    2.5540 C   0  0  0  1  0  0  0  0  0  0  0  0
    4.5764    0.3525    1.3761 C   0  0  0  1  0  0  0  0  0  0  0  0
    6.0269    0.1183    3.3838 N   0  0  0  1  0  0  0  0  0  0  0  0
    0.9179    2.4772    0.0987 H   0  0  0  1  0  0  0  0  0  0  0  0
   -2.1490    1.9441   -0.0607 H   0  0  0  1  0  0  0  0  0  0  0  0
   -1.0218   -2.9355    1.7917 H   0  0  0  1  0  0  0  0  0  0  0  0
   -1.5949   -5.2924    1.7408 H   0  0  0  1  0  0  0  0  0  0  0  0
   -3.3077   -4.7919   -2.0598 H   0  0  0  1  0  0  0  0  0  0  0  0
   -2.7356   -2.4389   -2.0091 H   0  0  0  1  0  0  0  0  0  0  0  0
   -2.7873   -6.9653    1.6526 H   0  0  0  1  0  0  0  0  0  0  0  0
   -1.5496   -7.7063    0.6670 H   0  0  0  1  0  0  0  0  0  0  0  0
   -3.1934   -8.2952    0.5948 H   0  0  0  1  0  0  0  0  0  0  0  0
    3.1052   -2.2390    0.2340 H   0  0  0  1  0  0  0  0  0  0  0  0
    4.5588   -0.0729   -0.7467 H   0  0  0  1  0  0  0  0  0  0  0  0
    5.4040   -2.4938   -0.1060 H   0  0  0  1  0  0  0  0  0  0  0  0
    6.5072   -1.1622    0.1473 H   0  0  0  1  0  0  0  0  0  0  0  0
    6.5133   -2.0405    2.3069 H   0  0  0  1  0  0  0  0  0  0  0  0
    4.8882   -2.6661    2.1603 H   0  0  0  1  0  0  0  0  0  0  0  0
    4.1245   -0.7654    3.1628 H   0  0  0  1  0  0  0  0  0  0  0  0
    3.6502    0.8476    1.5814 H   0  0  0  1  0  0  0  0  0  0  0  0
    5.3365    1.0812    1.1859 H   0  0  0  1  0  0  0  0  0  0  0  0
    6.8163    0.2970    2.8312 H   0  0  0  1  0  0  0  0  0  0  0  0
    6.2759   -0.4678    4.1288 H   0  0  0  1  0  0  0  0  0  0  0  0
  1  2  4  0  0  0  0
  1  6  4  0  0  0  0
  1 18  1  0  0  0  0
  2  3  4  0  0  0  0
  3  4  4  0  0  0  0
  3 25  1  0  0  0  0
  4  5  4  0  0  0  0
  4  7  4  0  0  0  0
  5  6  4  0  0  0  0
  5  9  4  0  0  0  0
  7  8  4  0  0  0  0
  7 26  1  0  0  0  0
  8  9  4  0  0  0  0
  9 10  1  0  0  0  0
 10 11  4  0  0  0  0
 10 15  4  0  0  0  0
 11 12  4  0  0  0  0
 11 27  1  0  0  0  0
 12 13  4  0  0  0  0
 12 28  1  0  0  0  0
 13 14  4  0  0  0  0
 13 16  1  0  0  0  0
 14 15  4  0  0  0  0
 14 29  1  0  0  0  0
 15 30  1  0  0  0  0
 16 17  1  0  0  0  0
 17 31  1  0  0  0  0
 17 32  1  0  0  0  0
 17 33  1  0  0  0  0
 18 19  1  0  0  0  0
 18 34  1  0  0  0  0
 19 20  1  0  0  0  0
 19 23  1  0  0  0  0
 19 35  1  0  0  0  0
 20 21  1  0  0  0  0
 20 36  1  0  0  0  0
 20 37  1  0  0  0  0
 21 22  1  0  0  0  0
 21 38  1  0  0  0  0
 21 39  1  0  0  0  0
 22 23  1  0  0  0  0
 22 24  1  0  0  0  0
 22 40  1  0  0  0  0
 23 41  1  0  0  0  0
 23 42  1  0  0  0  0
 24 43  1  0  0  0  0
 24 44  1  0  0  0  0
M  END
> <ConfClashScore>
0 

> <ConfOneFourInteractionScore>
-0.985399 

> <ConfScore>
0.00256262 

> <ConfScorePBest>
0.00251365 

> <ConfTolerance>
0.271927 

$$$$
c22.sdf
 OpenBabel04162418103D

 44 47  0  0  0  0  0  0  0  0999 V2000
    1.9453   -0.6102    0.1255 C   0  0  0  1  0  0  0  0  0  0  0  0
    2.0363    0.7233    0.1481 N   0  0  0  1  0  0  0  0  0  0  0  0
    0.8946    1.4376    0.0881 C   0  0  0  1  0  0  0  0  0  0  0  0
   -0.3452    0.7386    0.0096 C   0  0  0  1  0  0  0  0  0  0  0  0
   -0.2528   -0.6478    0.0020 C   0  0  0  1  0  0  0  0  0  0  0  0
    0.8779   -1.3912    0.0538 N   0  0  0  1  0  0  0  0  0  0  0  0
   -1.7303    0.9921   -0.0538 C   0  0  0  1  0  0  0  0  0  0  0  0
   -2.4281   -0.1191   -0.1029 N   0  0  0  1  0  0  0  0  0  0  0  0
   -1.5125   -1.1342   -0.0681 N   0  0  0  1  0  0  0  0  0  0  0  0
   -1.8385   -2.5051   -0.1010 C   0  0  0  1  0  0  0  0  0  0  0  0
   -0.9772   -3.4820    0.3613 C   0  0  0  1  0  0  0  0  0  0  0  0
   -1.3508   -4.8159    0.3102 C   0  0  0  1  0  0  0  0  0  0  0  0
   -2.5824   -5.1694   -0.2081 C   0  0  0  1  0  0  0  0  0  0  0  0
   -3.4462   -4.1894   -0.6718 C   0  0  0  1  0  0  0  0  0  0  0  0
   -3.0738   -2.8594   -0.6208 C   0  0  0  1  0  0  0  0  0  0  0  0
   -2.9452   -6.4730   -0.2628 O   0  0  0  1  0  0  0  0  0  0  0  0
   -4.1845   -6.7822   -0.9192 C   0  0  0  1  0  0  0  0  0  0  0  0
    3.1646   -1.2844    0.1870 N   0  0  0  1  0  0  0  0  0  0  0  0
    4.3474   -0.4149    0.2623 C   0  0  0  1  0  0  0  0  0  0  0  0
    4.8477   -0.0754   -1.1465 C   0  0  0  1  0  0  0  0  0  0  0  0
    6.2103   -0.7467   -1.2643 C   0  0  0  1  0  0  0  0  0  0  0  0
    6.7568   -0.7718    0.1691 C   0  0  0  1  0  0  0  0  0  0  0  0
    5.5027   -1.1472    0.9631 C   0  0  0  1  0  0  0  0  0  0  0  0
    7.2774    0.5545    0.5737 N   0  0  0  1  0  0  0  0  0  0  0  0
    0.9179    2.4772    0.0987 H   0  0  0  1  0  0  0  0  0  0  0  0
   -2.1489    1.9441   -0.0608 H   0  0  0  1  0  0  0  0  0  0  0  0
   -0.0488   -3.2165    0.7476 H   0  0  0  1  0  0  0  0  0  0  0  0
   -0.7044   -5.5508    0.6619 H   0  0  0  1  0  0  0  0  0  0  0  0
   -4.3746   -4.4550   -1.0580 H   0  0  0  1  0  0  0  0  0  0  0  0
   -3.7202   -2.1245   -0.9724 H   0  0  0  1  0  0  0  0  0  0  0  0
   -4.1379   -7.7722   -1.3223 H   0  0  0  1  0  0  0  0  0  0  0  0
   -4.3527   -6.0825   -1.7111 H   0  0  0  1  0  0  0  0  0  0  0  0
   -4.9865   -6.7221   -0.2133 H   0  0  0  1  0  0  0  0  0  0  0  0
    3.2280   -2.2623    0.1805 H   0  0  0  1  0  0  0  0  0  0  0  0
    4.0994    0.4803    0.7935 H   0  0  0  1  0  0  0  0  0  0  0  0
    4.9407    0.9839   -1.2656 H   0  0  0  1  0  0  0  0  0  0  0  0
    4.1759   -0.4601   -1.8851 H   0  0  0  1  0  0  0  0  0  0  0  0
    6.1094   -1.7408   -1.6469 H   0  0  0  1  0  0  0  0  0  0  0  0
    6.8554   -0.1815   -1.9040 H   0  0  0  1  0  0  0  0  0  0  0  0
    7.5261   -1.5070    0.2819 H   0  0  0  1  0  0  0  0  0  0  0  0
    5.3459   -2.2054    0.9383 H   0  0  0  1  0  0  0  0  0  0  0  0
    5.5910   -0.8229    1.9790 H   0  0  0  1  0  0  0  0  0  0  0  0
    7.5371    0.5297    1.5184 H   0  0  0  1  0  0  0  0  0  0  0  0
    6.5811    1.2318    0.4444 H   0  0  0  1  0  0  0  0  0  0  0  0
  1  2  4  0  0  0  0
  1  6  4  0  0  0  0
  1 18  1  0  0  0  0
  2  3  4  0  0  0  0
  3  4  4  0  0  0  0
  3 25  1  0  0  0  0
  4  5  4  0  0  0  0
  4  7  4  0  0  0  0
  5  6  4  0  0  0  0
  5  9  4  0  0  0  0
  7  8  4  0  0  0  0
  7 26  1  0  0  0  0
  8  9  4  0  0  0  0
  9 10  1  0  0  0  0
 10 11  4  0  0  0  0
 10 15  4  0  0  0  0
 11 12  4  0  0  0  0
 11 27  1  0  0  0  0
 12 13  4  0  0  0  0
 12 28  1  0  0  0  0
 13 14  4  0  0  0  0
 13 16  1  0  0  0  0
 14 15  4  0  0  0  0
 14 29  1  0  0  0  0
 15 30  1  0  0  0  0
 16 17  1  0  0  0  0
 17 31  1  0  0  0  0
 17 32  1  0  0  0  0
 17 33  1  0  0  0  0
 18 19  1  0  0  0  0
 18 34  1  0  0  0  0
 19 20  1  0  0  0  0
 19 23  1  0  0  0  0
 19 35  1  0  0  0  0
 20 21  1  0  0  0  0
 20 36  1  0  0  0  0
 20 37  1  0  0  0  0
 21 22  1  0  0  0  0
 21 38  1  0  0  0  0
 21 39  1  0  0  0  0
 22 23  1  0  0  0  0
 22 24  1  0  0  0  0
 22 40  1  0  0  0  0
 23 41  1  0  0  0  0
 23 42  1  0  0  0  0
 24 43  1  0  0  0  0
 24 44  1  0  0  0  0
M  END
> <ConfClashScore>
0 

> <ConfOneFourInteractionScore>
-0.984337 

> <ConfScore>
0.00345477 

> <ConfScorePBest>
0.00250032 

> <ConfTolerance>
0.375965 

$$$$
c22.sdf
 OpenBabel04162418103D

 44 47  0  0  0  0  0  0  0  0999 V2000
    1.9452   -0.6102    0.1255 C   0  0  0  1  0  0  0  0  0  0  0  0
    2.0363    0.7233    0.1482 N   0  0  0  1  0  0  0  0  0  0  0  0
    0.8945    1.4376    0.0881 C   0  0  0  1  0  0  0  0  0  0  0  0
   -0.3453    0.7386    0.0096 C   0  0  0  1  0  0  0  0  0  0  0  0
   -0.2528   -0.6478    0.0020 C   0  0  0  1  0  0  0  0  0  0  0  0
    0.8779   -1.3912    0.0538 N   0  0  0  1  0  0  0  0  0  0  0  0
   -1.7303    0.9921   -0.0538 C   0  0  0  1  0  0  0  0  0  0  0  0
   -2.4281   -0.1192   -0.1028 N   0  0  0  1  0  0  0  0  0  0  0  0
   -1.5125   -1.1341   -0.0681 N   0  0  0  1  0  0  0  0  0  0  0  0
   -1.8397   -2.5099   -0.1011 C   0  0  0  1  0  0  0  0  0  0  0  0
   -3.0101   -2.9559    0.4830 C   0  0  0  1  0  0  0  0  0  0  0  0
   -3.3333   -4.3034    0.4459 C   0  0  0  1  0  0  0  0  0  0  0  0
   -2.4825   -5.2015   -0.1704 C   0  0  0  1  0  0  0  0  0  0  0  0
   -1.3086   -4.7540   -0.7563 C   0  0  0  1  0  0  0  0  0  0  0  0
   -0.9863   -3.4105   -0.7193 C   0  0  0  1  0  0  0  0  0  0  0  0
   -2.9000   -6.4895   -0.1392 O   0  0  0  1  0  0  0  0  0  0  0  0
   -2.0987   -7.4561   -0.8365 C   0  0  0  1  0  0  0  0  0  0  0  0
    3.1213   -1.2605    0.1848 N   0  0  0  1  0  0  0  0  0  0  0  0
    3.3099   -2.7075    0.2986 C   0  0  0  1  0  0  0  0  0  0  0  0
    2.7382   -3.4354   -0.9103 C   0  0  0  1  0  0  0  0  0  0  0  0
    2.4396   -4.8579   -0.4569 C   0  0  0  1  0  0  0  0  0  0  0  0
    2.3811   -4.8099    1.0714 C   0  0  0  1  0  0  0  0  0  0  0  0
    2.4556   -3.3034    1.4794 C   0  0  0  1  0  0  0  0  0  0  0  0
    3.5255   -5.5514    1.6487 N   0  0  0  1  0  0  0  0  0  0  0  0
    0.9179    2.4773    0.0988 H   0  0  0  1  0  0  0  0  0  0  0  0
   -2.1490    1.9441   -0.0607 H   0  0  0  1  0  0  0  0  0  0  0  0
   -3.6483   -2.2808    0.9504 H   0  0  0  1  0  0  0  0  0  0  0  0
   -4.2159   -4.6386    0.8820 H   0  0  0  1  0  0  0  0  0  0  0  0
   -0.6704   -5.4292   -1.2236 H   0  0  0  1  0  0  0  0  0  0  0  0
   -0.1036   -3.0752   -1.1554 H   0  0  0  1  0  0  0  0  0  0  0  0
   -1.0731   -7.3402   -0.5545 H   0  0  0  1  0  0  0  0  0  0  0  0
   -2.1974   -7.3062   -1.8914 H   0  0  0  1  0  0  0  0  0  0  0  0
   -2.4289   -8.4419   -0.5833 H   0  0  0  1  0  0  0  0  0  0  0  0
    3.9320   -0.7109    0.1483 H   0  0  0  1  0  0  0  0  0  0  0  0
    4.3503   -2.9233    0.4251 H   0  0  0  1  0  0  0  0  0  0  0  0
    3.4512   -3.4438   -1.7080 H   0  0  0  1  0  0  0  0  0  0  0  0
    1.8398   -2.9562   -1.2395 H   0  0  0  1  0  0  0  0  0  0  0  0
    1.5018   -5.1856   -0.8545 H   0  0  0  1  0  0  0  0  0  0  0  0
    3.2153   -5.5211   -0.7784 H   0  0  0  1  0  0  0  0  0  0  0  0
    1.4651   -5.2404    1.4185 H   0  0  0  1  0  0  0  0  0  0  0  0
    1.4826   -2.8602    1.5215 H   0  0  0  1  0  0  0  0  0  0  0  0
    2.9471   -3.1764    2.4213 H   0  0  0  1  0  0  0  0  0  0  0  0
    3.3832   -6.5141    1.5334 H   0  0  0  1  0  0  0  0  0  0  0  0
    3.6004   -5.3444    2.6036 H   0  0  0  1  0  0  0  0  0  0  0  0
  1  2  4  0  0  0  0
  1  6  4  0  0  0  0
  1 18  1  0  0  0  0
  2  3  4  0  0  0  0
  3  4  4  0  0  0  0
  3 25  1  0  0  0  0
  4  5  4  0  0  0  0
  4  7  4  0  0  0  0
  5  6  4  0  0  0  0
  5  9  4  0  0  0  0
  7  8  4  0  0  0  0
  7 26  1  0  0  0  0
  8  9  4  0  0  0  0
  9 10  1  0  0  0  0
 10 11  4  0  0  0  0
 10 15  4  0  0  0  0
 11 12  4  0  0  0  0
 11 27  1  0  0  0  0
 12 13  4  0  0  0  0
 12 28  1  0  0  0  0
 13 14  4  0  0  0  0
 13 16  1  0  0  0  0
 14 15  4  0  0  0  0
 14 29  1  0  0  0  0
 15 30  1  0  0  0  0
 16 17  1  0  0  0  0
 17 31  1  0  0  0  0
 17 32  1  0  0  0  0
 17 33  1  0  0  0  0
 18 19  1  0  0  0  0
 18 34  1  0  0  0  0
 19 20  1  0  0  0  0
 19 23  1  0  0  0  0
 19 35  1  0  0  0  0
 20 21  1  0  0  0  0
 20 36  1  0  0  0  0
 20 37  1  0  0  0  0
 21 22  1  0  0  0  0
 21 38  1  0  0  0  0
 21 39  1  0  0  0  0
 22 23  1  0  0  0  0
 22 24  1  0  0  0  0
 22 40  1  0  0  0  0
 23 41  1  0  0  0  0
 23 42  1  0  0  0  0
 24 43  1  0  0  0  0
 24 44  1  0  0  0  0
M  END
> <ConfClashScore>
0 

> <ConfOneFourInteractionScore>
-0.980204 

> <ConfScore>
0.00398258 

> <ConfScorePBest>
0.00248699 

> <ConfTolerance>
0.331057 

$$$$
c22.sdf
 OpenBabel04162418103D

 44 47  0  0  0  0  0  0  0  0999 V2000
    1.9452   -0.6103    0.1256 C   0  0  0  1  0  0  0  0  0  0  0  0
    2.0363    0.7233    0.1482 N   0  0  0  1  0  0  0  0  0  0  0  0
    0.8946    1.4376    0.0881 C   0  0  0  1  0  0  0  0  0  0  0  0
   -0.3452    0.7386    0.0096 C   0  0  0  1  0  0  0  0  0  0  0  0
   -0.2529   -0.6478    0.0021 C   0  0  0  1  0  0  0  0  0  0  0  0
    0.8780   -1.3913    0.0539 N   0  0  0  1  0  0  0  0  0  0  0  0
   -1.7303    0.9921   -0.0538 C   0  0  0  1  0  0  0  0  0  0  0  0
   -2.4281   -0.1191   -0.1028 N   0  0  0  1  0  0  0  0  0  0  0  0
   -1.5126   -1.1342   -0.0681 N   0  0  0  1  0  0  0  0  0  0  0  0
   -1.8397   -2.5098   -0.1011 C   0  0  0  1  0  0  0  0  0  0  0  0
   -3.0721   -2.9382    0.3549 C   0  0  0  1  0  0  0  0  0  0  0  0
   -3.3946   -4.2857    0.3176 C   0  0  0  1  0  0  0  0  0  0  0  0
   -2.4820   -5.2017   -0.1707 C   0  0  0  1  0  0  0  0  0  0  0  0
   -1.2460   -4.7720   -0.6280 C   0  0  0  1  0  0  0  0  0  0  0  0
   -0.9242   -3.4283   -0.5909 C   0  0  0  1  0  0  0  0  0  0  0  0
   -2.9058   -6.4878   -0.1528 O   0  0  0  1  0  0  0  0  0  0  0  0
   -1.9480   -7.4993   -0.5016 C   0  0  0  1  0  0  0  0  0  0  0  0
    3.1148   -1.2569    0.1846 N   0  0  0  1  0  0  0  0  0  0  0  0
    4.4376   -0.6487    0.2544 C   0  0  0  1  0  0  0  0  0  0  0  0
    4.5901    0.1431    1.5583 C   0  0  0  1  0  0  0  0  0  0  0  0
    4.7061    1.6019    1.1339 C   0  0  0  1  0  0  0  0  0  0  0  0
    5.3512    1.5523   -0.2572 C   0  0  0  1  0  0  0  0  0  0  0  0
    4.6187    0.3645   -0.8869 C   0  0  0  1  0  0  0  0  0  0  0  0
    6.8213    1.3032   -0.1691 N   0  0  0  1  0  0  0  0  0  0  0  0
    0.9179    2.4772    0.0988 H   0  0  0  1  0  0  0  0  0  0  0  0
   -2.1490    1.9441   -0.0608 H   0  0  0  1  0  0  0  0  0  0  0  0
   -3.7573   -2.2495    0.7261 H   0  0  0  1  0  0  0  0  0  0  0  0
   -4.3235   -4.6076    0.6570 H   0  0  0  1  0  0  0  0  0  0  0  0
   -0.5608   -5.4607   -0.9992 H   0  0  0  1  0  0  0  0  0  0  0  0
    0.0047   -3.1064   -0.9303 H   0  0  0  1  0  0  0  0  0  0  0  0
   -1.6416   -7.3658   -1.5180 H   0  0  0  1  0  0  0  0  0  0  0  0
   -2.3927   -8.4658   -0.3873 H   0  0  0  1  0  0  0  0  0  0  0  0
   -1.0960   -7.4200    0.1408 H   0  0  0  1  0  0  0  0  0  0  0  0
    3.0785   -2.2362    0.1806 H   0  0  0  1  0  0  0  0  0  0  0  0
    5.1852   -1.4120    0.1945 H   0  0  0  1  0  0  0  0  0  0  0  0
    5.4704   -0.1652    2.0827 H   0  0  0  1  0  0  0  0  0  0  0  0
    3.7337    0.0023    2.1841 H   0  0  0  1  0  0  0  0  0  0  0  0
    3.7397    2.0586    1.0854 H   0  0  0  1  0  0  0  0  0  0  0  0
    5.3243    2.1456    1.8173 H   0  0  0  1  0  0  0  0  0  0  0  0
    5.1743    2.4553   -0.8031 H   0  0  0  1  0  0  0  0  0  0  0  0
    5.2026   -0.0604   -1.6765 H   0  0  0  1  0  0  0  0  0  0  0  0
    3.6681    0.6709   -1.2707 H   0  0  0  1  0  0  0  0  0  0  0  0
    7.2362    1.9898    0.3938 H   0  0  0  1  0  0  0  0  0  0  0  0
    7.2125    1.3366   -1.0669 H   0  0  0  1  0  0  0  0  0  0  0  0
  1  2  4  0  0  0  0
  1  6  4  0  0  0  0
  1 18  1  0  0  0  0
  2  3  4  0  0  0  0
  3  4  4  0  0  0  0
  3 25  1  0  0  0  0
  4  5  4  0  0  0  0
  4  7  4  0  0  0  0
  5  6  4  0  0  0  0
  5  9  4  0  0  0  0
  7  8  4  0  0  0  0
  7 26  1  0  0  0  0
  8  9  4  0  0  0  0
  9 10  1  0  0  0  0
 10 11  4  0  0  0  0
 10 15  4  0  0  0  0
 11 12  4  0  0  0  0
 11 27  1  0  0  0  0
 12 13  4  0  0  0  0
 12 28  1  0  0  0  0
 13 14  4  0  0  0  0
 13 16  1  0  0  0  0
 14 15  4  0  0  0  0
 14 29  1  0  0  0  0
 15 30  1  0  0  0  0
 16 17  1  0  0  0  0
 17 31  1  0  0  0  0
 17 32  1  0  0  0  0
 17 33  1  0  0  0  0
 18 19  1  0  0  0  0
 18 34  1  0  0  0  0
 19 20  1  0  0  0  0
 19 23  1  0  0  0  0
 19 35  1  0  0  0  0
 20 21  1  0  0  0  0
 20 36  1  0  0  0  0
 20 37  1  0  0  0  0
 21 22  1  0  0  0  0
 21 38  1  0  0  0  0
 21 39  1  0  0  0  0
 22 23  1  0  0  0  0
 22 24  1  0  0  0  0
 22 40  1  0  0  0  0
 23 41  1  0  0  0  0
 23 42  1  0  0  0  0
 24 43  1  0  0  0  0
 24 44  1  0  0  0  0
M  END
> <ConfClashScore>
0 

> <ConfOneFourInteractionScore>
-0.980204 

> <ConfScore>
0.00398258 

> <ConfScorePBest>
0.00247367 

> <ConfTolerance>
0.266995 

$$$$
c22.sdf
 OpenBabel04162418103D

 44 47  0  0  0  0  0  0  0  0999 V2000
    1.9452   -0.6103    0.1256 C   0  0  0  1  0  0  0  0  0  0  0  0
    2.0363    0.7233    0.1482 N   0  0  0  1  0  0  0  0  0  0  0  0
    0.8946    1.4376    0.0881 C   0  0  0  1  0  0  0  0  0  0  0  0
   -0.3452    0.7386    0.0096 C   0  0  0  1  0  0  0  0  0  0  0  0
   -0.2528   -0.6478    0.0020 C   0  0  0  1  0  0  0  0  0  0  0  0
    0.8779   -1.3913    0.0539 N   0  0  0  1  0  0  0  0  0  0  0  0
   -1.7303    0.9921   -0.0538 C   0  0  0  1  0  0  0  0  0  0  0  0
   -2.4282   -0.1191   -0.1029 N   0  0  0  1  0  0  0  0  0  0  0  0
   -1.5126   -1.1342   -0.0681 N   0  0  0  1  0  0  0  0  0  0  0  0
   -1.8419   -2.5192   -0.1013 C   0  0  0  1  0  0  0  0  0  0  0  0
   -0.9244   -3.4364   -0.5783 C   0  0  0  1  0  0  0  0  0  0  0  0
   -1.2431   -4.7851   -0.6056 C   0  0  0  1  0  0  0  0  0  0  0  0
   -2.4801   -5.2123   -0.1610 C   0  0  0  1  0  0  0  0  0  0  0  0
   -3.4002   -4.2923    0.3173 C   0  0  0  1  0  0  0  0  0  0  0  0
   -3.0825   -2.9475    0.3446 C   0  0  0  1  0  0  0  0  0  0  0  0
   -2.8875   -6.4975   -0.2883 O   0  0  0  1  0  0  0  0  0  0  0  0
   -1.9511   -7.4301   -0.8504 C   0  0  0  1  0  0  0  0  0  0  0  0
    3.1213   -1.2604    0.1849 N   0  0  0  1  0  0  0  0  0  0  0  0
    3.2542   -2.7173    0.1032 C   0  0  0  1  0  0  0  0  0  0  0  0
    4.7093   -3.1079   -0.1242 C   0  0  0  1  0  0  0  0  0  0  0  0
    4.6411   -4.3988   -0.9505 C   0  0  0  1  0  0  0  0  0  0  0  0
    3.5107   -4.0704   -1.9295 C   0  0  0  1  0  0  0  0  0  0  0  0
    2.4933   -3.2578   -1.1131 C   0  0  0  1  0  0  0  0  0  0  0  0
    2.8823   -5.3302   -2.4488 N   0  0  0  1  0  0  0  0  0  0  0  0
    0.9179    2.4773    0.0989 H   0  0  0  1  0  0  0  0  0  0  0  0
   -2.1490    1.9441   -0.0608 H   0  0  0  1  0  0  0  0  0  0  0  0
    0.0048   -3.1145   -0.9165 H   0  0  0  1  0  0  0  0  0  0  0  0
   -0.5512   -5.4757   -0.9606 H   0  0  0  1  0  0  0  0  0  0  0  0
   -4.3294   -4.6142    0.6556 H   0  0  0  1  0  0  0  0  0  0  0  0
   -3.7743   -2.2569    0.6997 H   0  0  0  1  0  0  0  0  0  0  0  0
   -1.3924   -6.9511   -1.6271 H   0  0  0  1  0  0  0  0  0  0  0  0
   -2.4810   -8.2663   -1.2564 H   0  0  0  1  0  0  0  0  0  0  0  0
   -1.2823   -7.7678   -0.0865 H   0  0  0  1  0  0  0  0  0  0  0  0
    3.9376   -0.7282    0.2891 H   0  0  0  1  0  0  0  0  0  0  0  0
    2.8839   -3.1609    1.0038 H   0  0  0  1  0  0  0  0  0  0  0  0
    5.2032   -3.2828    0.8087 H   0  0  0  1  0  0  0  0  0  0  0  0
    5.2257   -2.3416   -0.6636 H   0  0  0  1  0  0  0  0  0  0  0  0
    4.3967   -5.2423   -0.3392 H   0  0  0  1  0  0  0  0  0  0  0  0
    5.5616   -4.5842   -1.4635 H   0  0  0  1  0  0  0  0  0  0  0  0
    3.8812   -3.4917   -2.7498 H   0  0  0  1  0  0  0  0  0  0  0  0
    1.6862   -3.8851   -0.7968 H   0  0  0  1  0  0  0  0  0  0  0  0
    2.1088   -2.4494   -1.6992 H   0  0  0  1  0  0  0  0  0  0  0  0
    3.5574   -5.8631   -2.9185 H   0  0  0  1  0  0  0  0  0  0  0  0
    2.1576   -5.1023   -3.0679 H   0  0  0  1  0  0  0  0  0  0  0  0
  1  2  4  0  0  0  0
  1  6  4  0  0  0  0
  1 18  1  0  0  0  0
  2  3  4  0  0  0  0
  3  4  4  0  0  0  0
  3 25  1  0  0  0  0
  4  5  4  0  0  0  0
  4  7  4  0  0  0  0
  5  6  4  0  0  0  0
  5  9  4  0  0  0  0
  7  8  4  0  0  0  0
  7 26  1  0  0  0  0
  8  9  4  0  0  0  0
  9 10  1  0  0  0  0
 10 11  4  0  0  0  0
 10 15  4  0  0  0  0
 11 12  4  0  0  0  0
 11 27  1  0  0  0  0
 12 13  4  0  0  0  0
 12 28  1  0  0  0  0
 13 14  4  0  0  0  0
 13 16  1  0  0  0  0
 14 15  4  0  0  0  0
 14 29  1  0  0  0  0
 15 30  1  0  0  0  0
 16 17  1  0  0  0  0
 17 31  1  0  0  0  0
 17 32  1  0  0  0  0
 17 33  1  0  0  0  0
 18 19  1  0  0  0  0
 18 34  1  0  0  0  0
 19 20  1  0  0  0  0
 19 23  1  0  0  0  0
 19 35  1  0  0  0  0
 20 21  1  0  0  0  0
 20 36  1  0  0  0  0
 20 37  1  0  0  0  0
 21 22  1  0  0  0  0
 21 38  1  0  0  0  0
 21 39  1  0  0  0  0
 22 23  1  0  0  0  0
 22 24  1  0  0  0  0
 22 40  1  0  0  0  0
 23 41  1  0  0  0  0
 23 42  1  0  0  0  0
 24 43  1  0  0  0  0
 24 44  1  0  0  0  0
M  END
> <ConfClashScore>
0 

> <ConfOneFourInteractionScore>
-0.985399 

> <ConfScore>
0.00409834 

> <ConfScorePBest>
0.00246034 

> <ConfTolerance>
0.32949 

$$$$
c22.sdf
 OpenBabel04162418103D

 44 47  0  0  0  0  0  0  0  0999 V2000
    1.9452   -0.6101    0.1256 C   0  0  0  1  0  0  0  0  0  0  0  0
    2.0363    0.7234    0.1482 N   0  0  0  1  0  0  0  0  0  0  0  0
    0.8946    1.4376    0.0881 C   0  0  0  1  0  0  0  0  0  0  0  0
   -0.3452    0.7386    0.0096 C   0  0  0  1  0  0  0  0  0  0  0  0
   -0.2528   -0.6477    0.0020 C   0  0  0  1  0  0  0  0  0  0  0  0
    0.8780   -1.3913    0.0539 N   0  0  0  1  0  0  0  0  0  0  0  0
   -1.7303    0.9921   -0.0538 C   0  0  0  1  0  0  0  0  0  0  0  0
   -2.4281   -0.1191   -0.1028 N   0  0  0  1  0  0  0  0  0  0  0  0
   -1.5125   -1.1342   -0.0681 N   0  0  0  1  0  0  0  0  0  0  0  0
   -1.8384   -2.5051   -0.1010 C   0  0  0  1  0  0  0  0  0  0  0  0
   -3.0770   -2.8807    0.3838 C   0  0  0  1  0  0  0  0  0  0  0  0
   -3.4508   -4.2154    0.3701 C   0  0  0  1  0  0  0  0  0  0  0  0
   -2.5831   -5.1713   -0.1233 C   0  0  0  1  0  0  0  0  0  0  0  0
   -1.3408   -4.7944   -0.6096 C   0  0  0  1  0  0  0  0  0  0  0  0
   -0.9679   -3.4636   -0.5960 C   0  0  0  1  0  0  0  0  0  0  0  0
   -2.9462   -6.4759   -0.1319 O   0  0  0  1  0  0  0  0  0  0  0  0
   -2.0371   -7.4062   -0.7405 C   0  0  0  1  0  0  0  0  0  0  0  0
    3.1148   -1.2567    0.1845 N   0  0  0  1  0  0  0  0  0  0  0  0
    3.3032   -2.7003    0.2572 C   0  0  0  1  0  0  0  0  0  0  0  0
    4.7730   -3.0575    0.0065 C   0  0  0  1  0  0  0  0  0  0  0  0
    4.7838   -3.8225   -1.3110 C   0  0  0  1  0  0  0  0  0  0  0  0
    3.4127   -4.5079   -1.3744 C   0  0  0  1  0  0  0  0  0  0  0  0
    2.4971   -3.3989   -0.8492 C   0  0  0  1  0  0  0  0  0  0  0  0
    3.3649   -5.7220   -0.4939 N   0  0  0  1  0  0  0  0  0  0  0  0
    0.9178    2.4773    0.0988 H   0  0  0  1  0  0  0  0  0  0  0  0
   -2.1490    1.9441   -0.0608 H   0  0  0  1  0  0  0  0  0  0  0  0
   -3.7285   -2.1620    0.7589 H   0  0  0  1  0  0  0  0  0  0  0  0
   -4.3844   -4.4977    0.7313 H   0  0  0  1  0  0  0  0  0  0  0  0
   -0.6894   -5.5130   -0.9847 H   0  0  0  1  0  0  0  0  0  0  0  0
   -0.0343   -3.1813   -0.9571 H   0  0  0  1  0  0  0  0  0  0  0  0
   -2.5854   -8.2377   -1.1314 H   0  0  0  1  0  0  0  0  0  0  0  0
   -1.3383   -7.7527   -0.0081 H   0  0  0  1  0  0  0  0  0  0  0  0
   -1.5102   -6.9213   -1.5356 H   0  0  0  1  0  0  0  0  0  0  0  0
    3.9250   -0.7054    0.1783 H   0  0  0  1  0  0  0  0  0  0  0  0
    2.9951   -3.0528    1.2193 H   0  0  0  1  0  0  0  0  0  0  0  0
    5.1496   -3.6705    0.7985 H   0  0  0  1  0  0  0  0  0  0  0  0
    5.3658   -2.1700   -0.0711 H   0  0  0  1  0  0  0  0  0  0  0  0
    4.9089   -3.1521   -2.1356 H   0  0  0  1  0  0  0  0  0  0  0  0
    5.5695   -4.5489   -1.3190 H   0  0  0  1  0  0  0  0  0  0  0  0
    3.1588   -4.7833   -2.3766 H   0  0  0  1  0  0  0  0  0  0  0  0
    1.5952   -3.8145   -0.4505 H   0  0  0  1  0  0  0  0  0  0  0  0
    2.2573   -2.7089   -1.6311 H   0  0  0  1  0  0  0  0  0  0  0  0
    3.9479   -6.4176   -0.8639 H   0  0  0  1  0  0  0  0  0  0  0  0
    2.4449   -6.0569   -0.4493 H   0  0  0  1  0  0  0  0  0  0  0  0
  1  2  4  0  0  0  0
  1  6  4  0  0  0  0
  1 18  1  0  0  0  0
  2  3  4  0  0  0  0
  3  4  4  0  0  0  0
  3 25  1  0  0  0  0
  4  5  4  0  0  0  0
  4  7  4  0  0  0  0
  5  6  4  0  0  0  0
  5  9  4  0  0  0  0
  7  8  4  0  0  0  0
  7 26  1  0  0  0  0
  8  9  4  0  0  0  0
  9 10  1  0  0  0  0
 10 11  4  0  0  0  0
 10 15  4  0  0  0  0
 11 12  4  0  0  0  0
 11 27  1  0  0  0  0
 12 13  4  0  0  0  0
 12 28  1  0  0  0  0
 13 14  4  0  0  0  0
 13 16  1  0  0  0  0
 14 15  4  0  0  0  0
 14 29  1  0  0  0  0
 15 30  1  0  0  0  0
 16 17  1  0  0  0  0
 17 31  1  0  0  0  0
 17 32  1  0  0  0  0
 17 33  1  0  0  0  0
 18 19  1  0  0  0  0
 18 34  1  0  0  0  0
 19 20  1  0  0  0  0
 19 23  1  0  0  0  0
 19 35  1  0  0  0  0
 20 21  1  0  0  0  0
 20 36  1  0  0  0  0
 20 37  1  0  0  0  0
 21 22  1  0  0  0  0
 21 38  1  0  0  0  0
 21 39  1  0  0  0  0
 22 23  1  0  0  0  0
 22 24  1  0  0  0  0
 22 40  1  0  0  0  0
 23 41  1  0  0  0  0
 23 42  1  0  0  0  0
 24 43  1  0  0  0  0
 24 44  1  0  0  0  0
M  END
> <ConfClashScore>
0 

> <ConfOneFourInteractionScore>
-0.985399 

> <ConfScore>
0.00409834 

> <ConfScorePBest>
0.00244701 

> <ConfTolerance>
0.334081 

$$$$
c22.sdf
 OpenBabel04162418103D

 44 47  0  0  0  0  0  0  0  0999 V2000
    1.9453   -0.6102    0.1255 C   0  0  0  1  0  0  0  0  0  0  0  0
    2.0363    0.7233    0.1481 N   0  0  0  1  0  0  0  0  0  0  0  0
    0.8946    1.4375    0.0881 C   0  0  0  1  0  0  0  0  0  0  0  0
   -0.3452    0.7386    0.0096 C   0  0  0  1  0  0  0  0  0  0  0  0
   -0.2528   -0.6478    0.0020 C   0  0  0  1  0  0  0  0  0  0  0  0
    0.8780   -1.3913    0.0538 N   0  0  0  1  0  0  0  0  0  0  0  0
   -1.7303    0.9921   -0.0538 C   0  0  0  1  0  0  0  0  0  0  0  0
   -2.4281   -0.1191   -0.1028 N   0  0  0  1  0  0  0  0  0  0  0  0
   -1.5125   -1.1341   -0.0681 N   0  0  0  1  0  0  0  0  0  0  0  0
   -1.8385   -2.5051   -0.1010 C   0  0  0  1  0  0  0  0  0  0  0  0
   -3.0202   -2.9977    0.4197 C   0  0  0  1  0  0  0  0  0  0  0  0
   -3.2928   -4.3553    0.3558 C   0  0  0  1  0  0  0  0  0  0  0  0
   -2.3806   -5.2170   -0.2235 C   0  0  0  1  0  0  0  0  0  0  0  0
   -1.1954   -4.7228   -0.7456 C   0  0  0  1  0  0  0  0  0  0  0  0
   -0.9235   -3.3693   -0.6821 C   0  0  0  1  0  0  0  0  0  0  0  0
   -2.5343   -6.5576   -0.3382 O   0  0  0  1  0  0  0  0  0  0  0  0
   -3.6928   -7.1405    0.2787 C   0  0  0  1  0  0  0  0  0  0  0  0
    3.1163   -1.2576    0.1846 N   0  0  0  1  0  0  0  0  0  0  0  0
    4.4712   -0.7008    0.2529 C   0  0  0  1  0  0  0  0  0  0  0  0
    4.6838    0.0565    1.5520 C   0  0  0  1  0  0  0  0  0  0  0  0
    5.7621    1.0935    1.2493 C   0  0  0  1  0  0  0  0  0  0  0  0
    5.3930    1.5552   -0.1734 C   0  0  0  1  0  0  0  0  0  0  0  0
    4.6778    0.3800   -0.8211 C   0  0  0  1  0  0  0  0  0  0  0  0
    6.6246    1.9010   -0.9426 N   0  0  0  1  0  0  0  0  0  0  0  0
    0.9178    2.4772    0.0988 H   0  0  0  1  0  0  0  0  0  0  0  0
   -2.1490    1.9441   -0.0607 H   0  0  0  1  0  0  0  0  0  0  0  0
   -3.7048   -2.3499    0.8591 H   0  0  0  1  0  0  0  0  0  0  0  0
   -4.1839   -4.7255    0.7440 H   0  0  0  1  0  0  0  0  0  0  0  0
   -0.5108   -5.3707   -1.1852 H   0  0  0  1  0  0  0  0  0  0  0  0
   -0.0325   -2.9990   -1.0703 H   0  0  0  1  0  0  0  0  0  0  0  0
   -3.5914   -7.0958    1.3429 H   0  0  0  1  0  0  0  0  0  0  0  0
   -3.7842   -8.1616   -0.0280 H   0  0  0  1  0  0  0  0  0  0  0  0
   -4.5659   -6.5986   -0.0193 H   0  0  0  1  0  0  0  0  0  0  0  0
    3.0600   -2.2360    0.1817 H   0  0  0  1  0  0  0  0  0  0  0  0
    5.1871   -1.4889    0.1467 H   0  0  0  1  0  0  0  0  0  0  0  0
    3.7778    0.5376    1.8566 H   0  0  0  1  0  0  0  0  0  0  0  0
    5.0115   -0.6090    2.3231 H   0  0  0  1  0  0  0  0  0  0  0  0
    5.7206    1.9075    1.9425 H   0  0  0  1  0  0  0  0  0  0  0  0
    6.7376    0.6543    1.2720 H   0  0  0  1  0  0  0  0  0  0  0  0
    4.7468    2.4070   -0.1322 H   0  0  0  1  0  0  0  0  0  0  0  0
    5.2724   -0.0113   -1.6200 H   0  0  0  1  0  0  0  0  0  0  0  0
    3.7303    0.6976   -1.2034 H   0  0  0  1  0  0  0  0  0  0  0  0
    7.2965    1.1987   -0.8173 H   0  0  0  1  0  0  0  0  0  0  0  0
    6.9814    2.7552   -0.6208 H   0  0  0  1  0  0  0  0  0  0  0  0
  1  2  4  0  0  0  0
  1  6  4  0  0  0  0
  1 18  1  0  0  0  0
  2  3  4  0  0  0  0
  3  4  4  0  0  0  0
  3 25  1  0  0  0  0
  4  5  4  0  0  0  0
  4  7  4  0  0  0  0
  5  6  4  0  0  0  0
  5  9  4  0  0  0  0
  7  8  4  0  0  0  0
  7 26  1  0  0  0  0
  8  9  4  0  0  0  0
  9 10  1  0  0  0  0
 10 11  4  0  0  0  0
 10 15  4  0  0  0  0
 11 12  4  0  0  0  0
 11 27  1  0  0  0  0
 12 13  4  0  0  0  0
 12 28  1  0  0  0  0
 13 14  4  0  0  0  0
 13 16  1  0  0  0  0
 14 15  4  0  0  0  0
 14 29  1  0  0  0  0
 15 30  1  0  0  0  0
 16 17  1  0  0  0  0
 17 31  1  0  0  0  0
 17 32  1  0  0  0  0
 17 33  1  0  0  0  0
 18 19  1  0  0  0  0
 18 34  1  0  0  0  0
 19 20  1  0  0  0  0
 19 23  1  0  0  0  0
 19 35  1  0  0  0  0
 20 21  1  0  0  0  0
 20 36  1  0  0  0  0
 20 37  1  0  0  0  0
 21 22  1  0  0  0  0
 21 38  1  0  0  0  0
 21 39  1  0  0  0  0
 22 23  1  0  0  0  0
 22 24  1  0  0  0  0
 22 40  1  0  0  0  0
 23 41  1  0  0  0  0
 23 42  1  0  0  0  0
 24 43  1  0  0  0  0
 24 44  1  0  0  0  0
M  END
> <ConfClashScore>
0 

> <ConfOneFourInteractionScore>
-0.982693 

> <ConfScore>
0.00433317 

> <ConfScorePBest>
0.00243368 

> <ConfTolerance>
0.291398 

$$$$
c22.sdf
 OpenBabel04162418103D

 44 47  0  0  0  0  0  0  0  0999 V2000
    1.9452   -0.6102    0.1255 C   0  0  0  1  0  0  0  0  0  0  0  0
    2.0362    0.7233    0.1481 N   0  0  0  1  0  0  0  0  0  0  0  0
    0.8946    1.4376    0.0881 C   0  0  0  1  0  0  0  0  0  0  0  0
   -0.3453    0.7386    0.0096 C   0  0  0  1  0  0  0  0  0  0  0  0
   -0.2529   -0.6477    0.0020 C   0  0  0  1  0  0  0  0  0  0  0  0
    0.8779   -1.3912    0.0539 N   0  0  0  1  0  0  0  0  0  0  0  0
   -1.7303    0.9921   -0.0538 C   0  0  0  1  0  0  0  0  0  0  0  0
   -2.4282   -0.1191   -0.1028 N   0  0  0  1  0  0  0  0  0  0  0  0
   -1.5125   -1.1341   -0.0681 N   0  0  0  1  0  0  0  0  0  0  0  0
   -1.8397   -2.5099   -0.1012 C   0  0  0  1  0  0  0  0  0  0  0  0
   -1.3168   -3.4170    0.8011 C   0  0  0  1  0  0  0  0  0  0  0  0
   -1.6756   -4.7537    0.7265 C   0  0  0  1  0  0  0  0  0  0  0  0
   -2.5521   -5.1806   -0.2533 C   0  0  0  1  0  0  0  0  0  0  0  0
   -3.0764   -4.2707   -1.1581 C   0  0  0  1  0  0  0  0  0  0  0  0
   -2.7188   -2.9377   -1.0838 C   0  0  0  1  0  0  0  0  0  0  0  0
   -2.8985   -6.4875   -0.3293 O   0  0  0  1  0  0  0  0  0  0  0  0
   -2.4781   -7.3414    0.7462 C   0  0  0  1  0  0  0  0  0  0  0  0
    3.1257   -1.2628    0.1850 N   0  0  0  1  0  0  0  0  0  0  0  0
    3.2539   -2.7230    0.1686 C   0  0  0  1  0  0  0  0  0  0  0  0
    2.6479   -3.3001   -1.1178 C   0  0  0  1  0  0  0  0  0  0  0  0
    1.5273   -4.2477   -0.6766 C   0  0  0  1  0  0  0  0  0  0  0  0
    1.9094   -4.6574    0.7363 C   0  0  0  1  0  0  0  0  0  0  0  0
    2.4485   -3.3439    1.3133 C   0  0  0  1  0  0  0  0  0  0  0  0
    2.9617   -5.7196    0.7282 N   0  0  0  1  0  0  0  0  0  0  0  0
    0.9178    2.4773    0.0988 H   0  0  0  1  0  0  0  0  0  0  0  0
   -2.1490    1.9441   -0.0608 H   0  0  0  1  0  0  0  0  0  0  0  0
   -0.6541   -3.0965    1.5358 H   0  0  0  1  0  0  0  0  0  0  0  0
   -1.2853   -5.4356    1.4078 H   0  0  0  1  0  0  0  0  0  0  0  0
   -3.7391   -4.5911   -1.8928 H   0  0  0  1  0  0  0  0  0  0  0  0
   -3.1090   -2.2558   -1.7652 H   0  0  0  1  0  0  0  0  0  0  0  0
   -2.8060   -8.3422    0.5568 H   0  0  0  1  0  0  0  0  0  0  0  0
   -2.9043   -6.9945    1.6643 H   0  0  0  1  0  0  0  0  0  0  0  0
   -1.4107   -7.3239    0.8188 H   0  0  0  1  0  0  0  0  0  0  0  0
    3.9453   -0.7287    0.2427 H   0  0  0  1  0  0  0  0  0  0  0  0
    4.2864   -2.9918    0.2489 H   0  0  0  1  0  0  0  0  0  0  0  0
    2.2506   -2.5140   -1.7254 H   0  0  0  1  0  0  0  0  0  0  0  0
    3.3913   -3.8367   -1.6693 H   0  0  0  1  0  0  0  0  0  0  0  0
    0.5829   -3.7447   -0.6820 H   0  0  0  1  0  0  0  0  0  0  0  0
    1.4805   -5.1025   -1.3184 H   0  0  0  1  0  0  0  0  0  0  0  0
    1.0578   -5.0024    1.2847 H   0  0  0  1  0  0  0  0  0  0  0  0
    1.6443   -2.6999    1.6024 H   0  0  0  1  0  0  0  0  0  0  0  0
    3.0768   -3.5323    2.1586 H   0  0  0  1  0  0  0  0  0  0  0  0
    3.7397   -5.4054    0.2219 H   0  0  0  1  0  0  0  0  0  0  0  0
    2.6044   -6.5298    0.3081 H   0  0  0  1  0  0  0  0  0  0  0  0
  1  2  4  0  0  0  0
  1  6  4  0  0  0  0
  1 18  1  0  0  0  0
  2  3  4  0  0  0  0
  3  4  4  0  0  0  0
  3 25  1  0  0  0  0
  4  5  4  0  0  0  0
  4  7  4  0  0  0  0
  5  6  4  0  0  0  0
  5  9  4  0  0  0  0
  7  8  4  0  0  0  0
  7 26  1  0  0  0  0
  8  9  4  0  0  0  0
  9 10  1  0  0  0  0
 10 11  4  0  0  0  0
 10 15  4  0  0  0  0
 11 12  4  0  0  0  0
 11 27  1  0  0  0  0
 12 13  4  0  0  0  0
 12 28  1  0  0  0  0
 13 14  4  0  0  0  0
 13 16  1  0  0  0  0
 14 15  4  0  0  0  0
 14 29  1  0  0  0  0
 15 30  1  0  0  0  0
 16 17  1  0  0  0  0
 17 31  1  0  0  0  0
 17 32  1  0  0  0  0
 17 33  1  0  0  0  0
 18 19  1  0  0  0  0
 18 34  1  0  0  0  0
 19 20  1  0  0  0  0
 19 23  1  0  0  0  0
 19 35  1  0  0  0  0
 20 21  1  0  0  0  0
 20 36  1  0  0  0  0
 20 37  1  0  0  0  0
 21 22  1  0  0  0  0
 21 38  1  0  0  0  0
 21 39  1  0  0  0  0
 22 23  1  0  0  0  0
 22 24  1  0  0  0  0
 22 40  1  0  0  0  0
 23 41  1  0  0  0  0
 23 42  1  0  0  0  0
 24 43  1  0  0  0  0
 24 44  1  0  0  0  0
M  END
> <ConfClashScore>
0 

> <ConfOneFourInteractionScore>
-0.980204 

> <ConfScore>
0.00526884 

> <ConfScorePBest>
0.00242035 

> <ConfTolerance>
0.272599 

$$$$
c22.sdf
 OpenBabel04162418103D

 44 47  0  0  0  0  0  0  0  0999 V2000
    1.9452   -0.6102    0.1257 C   0  0  0  1  0  0  0  0  0  0  0  0
    2.0364    0.7233    0.1482 N   0  0  0  1  0  0  0  0  0  0  0  0
    0.8946    1.4376    0.0881 C   0  0  0  1  0  0  0  0  0  0  0  0
   -0.3453    0.7387    0.0096 C   0  0  0  1  0  0  0  0  0  0  0  0
   -0.2528   -0.6478    0.0020 C   0  0  0  1  0  0  0  0  0  0  0  0
    0.8780   -1.3912    0.0539 N   0  0  0  1  0  0  0  0  0  0  0  0
   -1.7303    0.9921   -0.0538 C   0  0  0  1  0  0  0  0  0  0  0  0
   -2.4281   -0.1192   -0.1028 N   0  0  0  1  0  0  0  0  0  0  0  0
   -1.5125   -1.1342   -0.0681 N   0  0  0  1  0  0  0  0  0  0  0  0
   -1.8385   -2.5052   -0.1009 C   0  0  0  1  0  0  0  0  0  0  0  0
   -2.9566   -2.9846   -0.7567 C   0  0  0  1  0  0  0  0  0  0  0  0
   -3.2271   -4.3441   -0.7619 C   0  0  0  1  0  0  0  0  0  0  0  0
   -2.3816   -5.2196   -0.1069 C   0  0  0  1  0  0  0  0  0  0  0  0
   -1.2602   -4.7385    0.5507 C   0  0  0  1  0  0  0  0  0  0  0  0
   -0.9904   -3.3830    0.5560 C   0  0  0  1  0  0  0  0  0  0  0  0
   -2.7502   -6.5209   -0.1760 O   0  0  0  1  0  0  0  0  0  0  0  0
   -2.0975   -7.4361    0.7178 C   0  0  0  1  0  0  0  0  0  0  0  0
    3.1542   -1.2786    0.1867 N   0  0  0  1  0  0  0  0  0  0  0  0
    4.4093   -0.5214    0.1693 C   0  0  0  1  0  0  0  0  0  0  0  0
    4.7796   -0.1361   -1.2576 C   0  0  0  1  0  0  0  0  0  0  0  0
    6.3137   -0.1168   -1.2698 C   0  0  0  1  0  0  0  0  0  0  0  0
    6.6371   -1.3586   -0.4346 C   0  0  0  1  0  0  0  0  0  0  0  0
    5.5680   -1.3922    0.6689 C   0  0  0  1  0  0  0  0  0  0  0  0
    7.9917   -1.2481    0.1575 N   0  0  0  1  0  0  0  0  0  0  0  0
    0.9178    2.4773    0.0988 H   0  0  0  1  0  0  0  0  0  0  0  0
   -2.1490    1.9440   -0.0608 H   0  0  0  1  0  0  0  0  0  0  0  0
   -3.5951   -2.3255   -1.2462 H   0  0  0  1  0  0  0  0  0  0  0  0
   -4.0663   -4.7054   -1.2587 H   0  0  0  1  0  0  0  0  0  0  0  0
   -0.6218   -5.3977    1.0402 H   0  0  0  1  0  0  0  0  0  0  0  0
   -0.1512   -3.0216    1.0527 H   0  0  0  1  0  0  0  0  0  0  0  0
   -1.0921   -7.1125    0.8889 H   0  0  0  1  0  0  0  0  0  0  0  0
   -2.0880   -8.4136    0.2826 H   0  0  0  1  0  0  0  0  0  0  0  0
   -2.6261   -7.4642    1.6477 H   0  0  0  1  0  0  0  0  0  0  0  0
    3.1720   -2.2569    0.2415 H   0  0  0  1  0  0  0  0  0  0  0  0
    4.3078    0.3523    0.7787 H   0  0  0  1  0  0  0  0  0  0  0  0
    4.4058   -0.8586   -1.9526 H   0  0  0  1  0  0  0  0  0  0  0  0
    4.3883    0.8296   -1.5011 H   0  0  0  1  0  0  0  0  0  0  0  0
    6.6975    0.7721   -0.8142 H   0  0  0  1  0  0  0  0  0  0  0  0
    6.6982   -0.2030   -2.2646 H   0  0  0  1  0  0  0  0  0  0  0  0
    6.5817   -2.2408   -1.0375 H   0  0  0  1  0  0  0  0  0  0  0  0
    5.2343   -2.3958    0.8313 H   0  0  0  1  0  0  0  0  0  0  0  0
    5.9635   -0.9955    1.5805 H   0  0  0  1  0  0  0  0  0  0  0  0
    8.1748   -2.0396    0.7055 H   0  0  0  1  0  0  0  0  0  0  0  0
    8.0387   -0.4454    0.7177 H   0  0  0  1  0  0  0  0  0  0  0  0
  1  2  4  0  0  0  0
  1  6  4  0  0  0  0
  1 18  1  0  0  0  0
  2  3  4  0  0  0  0
  3  4  4  0  0  0  0
  3 25  1  0  0  0  0
  4  5  4  0  0  0  0
  4  7  4  0  0  0  0
  5  6  4  0  0  0  0
  5  9  4  0  0  0  0
  7  8  4  0  0  0  0
  7 26  1  0  0  0  0
  8  9  4  0  0  0  0
  9 10  1  0  0  0  0
 10 11  4  0  0  0  0
 10 15  4  0  0  0  0
 11 12  4  0  0  0  0
 11 27  1  0  0  0  0
 12 13  4  0  0  0  0
 12 28  1  0  0  0  0
 13 14  4  0  0  0  0
 13 16  1  0  0  0  0
 14 15  4  0  0  0  0
 14 29  1  0  0  0  0
 15 30  1  0  0  0  0
 16 17  1  0  0  0  0
 17 31  1  0  0  0  0
 17 32  1  0  0  0  0
 17 33  1  0  0  0  0
 18 19  1  0  0  0  0
 18 34  1  0  0  0  0
 19 20  1  0  0  0  0
 19 23  1  0  0  0  0
 19 35  1  0  0  0  0
 20 21  1  0  0  0  0
 20 36  1  0  0  0  0
 20 37  1  0  0  0  0
 21 22  1  0  0  0  0
 21 38  1  0  0  0  0
 21 39  1  0  0  0  0
 22 23  1  0  0  0  0
 22 24  1  0  0  0  0
 22 40  1  0  0  0  0
 23 41  1  0  0  0  0
 23 42  1  0  0  0  0
 24 43  1  0  0  0  0
 24 44  1  0  0  0  0
M  END
> <ConfClashScore>
0 

> <ConfOneFourInteractionScore>
-0.984337 

> <ConfScore>
0.00627676 

> <ConfScorePBest>
0.00240702 

> <ConfTolerance>
0.32192 

$$$$
c22.sdf
 OpenBabel04162418103D

 44 47  0  0  0  0  0  0  0  0999 V2000
    1.9453   -0.6102    0.1255 C   0  0  0  1  0  0  0  0  0  0  0  0
    2.0364    0.7233    0.1480 N   0  0  0  1  0  0  0  0  0  0  0  0
    0.8946    1.4376    0.0881 C   0  0  0  1  0  0  0  0  0  0  0  0
   -0.3452    0.7386    0.0096 C   0  0  0  1  0  0  0  0  0  0  0  0
   -0.2528   -0.6477    0.0019 C   0  0  0  1  0  0  0  0  0  0  0  0
    0.8780   -1.3913    0.0538 N   0  0  0  1  0  0  0  0  0  0  0  0
   -1.7303    0.9921   -0.0538 C   0  0  0  1  0  0  0  0  0  0  0  0
   -2.4281   -0.1192   -0.1028 N   0  0  0  1  0  0  0  0  0  0  0  0
   -1.5125   -1.1341   -0.0681 N   0  0  0  1  0  0  0  0  0  0  0  0
   -1.8385   -2.5051   -0.1010 C   0  0  0  1  0  0  0  0  0  0  0  0
   -2.9303   -2.9899   -0.7961 C   0  0  0  1  0  0  0  0  0  0  0  0
   -3.2018   -4.3492   -0.7993 C   0  0  0  1  0  0  0  0  0  0  0  0
   -2.3840   -5.2192   -0.1030 C   0  0  0  1  0  0  0  0  0  0  0  0
   -1.2891   -4.7327    0.5942 C   0  0  0  1  0  0  0  0  0  0  0  0
   -1.0182   -3.3774    0.5974 C   0  0  0  1  0  0  0  0  0  0  0  0
   -2.7510   -6.5207   -0.1745 O   0  0  0  1  0  0  0  0  0  0  0  0
   -1.8853   -7.4818    0.4494 C   0  0  0  1  0  0  0  0  0  0  0  0
    3.1148   -1.2568    0.1844 N   0  0  0  1  0  0  0  0  0  0  0  0
    4.4646   -0.6376    0.2149 C   0  0  0  1  0  0  0  0  0  0  0  0
    5.0360   -0.5394   -1.2044 C   0  0  0  1  0  0  0  0  0  0  0  0
    6.2323   -1.4827   -1.2246 C   0  0  0  1  0  0  0  0  0  0  0  0
    6.7497   -1.4860    0.2198 C   0  0  0  1  0  0  0  0  0  0  0  0
    5.4384   -1.5222    1.0094 C   0  0  0  1  0  0  0  0  0  0  0  0
    7.5288   -0.2619    0.5191 N   0  0  0  1  0  0  0  0  0  0  0  0
    0.9179    2.4773    0.0987 H   0  0  0  1  0  0  0  0  0  0  0  0
   -2.1490    1.9441   -0.0607 H   0  0  0  1  0  0  0  0  0  0  0  0
   -3.5479   -2.3349   -1.3168 H   0  0  0  1  0  0  0  0  0  0  0  0
   -4.0210   -4.7146   -1.3256 H   0  0  0  1  0  0  0  0  0  0  0  0
   -0.6713   -5.3877    1.1148 H   0  0  0  1  0  0  0  0  0  0  0  0
   -0.1990   -3.0120    1.1237 H   0  0  0  1  0  0  0  0  0  0  0  0
   -2.4557   -8.3375    0.7451 H   0  0  0  1  0  0  0  0  0  0  0  0
   -1.4281   -7.0429    1.3115 H   0  0  0  1  0  0  0  0  0  0  0  0
   -1.1269   -7.7811   -0.2437 H   0  0  0  1  0  0  0  0  0  0  0  0
    3.0774   -2.2357    0.2101 H   0  0  0  1  0  0  0  0  0  0  0  0
    4.4017    0.3346    0.6573 H   0  0  0  1  0  0  0  0  0  0  0  0
    4.3058   -0.8456   -1.9240 H   0  0  0  1  0  0  0  0  0  0  0  0
    5.3461    0.4630   -1.4146 H   0  0  0  1  0  0  0  0  0  0  0  0
    5.9322   -2.4664   -1.5199 H   0  0  0  1  0  0  0  0  0  0  0  0
    6.9853   -1.1228   -1.8942 H   0  0  0  1  0  0  0  0  0  0  0  0
    7.3501   -2.3491    0.4185 H   0  0  0  1  0  0  0  0  0  0  0  0
    5.5828   -1.1301    1.9944 H   0  0  0  1  0  0  0  0  0  0  0  0
    5.0674   -2.5237    1.0744 H   0  0  0  1  0  0  0  0  0  0  0  0
    7.0507    0.5221    0.1768 H   0  0  0  1  0  0  0  0  0  0  0  0
    8.4078   -0.3213    0.0898 H   0  0  0  1  0  0  0  0  0  0  0  0
  1  2  4  0  0  0  0
  1  6  4  0  0  0  0
  1 18  1  0  0  0  0
  2  3  4  0  0  0  0
  3  4  4  0  0  0  0
  3 25  1  0  0  0  0
  4  5  4  0  0  0  0
  4  7  4  0  0  0  0
  5  6  4  0  0  0  0
  5  9  4  0  0  0  0
  7  8  4  0  0  0  0
  7 26  1  0  0  0  0
  8  9  4  0  0  0  0
  9 10  1  0  0  0  0
 10 11  4  0  0  0  0
 10 15  4  0  0  0  0
 11 12  4  0  0  0  0
 11 27  1  0  0  0  0
 12 13  4  0  0  0  0
 12 28  1  0  0  0  0
 13 14  4  0  0  0  0
 13 16  1  0  0  0  0
 14 15  4  0  0  0  0
 14 29  1  0  0  0  0
 15 30  1  0  0  0  0
 16 17  1  0  0  0  0
 17 31  1  0  0  0  0
 17 32  1  0  0  0  0
 17 33  1  0  0  0  0
 18 19  1  0  0  0  0
 18 34  1  0  0  0  0
 19 20  1  0  0  0  0
 19 23  1  0  0  0  0
 19 35  1  0  0  0  0
 20 21  1  0  0  0  0
 20 36  1  0  0  0  0
 20 37  1  0  0  0  0
 21 22  1  0  0  0  0
 21 38  1  0  0  0  0
 21 39  1  0  0  0  0
 22 23  1  0  0  0  0
 22 24  1  0  0  0  0
 22 40  1  0  0  0  0
 23 41  1  0  0  0  0
 23 42  1  0  0  0  0
 24 43  1  0  0  0  0
 24 44  1  0  0  0  0
M  END
> <ConfClashScore>
0 

> <ConfOneFourInteractionScore>
-0.984337 

> <ConfScore>
0.00645724 

> <ConfScorePBest>
0.0023937 

> <ConfTolerance>
0.466346 

$$$$
c22.sdf
 OpenBabel04162418103D

 44 47  0  0  0  0  0  0  0  0999 V2000
    1.9452   -0.6102    0.1256 C   0  0  0  1  0  0  0  0  0  0  0  0
    2.0363    0.7233    0.1481 N   0  0  0  1  0  0  0  0  0  0  0  0
    0.8946    1.4376    0.0881 C   0  0  0  1  0  0  0  0  0  0  0  0
   -0.3453    0.7386    0.0096 C   0  0  0  1  0  0  0  0  0  0  0  0
   -0.2528   -0.6478    0.0019 C   0  0  0  1  0  0  0  0  0  0  0  0
    0.8779   -1.3913    0.0539 N   0  0  0  1  0  0  0  0  0  0  0  0
   -1.7303    0.9921   -0.0538 C   0  0  0  1  0  0  0  0  0  0  0  0
   -2.4281   -0.1191   -0.1029 N   0  0  0  1  0  0  0  0  0  0  0  0
   -1.5126   -1.1342   -0.0681 N   0  0  0  1  0  0  0  0  0  0  0  0
   -1.8385   -2.5052   -0.1010 C   0  0  0  1  0  0  0  0  0  0  0  0
   -2.9606   -2.9838   -0.7506 C   0  0  0  1  0  0  0  0  0  0  0  0
   -3.2310   -4.3433   -0.7562 C   0  0  0  1  0  0  0  0  0  0  0  0
   -2.3814   -5.2197   -0.1077 C   0  0  0  1  0  0  0  0  0  0  0  0
   -1.2559   -4.7394    0.5437 C   0  0  0  1  0  0  0  0  0  0  0  0
   -0.9863   -3.3838    0.5493 C   0  0  0  1  0  0  0  0  0  0  0  0
   -2.7050   -6.5340   -0.1463 O   0  0  0  1  0  0  0  0  0  0  0  0
   -4.0373   -6.8697   -0.5646 C   0  0  0  1  0  0  0  0  0  0  0  0
    3.1213   -1.2605    0.1849 N   0  0  0  1  0  0  0  0  0  0  0  0
    3.3772   -2.6931    0.1076 C   0  0  0  1  0  0  0  0  0  0  0  0
    2.9703   -3.3820    1.4155 C   0  0  0  1  0  0  0  0  0  0  0  0
    4.2708   -3.8985    2.0510 C   0  0  0  1  0  0  0  0  0  0  0  0
    5.3895   -3.0845    1.3954 C   0  0  0  1  0  0  0  0  0  0  0  0
    4.8695   -2.9607   -0.0427 C   0  0  0  1  0  0  0  0  0  0  0  0
    6.6820   -3.8039    1.4436 N   0  0  0  1  0  0  0  0  0  0  0  0
    0.9179    2.4772    0.0988 H   0  0  0  1  0  0  0  0  0  0  0  0
   -2.1490    1.9441   -0.0609 H   0  0  0  1  0  0  0  0  0  0  0  0
   -3.6021   -2.3240   -1.2351 H   0  0  0  1  0  0  0  0  0  0  0  0
   -4.0731   -4.7040   -1.2483 H   0  0  0  1  0  0  0  0  0  0  0  0
   -0.6144   -5.3991    1.0283 H   0  0  0  1  0  0  0  0  0  0  0  0
   -0.1441   -3.0231    1.0415 H   0  0  0  1  0  0  0  0  0  0  0  0
   -4.1915   -7.9228   -0.4547 H   0  0  0  1  0  0  0  0  0  0  0  0
   -4.1686   -6.5954   -1.5904 H   0  0  0  1  0  0  0  0  0  0  0  0
   -4.7445   -6.3410    0.0398 H   0  0  0  1  0  0  0  0  0  0  0  0
    3.9134   -0.6940    0.2951 H   0  0  0  1  0  0  0  0  0  0  0  0
    2.8374   -3.1082   -0.7178 H   0  0  0  1  0  0  0  0  0  0  0  0
    2.3068   -4.1969    1.2143 H   0  0  0  1  0  0  0  0  0  0  0  0
    2.4904   -2.6834    2.0687 H   0  0  0  1  0  0  0  0  0  0  0  0
    4.3983   -4.9416    1.8494 H   0  0  0  1  0  0  0  0  0  0  0  0
    4.2607   -3.7379    3.1089 H   0  0  0  1  0  0  0  0  0  0  0  0
    5.4973   -2.1251    1.8565 H   0  0  0  1  0  0  0  0  0  0  0  0
    5.3492   -2.1490   -0.5487 H   0  0  0  1  0  0  0  0  0  0  0  0
    5.0375   -3.8683   -0.5841 H   0  0  0  1  0  0  0  0  0  0  0  0
    7.3652   -3.2808    0.9744 H   0  0  0  1  0  0  0  0  0  0  0  0
    6.5855   -4.6777    1.0107 H   0  0  0  1  0  0  0  0  0  0  0  0
  1  2  4  0  0  0  0
  1  6  4  0  0  0  0
  1 18  1  0  0  0  0
  2  3  4  0  0  0  0
  3  4  4  0  0  0  0
  3 25  1  0  0  0  0
  4  5  4  0  0  0  0
  4  7  4  0  0  0  0
  5  6  4  0  0  0  0
  5  9  4  0  0  0  0
  7  8  4  0  0  0  0
  7 26  1  0  0  0  0
  8  9  4  0  0  0  0
  9 10  1  0  0  0  0
 10 11  4  0  0  0  0
 10 15  4  0  0  0  0
 11 12  4  0  0  0  0
 11 27  1  0  0  0  0
 12 13  4  0  0  0  0
 12 28  1  0  0  0  0
 13 14  4  0  0  0  0
 13 16  1  0  0  0  0
 14 15  4  0  0  0  0
 14 29  1  0  0  0  0
 15 30  1  0  0  0  0
 16 17  1  0  0  0  0
 17 31  1  0  0  0  0
 17 32  1  0  0  0  0
 17 33  1  0  0  0  0
 18 19  1  0  0  0  0
 18 34  1  0  0  0  0
 19 20  1  0  0  0  0
 19 23  1  0  0  0  0
 19 35  1  0  0  0  0
 20 21  1  0  0  0  0
 20 36  1  0  0  0  0
 20 37  1  0  0  0  0
 21 22  1  0  0  0  0
 21 38  1  0  0  0  0
 21 39  1  0  0  0  0
 22 23  1  0  0  0  0
 22 24  1  0  0  0  0
 22 40  1  0  0  0  0
 23 41  1  0  0  0  0
 23 42  1  0  0  0  0
 24 43  1  0  0  0  0
 24 44  1  0  0  0  0
M  END
> <ConfClashScore>
0 

> <ConfOneFourInteractionScore>
-0.984337 

> <ConfScore>
0.00993319 

> <ConfScorePBest>
0.00238037 

> <ConfTolerance>
0.343402 

$$$$
c22.sdf
 OpenBabel04162418103D

 44 47  0  0  0  0  0  0  0  0999 V2000
    1.9453   -0.6102    0.1255 C   0  0  0  1  0  0  0  0  0  0  0  0
    2.0364    0.7233    0.1481 N   0  0  0  1  0  0  0  0  0  0  0  0
    0.8946    1.4375    0.0881 C   0  0  0  1  0  0  0  0  0  0  0  0
   -0.3452    0.7386    0.0096 C   0  0  0  1  0  0  0  0  0  0  0  0
   -0.2528   -0.6478    0.0020 C   0  0  0  1  0  0  0  0  0  0  0  0
    0.8779   -1.3913    0.0539 N   0  0  0  1  0  0  0  0  0  0  0  0
   -1.7303    0.9921   -0.0538 C   0  0  0  1  0  0  0  0  0  0  0  0
   -2.4281   -0.1191   -0.1028 N   0  0  0  1  0  0  0  0  0  0  0  0
   -1.5125   -1.1341   -0.0681 N   0  0  0  1  0  0  0  0  0  0  0  0
   -1.8385   -2.5052   -0.1010 C   0  0  0  1  0  0  0  0  0  0  0  0
   -1.7549   -3.1542   -1.3183 C   0  0  0  1  0  0  0  0  0  0  0  0
   -2.0591   -4.5038   -1.4062 C   0  0  0  1  0  0  0  0  0  0  0  0
   -2.4511   -5.1990   -0.2778 C   0  0  0  1  0  0  0  0  0  0  0  0
   -2.5349   -4.5478    0.9430 C   0  0  0  1  0  0  0  0  0  0  0  0
   -2.2317   -3.2022    1.0309 C   0  0  0  1  0  0  0  0  0  0  0  0
   -2.7668   -6.5158   -0.2969 O   0  0  0  1  0  0  0  0  0  0  0  0
   -2.6810   -7.1929   -1.5604 C   0  0  0  1  0  0  0  0  0  0  0  0
    3.1379   -1.2697    0.1857 N   0  0  0  1  0  0  0  0  0  0  0  0
    3.2102   -2.7250    0.1646 C   0  0  0  1  0  0  0  0  0  0  0  0
    4.4409   -3.2043    0.9181 C   0  0  0  1  0  0  0  0  0  0  0  0
    5.4047   -3.8366   -0.0994 C   0  0  0  1  0  0  0  0  0  0  0  0
    4.8922   -3.3174   -1.4313 C   0  0  0  1  0  0  0  0  0  0  0  0
    3.3757   -3.2321   -1.2808 C   0  0  0  1  0  0  0  0  0  0  0  0
    5.2498   -4.2458   -2.5171 N   0  0  0  1  0  0  0  0  0  0  0  0
    0.9178    2.4772    0.0988 H   0  0  0  1  0  0  0  0  0  0  0  0
   -2.1490    1.9441   -0.0608 H   0  0  0  1  0  0  0  0  0  0  0  0
   -1.4638   -2.6303   -2.1681 H   0  0  0  1  0  0  0  0  0  0  0  0
   -1.9924   -4.9932   -2.3214 H   0  0  0  1  0  0  0  0  0  0  0  0
   -2.8260   -5.0718    1.7929 H   0  0  0  1  0  0  0  0  0  0  0  0
   -2.2984   -2.7127    1.9461 H   0  0  0  1  0  0  0  0  0  0  0  0
   -1.7232   -7.6613   -1.6503 H   0  0  0  1  0  0  0  0  0  0  0  0
   -2.8076   -6.4856   -2.3532 H   0  0  0  1  0  0  0  0  0  0  0  0
   -3.4483   -7.9364   -1.6192 H   0  0  0  1  0  0  0  0  0  0  0  0
    3.9675   -0.7513    0.2448 H   0  0  0  1  0  0  0  0  0  0  0  0
    2.3235   -3.1331    0.6027 H   0  0  0  1  0  0  0  0  0  0  0  0
    4.1579   -3.9314    1.6504 H   0  0  0  1  0  0  0  0  0  0  0  0
    4.9157   -2.3763    1.4018 H   0  0  0  1  0  0  0  0  0  0  0  0
    5.3573   -4.9049   -0.0601 H   0  0  0  1  0  0  0  0  0  0  0  0
    6.4108   -3.5171    0.0755 H   0  0  0  1  0  0  0  0  0  0  0  0
    5.3021   -2.3509   -1.6382 H   0  0  0  1  0  0  0  0  0  0  0  0
    2.9203   -4.1919   -1.4080 H   0  0  0  1  0  0  0  0  0  0  0  0
    2.9562   -2.5419   -1.9827 H   0  0  0  1  0  0  0  0  0  0  0  0
    6.2185   -4.2207   -2.6633 H   0  0  0  1  0  0  0  0  0  0  0  0
    4.7886   -3.9793   -3.3397 H   0  0  0  1  0  0  0  0  0  0  0  0
  1  2  4  0  0  0  0
  1  6  4  0  0  0  0
  1 18  1  0  0  0  0
  2  3  4  0  0  0  0
  3  4  4  0  0  0  0
  3 25  1  0  0  0  0
  4  5  4  0  0  0  0
  4  7  4  0  0  0  0
  5  6  4  0  0  0  0
  5  9  4  0  0  0  0
  7  8  4  0  0  0  0
  7 26  1  0  0  0  0
  8  9  4  0  0  0  0
  9 10  1  0  0  0  0
 10 11  4  0  0  0  0
 10 15  4  0  0  0  0
 11 12  4  0  0  0  0
 11 27  1  0  0  0  0
 12 13  4  0  0  0  0
 12 28  1  0  0  0  0
 13 14  4  0  0  0  0
 13 16  1  0  0  0  0
 14 15  4  0  0  0  0
 14 29  1  0  0  0  0
 15 30  1  0  0  0  0
 16 17  1  0  0  0  0
 17 31  1  0  0  0  0
 17 32  1  0  0  0  0
 17 33  1  0  0  0  0
 18 19  1  0  0  0  0
 18 34  1  0  0  0  0
 19 20  1  0  0  0  0
 19 23  1  0  0  0  0
 19 35  1  0  0  0  0
 20 21  1  0  0  0  0
 20 36  1  0  0  0  0
 20 37  1  0  0  0  0
 21 22  1  0  0  0  0
 21 38  1  0  0  0  0
 21 39  1  0  0  0  0
 22 23  1  0  0  0  0
 22 24  1  0  0  0  0
 22 40  1  0  0  0  0
 23 41  1  0  0  0  0
 23 42  1  0  0  0  0
 24 43  1  0  0  0  0
 24 44  1  0  0  0  0
M  END
> <ConfClashScore>
0 

> <ConfOneFourInteractionScore>
-0.984337 

> <ConfScore>
0.0101525 

> <ConfScorePBest>
0.00236704 

> <ConfTolerance>
0.539595 

$$$$
c22.sdf
 OpenBabel04162418103D

 44 47  0  0  0  0  0  0  0  0999 V2000
    1.9453   -0.6102    0.1256 C   0  0  0  1  0  0  0  0  0  0  0  0
    2.0363    0.7233    0.1482 N   0  0  0  1  0  0  0  0  0  0  0  0
    0.8946    1.4375    0.0881 C   0  0  0  1  0  0  0  0  0  0  0  0
   -0.3453    0.7386    0.0096 C   0  0  0  1  0  0  0  0  0  0  0  0
   -0.2529   -0.6477    0.0020 C   0  0  0  1  0  0  0  0  0  0  0  0
    0.8779   -1.3912    0.0539 N   0  0  0  1  0  0  0  0  0  0  0  0
   -1.7304    0.9921   -0.0538 C   0  0  0  1  0  0  0  0  0  0  0  0
   -2.4281   -0.1191   -0.1028 N   0  0  0  1  0  0  0  0  0  0  0  0
   -1.5125   -1.1341   -0.0681 N   0  0  0  1  0  0  0  0  0  0  0  0
   -1.8419   -2.5193   -0.1014 C   0  0  0  1  0  0  0  0  0  0  0  0
   -1.0645   -3.3980   -0.8319 C   0  0  0  1  0  0  0  0  0  0  0  0
   -1.4352   -4.7297   -0.9353 C   0  0  0  1  0  0  0  0  0  0  0  0
   -2.5847   -5.1776   -0.3124 C   0  0  0  1  0  0  0  0  0  0  0  0
   -3.3643   -4.2961    0.4203 C   0  0  0  1  0  0  0  0  0  0  0  0
   -2.9949   -2.9683    0.5234 C   0  0  0  1  0  0  0  0  0  0  0  0
   -2.8473   -6.4945   -0.4879 O   0  0  0  1  0  0  0  0  0  0  0  0
   -3.9843   -7.0348    0.2032 C   0  0  0  1  0  0  0  0  0  0  0  0
    3.1213   -1.2604    0.1849 N   0  0  0  1  0  0  0  0  0  0  0  0
    3.2458   -2.7190    0.2542 C   0  0  0  1  0  0  0  0  0  0  0  0
    3.9439   -3.1313    1.5554 C   0  0  0  1  0  0  0  0  0  0  0  0
    5.2754   -3.7348    1.1260 C   0  0  0  1  0  0  0  0  0  0  0  0
    5.0049   -4.3248   -0.2642 C   0  0  0  1  0  0  0  0  0  0  0  0
    4.1334   -3.2327   -0.8905 C   0  0  0  1  0  0  0  0  0  0  0  0
    4.2778   -5.6136   -0.1742 N   0  0  0  1  0  0  0  0  0  0  0  0
    0.9179    2.4773    0.0989 H   0  0  0  1  0  0  0  0  0  0  0  0
   -2.1490    1.9441   -0.0608 H   0  0  0  1  0  0  0  0  0  0  0  0
   -0.2016   -3.0601   -1.3040 H   0  0  0  1  0  0  0  0  0  0  0  0
   -0.8481   -5.3918   -1.4816 H   0  0  0  1  0  0  0  0  0  0  0  0
   -4.2272   -4.6340    0.8923 H   0  0  0  1  0  0  0  0  0  0  0  0
   -3.5820   -2.3061    1.0698 H   0  0  0  1  0  0  0  0  0  0  0  0
   -4.8638   -6.8912   -0.3891 H   0  0  0  1  0  0  0  0  0  0  0  0
   -4.1014   -6.5348    1.1420 H   0  0  0  1  0  0  0  0  0  0  0  0
   -3.8350   -8.0808    0.3718 H   0  0  0  1  0  0  0  0  0  0  0  0
    3.9435   -0.7273    0.1815 H   0  0  0  1  0  0  0  0  0  0  0  0
    2.2741   -3.1635    0.1980 H   0  0  0  1  0  0  0  0  0  0  0  0
    3.3573   -3.8549    2.0819 H   0  0  0  1  0  0  0  0  0  0  0  0
    4.1041   -2.2780    2.1809 H   0  0  0  1  0  0  0  0  0  0  0  0
    6.0325   -2.9806    1.0749 H   0  0  0  1  0  0  0  0  0  0  0  0
    5.5798   -4.5009    1.8081 H   0  0  0  1  0  0  0  0  0  0  0  0
    5.9124   -4.4643   -0.8135 H   0  0  0  1  0  0  0  0  0  0  0  0
    4.7426   -2.4422   -1.2763 H   0  0  0  1  0  0  0  0  0  0  0  0
    3.5329   -3.6378   -1.6779 H   0  0  0  1  0  0  0  0  0  0  0  0
    4.8129   -6.2560    0.3369 H   0  0  0  1  0  0  0  0  0  0  0  0
    4.1211   -5.9636   -1.0761 H   0  0  0  1  0  0  0  0  0  0  0  0
  1  2  4  0  0  0  0
  1  6  4  0  0  0  0
  1 18  1  0  0  0  0
  2  3  4  0  0  0  0
  3  4  4  0  0  0  0
  3 25  1  0  0  0  0
  4  5  4  0  0  0  0
  4  7  4  0  0  0  0
  5  6  4  0  0  0  0
  5  9  4  0  0  0  0
  7  8  4  0  0  0  0
  7 26  1  0  0  0  0
  8  9  4  0  0  0  0
  9 10  1  0  0  0  0
 10 11  4  0  0  0  0
 10 15  4  0  0  0  0
 11 12  4  0  0  0  0
 11 27  1  0  0  0  0
 12 13  4  0  0  0  0
 12 28  1  0  0  0  0
 13 14  4  0  0  0  0
 13 16  1  0  0  0  0
 14 15  4  0  0  0  0
 14 29  1  0  0  0  0
 15 30  1  0  0  0  0
 16 17  1  0  0  0  0
 17 31  1  0  0  0  0
 17 32  1  0  0  0  0
 17 33  1  0  0  0  0
 18 19  1  0  0  0  0
 18 34  1  0  0  0  0
 19 20  1  0  0  0  0
 19 23  1  0  0  0  0
 19 35  1  0  0  0  0
 20 21  1  0  0  0  0
 20 36  1  0  0  0  0
 20 37  1  0  0  0  0
 21 22  1  0  0  0  0
 21 38  1  0  0  0  0
 21 39  1  0  0  0  0
 22 23  1  0  0  0  0
 22 24  1  0  0  0  0
 22 40  1  0  0  0  0
 23 41  1  0  0  0  0
 23 42  1  0  0  0  0
 24 43  1  0  0  0  0
 24 44  1  0  0  0  0
M  END
> <ConfClashScore>
0 

> <ConfOneFourInteractionScore>
-0.984337 

> <ConfScore>
0.0110518 

> <ConfScorePBest>
0.00235371 

> <ConfTolerance>
0.473489 

$$$$
c22.sdf
 OpenBabel04162418103D

 44 47  0  0  0  0  0  0  0  0999 V2000
    1.9452   -0.6102    0.1256 C   0  0  0  1  0  0  0  0  0  0  0  0
    2.0363    0.7232    0.1482 N   0  0  0  1  0  0  0  0  0  0  0  0
    0.8946    1.4376    0.0881 C   0  0  0  1  0  0  0  0  0  0  0  0
   -0.3453    0.7386    0.0096 C   0  0  0  1  0  0  0  0  0  0  0  0
   -0.2528   -0.6477    0.0020 C   0  0  0  1  0  0  0  0  0  0  0  0
    0.8779   -1.3913    0.0539 N   0  0  0  1  0  0  0  0  0  0  0  0
   -1.7304    0.9921   -0.0538 C   0  0  0  1  0  0  0  0  0  0  0  0
   -2.4281   -0.1191   -0.1029 N   0  0  0  1  0  0  0  0  0  0  0  0
   -1.5125   -1.1342   -0.0681 N   0  0  0  1  0  0  0  0  0  0  0  0
   -1.8397   -2.5098   -0.1012 C   0  0  0  1  0  0  0  0  0  0  0  0
   -1.5645   -3.2586   -1.2298 C   0  0  0  1  0  0  0  0  0  0  0  0
   -1.8802   -4.6079   -1.2601 C   0  0  0  1  0  0  0  0  0  0  0  0
   -2.4750   -5.2035   -0.1638 C   0  0  0  1  0  0  0  0  0  0  0  0
   -2.7510   -4.4523    0.9681 C   0  0  0  1  0  0  0  0  0  0  0  0
   -2.4363   -3.1069    0.9985 C   0  0  0  1  0  0  0  0  0  0  0  0
   -2.8323   -6.5070   -0.0792 O   0  0  0  1  0  0  0  0  0  0  0  0
   -2.6717   -7.3094   -1.2593 C   0  0  0  1  0  0  0  0  0  0  0  0
    3.1213   -1.2605    0.1850 N   0  0  0  1  0  0  0  0  0  0  0  0
    4.4459   -0.6513    0.3139 C   0  0  0  1  0  0  0  0  0  0  0  0
    4.5540    0.1094    1.6406 C   0  0  0  1  0  0  0  0  0  0  0  0
    4.6824    1.5778    1.2553 C   0  0  0  1  0  0  0  0  0  0  0  0
    5.3737    1.5617   -0.1142 C   0  0  0  1  0  0  0  0  0  0  0  0
    4.6640    0.3890   -0.7962 C   0  0  0  1  0  0  0  0  0  0  0  0
    6.8419    1.3106    0.0172 N   0  0  0  1  0  0  0  0  0  0  0  0
    0.9179    2.4772    0.0988 H   0  0  0  1  0  0  0  0  0  0  0  0
   -2.1489    1.9441   -0.0607 H   0  0  0  1  0  0  0  0  0  0  0  0
   -1.1206   -2.8097   -2.0562 H   0  0  0  1  0  0  0  0  0  0  0  0
   -1.6695   -5.1724   -2.1078 H   0  0  0  1  0  0  0  0  0  0  0  0
   -3.1950   -4.9013    1.7946 H   0  0  0  1  0  0  0  0  0  0  0  0
   -2.6470   -2.5425    1.8463 H   0  0  0  1  0  0  0  0  0  0  0  0
   -2.9737   -8.3147   -1.0516 H   0  0  0  1  0  0  0  0  0  0  0  0
   -1.6447   -7.3005   -1.5594 H   0  0  0  1  0  0  0  0  0  0  0  0
   -3.2772   -6.9108   -2.0464 H   0  0  0  1  0  0  0  0  0  0  0  0
    3.0879   -2.2387    0.1371 H   0  0  0  1  0  0  0  0  0  0  0  0
    5.1959   -1.4126    0.2610 H   0  0  0  1  0  0  0  0  0  0  0  0
    5.4165   -0.2111    2.1868 H   0  0  0  1  0  0  0  0  0  0  0  0
    3.6773   -0.0466    2.2340 H   0  0  0  1  0  0  0  0  0  0  0  0
    3.7176    2.0353    1.1854 H   0  0  0  1  0  0  0  0  0  0  0  0
    5.2768    2.1054    1.9717 H   0  0  0  1  0  0  0  0  0  0  0  0
    5.2141    2.4775   -0.6441 H   0  0  0  1  0  0  0  0  0  0  0  0
    5.2744   -0.0168   -1.5757 H   0  0  0  1  0  0  0  0  0  0  0  0
    3.7263    0.7042   -1.2041 H   0  0  0  1  0  0  0  0  0  0  0  0
    7.2149    1.0840   -0.8602 H   0  0  0  1  0  0  0  0  0  0  0  0
    6.9916    0.5669    0.6376 H   0  0  0  1  0  0  0  0  0  0  0  0
  1  2  4  0  0  0  0
  1  6  4  0  0  0  0
  1 18  1  0  0  0  0
  2  3  4  0  0  0  0
  3  4  4  0  0  0  0
  3 25  1  0  0  0  0
  4  5  4  0  0  0  0
  4  7  4  0  0  0  0
  5  6  4  0  0  0  0
  5  9  4  0  0  0  0
  7  8  4  0  0  0  0
  7 26  1  0  0  0  0
  8  9  4  0  0  0  0
  9 10  1  0  0  0  0
 10 11  4  0  0  0  0
 10 15  4  0  0  0  0
 11 12  4  0  0  0  0
 11 27  1  0  0  0  0
 12 13  4  0  0  0  0
 12 28  1  0  0  0  0
 13 14  4  0  0  0  0
 13 16  1  0  0  0  0
 14 15  4  0  0  0  0
 14 29  1  0  0  0  0
 15 30  1  0  0  0  0
 16 17  1  0  0  0  0
 17 31  1  0  0  0  0
 17 32  1  0  0  0  0
 17 33  1  0  0  0  0
 18 19  1  0  0  0  0
 18 34  1  0  0  0  0
 19 20  1  0  0  0  0
 19 23  1  0  0  0  0
 19 35  1  0  0  0  0
 20 21  1  0  0  0  0
 20 36  1  0  0  0  0
 20 37  1  0  0  0  0
 21 22  1  0  0  0  0
 21 38  1  0  0  0  0
 21 39  1  0  0  0  0
 22 23  1  0  0  0  0
 22 24  1  0  0  0  0
 22 40  1  0  0  0  0
 23 41  1  0  0  0  0
 23 42  1  0  0  0  0
 24 43  1  0  0  0  0
 24 44  1  0  0  0  0
M  END
> <ConfClashScore>
0 

> <ConfOneFourInteractionScore>
-0.980204 

> <ConfScore>
0.0120139 

> <ConfScorePBest>
0.00234038 

> <ConfTolerance>
0.340808 

$$$$
c22.sdf
 OpenBabel04162418103D

 44 47  0  0  0  0  0  0  0  0999 V2000
    1.9452   -0.6103    0.1255 C   0  0  0  1  0  0  0  0  0  0  0  0
    2.0364    0.7233    0.1481 N   0  0  0  1  0  0  0  0  0  0  0  0
    0.8946    1.4376    0.0881 C   0  0  0  1  0  0  0  0  0  0  0  0
   -0.3452    0.7386    0.0096 C   0  0  0  1  0  0  0  0  0  0  0  0
   -0.2528   -0.6477    0.0020 C   0  0  0  1  0  0  0  0  0  0  0  0
    0.8779   -1.3913    0.0538 N   0  0  0  1  0  0  0  0  0  0  0  0
   -1.7304    0.9921   -0.0538 C   0  0  0  1  0  0  0  0  0  0  0  0
   -2.4281   -0.1191   -0.1028 N   0  0  0  1  0  0  0  0  0  0  0  0
   -1.5125   -1.1342   -0.0681 N   0  0  0  1  0  0  0  0  0  0  0  0
   -1.8422   -2.5202   -0.1014 C   0  0  0  1  0  0  0  0  0  0  0  0
   -2.8077   -3.0172    0.7535 C   0  0  0  1  0  0  0  0  0  0  0  0
   -3.2016   -4.3428    0.6582 C   0  0  0  1  0  0  0  0  0  0  0  0
   -2.6250   -5.1690   -0.2881 C   0  0  0  1  0  0  0  0  0  0  0  0
   -1.6565   -4.6703   -1.1454 C   0  0  0  1  0  0  0  0  0  0  0  0
   -1.2638   -3.3485   -1.0506 C   0  0  0  1  0  0  0  0  0  0  0  0
   -3.0756   -6.4371   -0.4379 O   0  0  0  1  0  0  0  0  0  0  0  0
   -4.0492   -6.9038    0.5090 C   0  0  0  1  0  0  0  0  0  0  0  0
    3.1257   -1.2629    0.1850 N   0  0  0  1  0  0  0  0  0  0  0  0
    4.4069   -0.6038    0.3700 C   0  0  0  1  0  0  0  0  0  0  0  0
    5.3607   -0.9657   -0.7616 C   0  0  0  1  0  0  0  0  0  0  0  0
    6.7541   -0.9374   -0.1202 C   0  0  0  1  0  0  0  0  0  0  0  0
    6.4776   -1.6042    1.2300 C   0  0  0  1  0  0  0  0  0  0  0  0
    5.0869   -1.1031    1.6502 C   0  0  0  1  0  0  0  0  0  0  0  0
    7.5001   -1.2007    2.2290 N   0  0  0  1  0  0  0  0  0  0  0  0
    0.9180    2.4772    0.0988 H   0  0  0  1  0  0  0  0  0  0  0  0
   -2.1489    1.9442   -0.0607 H   0  0  0  1  0  0  0  0  0  0  0  0
   -3.2387   -2.3967    1.4682 H   0  0  0  1  0  0  0  0  0  0  0  0
   -3.9310   -4.7159    1.2988 H   0  0  0  1  0  0  0  0  0  0  0  0
   -1.2255   -5.2907   -1.8601 H   0  0  0  1  0  0  0  0  0  0  0  0
   -0.5343   -2.9754   -1.6911 H   0  0  0  1  0  0  0  0  0  0  0  0
   -3.5549   -7.2159    1.4051 H   0  0  0  1  0  0  0  0  0  0  0  0
   -4.5852   -7.7304    0.0912 H   0  0  0  1  0  0  0  0  0  0  0  0
   -4.7331   -6.1129    0.7362 H   0  0  0  1  0  0  0  0  0  0  0  0
    3.1176   -2.2390    0.0982 H   0  0  0  1  0  0  0  0  0  0  0  0
    4.2609    0.4553    0.4124 H   0  0  0  1  0  0  0  0  0  0  0  0
    5.1408   -1.9409   -1.1432 H   0  0  0  1  0  0  0  0  0  0  0  0
    5.2955   -0.2492   -1.5537 H   0  0  0  1  0  0  0  0  0  0  0  0
    7.1077    0.0649    0.0034 H   0  0  0  1  0  0  0  0  0  0  0  0
    7.4614   -1.4973   -0.6956 H   0  0  0  1  0  0  0  0  0  0  0  0
    6.4778   -2.6695    1.1292 H   0  0  0  1  0  0  0  0  0  0  0  0
    5.1783   -0.3049    2.3569 H   0  0  0  1  0  0  0  0  0  0  0  0
    4.5208   -1.9009    2.0837 H   0  0  0  1  0  0  0  0  0  0  0  0
    7.4133   -0.2429    2.4173 H   0  0  0  1  0  0  0  0  0  0  0  0
    8.3946   -1.3835    1.8727 H   0  0  0  1  0  0  0  0  0  0  0  0
  1  2  4  0  0  0  0
  1  6  4  0  0  0  0
  1 18  1  0  0  0  0
  2  3  4  0  0  0  0
  3  4  4  0  0  0  0
  3 25  1  0  0  0  0
  4  5  4  0  0  0  0
  4  7  4  0  0  0  0
  5  6  4  0  0  0  0
  5  9  4  0  0  0  0
  7  8  4  0  0  0  0
  7 26  1  0  0  0  0
  8  9  4  0  0  0  0
  9 10  1  0  0  0  0
 10 11  4  0  0  0  0
 10 15  4  0  0  0  0
 11 12  4  0  0  0  0
 11 27  1  0  0  0  0
 12 13  4  0  0  0  0
 12 28  1  0  0  0  0
 13 14  4  0  0  0  0
 13 16  1  0  0  0  0
 14 15  4  0  0  0  0
 14 29  1  0  0  0  0
 15 30  1  0  0  0  0
 16 17  1  0  0  0  0
 17 31  1  0  0  0  0
 17 32  1  0  0  0  0
 17 33  1  0  0  0  0
 18 19  1  0  0  0  0
 18 34  1  0  0  0  0
 19 20  1  0  0  0  0
 19 23  1  0  0  0  0
 19 35  1  0  0  0  0
 20 21  1  0  0  0  0
 20 36  1  0  0  0  0
 20 37  1  0  0  0  0
 21 22  1  0  0  0  0
 21 38  1  0  0  0  0
 21 39  1  0  0  0  0
 22 23  1  0  0  0  0
 22 24  1  0  0  0  0
 22 40  1  0  0  0  0
 23 41  1  0  0  0  0
 23 42  1  0  0  0  0
 24 43  1  0  0  0  0
 24 44  1  0  0  0  0
M  END
> <ConfClashScore>
0 

> <ConfOneFourInteractionScore>
-0.984337 

> <ConfScore>
0.0126487 

> <ConfScorePBest>
0.00232706 

> <ConfTolerance>
0.452274 

$$$$
c22.sdf
 OpenBabel04162418103D

 44 47  0  0  0  0  0  0  0  0999 V2000
    1.9452   -0.6102    0.1255 C   0  0  0  1  0  0  0  0  0  0  0  0
    2.0363    0.7233    0.1481 N   0  0  0  1  0  0  0  0  0  0  0  0
    0.8946    1.4376    0.0881 C   0  0  0  1  0  0  0  0  0  0  0  0
   -0.3452    0.7386    0.0096 C   0  0  0  1  0  0  0  0  0  0  0  0
   -0.2528   -0.6477    0.0020 C   0  0  0  1  0  0  0  0  0  0  0  0
    0.8779   -1.3912    0.0539 N   0  0  0  1  0  0  0  0  0  0  0  0
   -1.7303    0.9921   -0.0538 C   0  0  0  1  0  0  0  0  0  0  0  0
   -2.4281   -0.1191   -0.1030 N   0  0  0  1  0  0  0  0  0  0  0  0
   -1.5125   -1.1342   -0.0681 N   0  0  0  1  0  0  0  0  0  0  0  0
   -1.8412   -2.5164   -0.1013 C   0  0  0  1  0  0  0  0  0  0  0  0
   -3.0211   -2.9322   -0.6887 C   0  0  0  1  0  0  0  0  0  0  0  0
   -3.3392   -4.2809   -0.7258 C   0  0  0  1  0  0  0  0  0  0  0  0
   -2.4790   -5.2094   -0.1706 C   0  0  0  1  0  0  0  0  0  0  0  0
   -1.2954   -4.7923    0.4185 C   0  0  0  1  0  0  0  0  0  0  0  0
   -0.9783   -3.4475    0.4555 C   0  0  0  1  0  0  0  0  0  0  0  0
   -2.6843   -6.5476   -0.1424 O   0  0  0  1  0  0  0  0  0  0  0  0
   -3.8982   -7.0378   -0.7328 C   0  0  0  1  0  0  0  0  0  0  0  0
    3.1213   -1.2604    0.1849 N   0  0  0  1  0  0  0  0  0  0  0  0
    3.2549   -2.7032    0.0826 C   0  0  0  1  0  0  0  0  0  0  0  0
    2.5027   -3.4180    1.2125 C   0  0  0  1  0  0  0  0  0  0  0  0
    3.4025   -3.2659    2.4326 C   0  0  0  1  0  0  0  0  0  0  0  0
    4.8299   -3.1899    1.8781 C   0  0  0  1  0  0  0  0  0  0  0  0
    4.6944   -3.1525    0.3477 C   0  0  0  1  0  0  0  0  0  0  0  0
    5.6088   -4.3834    2.2967 N   0  0  0  1  0  0  0  0  0  0  0  0
    0.9178    2.4773    0.0987 H   0  0  0  1  0  0  0  0  0  0  0  0
   -2.1490    1.9441   -0.0609 H   0  0  0  1  0  0  0  0  0  0  0  0
   -3.6704   -2.2333   -1.1028 H   0  0  0  1  0  0  0  0  0  0  0  0
   -4.2252   -4.5941   -1.1712 H   0  0  0  1  0  0  0  0  0  0  0  0
   -0.6462   -5.4912    0.8326 H   0  0  0  1  0  0  0  0  0  0  0  0
   -0.0924   -3.1342    0.9011 H   0  0  0  1  0  0  0  0  0  0  0  0
   -4.7320   -6.7477   -0.1282 H   0  0  0  1  0  0  0  0  0  0  0  0
   -3.8580   -8.1052   -0.7961 H   0  0  0  1  0  0  0  0  0  0  0  0
   -4.0090   -6.6258   -1.7141 H   0  0  0  1  0  0  0  0  0  0  0  0
    3.9362   -0.7293    0.3043 H   0  0  0  1  0  0  0  0  0  0  0  0
    2.9151   -3.0260   -0.8793 H   0  0  0  1  0  0  0  0  0  0  0  0
    2.3598   -4.4517    0.9757 H   0  0  0  1  0  0  0  0  0  0  0  0
    1.5528   -2.9563    1.3843 H   0  0  0  1  0  0  0  0  0  0  0  0
    3.2978   -4.1094    3.0825 H   0  0  0  1  0  0  0  0  0  0  0  0
    3.1605   -2.3710    2.9669 H   0  0  0  1  0  0  0  0  0  0  0  0
    5.3172   -2.3043    2.2289 H   0  0  0  1  0  0  0  0  0  0  0  0
    5.3884   -2.4553   -0.0732 H   0  0  0  1  0  0  0  0  0  0  0  0
    4.8668   -4.1233   -0.0679 H   0  0  0  1  0  0  0  0  0  0  0  0
    5.1042   -5.1954    2.0811 H   0  0  0  1  0  0  0  0  0  0  0  0
    5.7697   -4.3458    3.2627 H   0  0  0  1  0  0  0  0  0  0  0  0
  1  2  4  0  0  0  0
  1  6  4  0  0  0  0
  1 18  1  0  0  0  0
  2  3  4  0  0  0  0
  3  4  4  0  0  0  0
  3 25  1  0  0  0  0
  4  5  4  0  0  0  0
  4  7  4  0  0  0  0
  5  6  4  0  0  0  0
  5  9  4  0  0  0  0
  7  8  4  0  0  0  0
  7 26  1  0  0  0  0
  8  9  4  0  0  0  0
  9 10  1  0  0  0  0
 10 11  4  0  0  0  0
 10 15  4  0  0  0  0
 11 12  4  0  0  0  0
 11 27  1  0  0  0  0
 12 13  4  0  0  0  0
 12 28  1  0  0  0  0
 13 14  4  0  0  0  0
 13 16  1  0  0  0  0
 14 15  4  0  0  0  0
 14 29  1  0  0  0  0
 15 30  1  0  0  0  0
 16 17  1  0  0  0  0
 17 31  1  0  0  0  0
 17 32  1  0  0  0  0
 17 33  1  0  0  0  0
 18 19  1  0  0  0  0
 18 34  1  0  0  0  0
 19 20  1  0  0  0  0
 19 23  1  0  0  0  0
 19 35  1  0  0  0  0
 20 21  1  0  0  0  0
 20 36  1  0  0  0  0
 20 37  1  0  0  0  0
 21 22  1  0  0  0  0
 21 38  1  0  0  0  0
 21 39  1  0  0  0  0
 22 23  1  0  0  0  0
 22 24  1  0  0  0  0
 22 40  1  0  0  0  0
 23 41  1  0  0  0  0
 23 42  1  0  0  0  0
 24 43  1  0  0  0  0
 24 44  1  0  0  0  0
M  END
> <ConfClashScore>
0 

> <ConfOneFourInteractionScore>
-0.985399 

> <ConfScore>
0.0129357 

> <ConfScorePBest>
0.00231373 

> <ConfTolerance>
0.452187 

$$$$
c22.sdf
 OpenBabel04162418103D

 44 47  0  0  0  0  0  0  0  0999 V2000
    1.9452   -0.6101    0.1255 C   0  0  0  1  0  0  0  0  0  0  0  0
    2.0363    0.7234    0.1481 N   0  0  0  1  0  0  0  0  0  0  0  0
    0.8946    1.4376    0.0881 C   0  0  0  1  0  0  0  0  0  0  0  0
   -0.3452    0.7386    0.0096 C   0  0  0  1  0  0  0  0  0  0  0  0
   -0.2527   -0.6477    0.0019 C   0  0  0  1  0  0  0  0  0  0  0  0
    0.8779   -1.3912    0.0539 N   0  0  0  1  0  0  0  0  0  0  0  0
   -1.7303    0.9921   -0.0538 C   0  0  0  1  0  0  0  0  0  0  0  0
   -2.4281   -0.1192   -0.1029 N   0  0  0  1  0  0  0  0  0  0  0  0
   -1.5125   -1.1342   -0.0681 N   0  0  0  1  0  0  0  0  0  0  0  0
   -1.8415   -2.5179   -0.1013 C   0  0  0  1  0  0  0  0  0  0  0  0
   -0.9818   -3.4461    0.4552 C   0  0  0  1  0  0  0  0  0  0  0  0
   -1.3049   -4.7937    0.4276 C   0  0  0  1  0  0  0  0  0  0  0  0
   -2.4841   -5.2099   -0.1611 C   0  0  0  1  0  0  0  0  0  0  0  0
   -3.3462   -4.2789   -0.7193 C   0  0  0  1  0  0  0  0  0  0  0  0
   -3.0242   -2.9350   -0.6919 C   0  0  0  1  0  0  0  0  0  0  0  0
   -2.7095   -6.5412   -0.2647 O   0  0  0  1  0  0  0  0  0  0  0  0
   -1.6953   -7.4202    0.2462 C   0  0  0  1  0  0  0  0  0  0  0  0
    3.1258   -1.2628    0.1851 N   0  0  0  1  0  0  0  0  0  0  0  0
    3.2654   -2.7140    0.0355 C   0  0  0  1  0  0  0  0  0  0  0  0
    2.5107   -3.4671    1.1387 C   0  0  0  1  0  0  0  0  0  0  0  0
    3.4051   -3.3517    2.3668 C   0  0  0  1  0  0  0  0  0  0  0  0
    4.8344   -3.2538    1.8211 C   0  0  0  1  0  0  0  0  0  0  0  0
    4.7051   -3.1674    0.2921 C   0  0  0  1  0  0  0  0  0  0  0  0
    5.6162   -4.4593    2.2048 N   0  0  0  1  0  0  0  0  0  0  0  0
    0.9178    2.4773    0.0987 H   0  0  0  1  0  0  0  0  0  0  0  0
   -2.1490    1.9441   -0.0608 H   0  0  0  1  0  0  0  0  0  0  0  0
   -0.0926   -3.1333    0.8946 H   0  0  0  1  0  0  0  0  0  0  0  0
   -0.6600   -5.4918    0.8499 H   0  0  0  1  0  0  0  0  0  0  0  0
   -4.2354   -4.5915   -1.1588 H   0  0  0  1  0  0  0  0  0  0  0  0
   -3.6691   -2.2370   -1.1142 H   0  0  0  1  0  0  0  0  0  0  0  0
   -2.0092   -8.4359    0.1259 H   0  0  0  1  0  0  0  0  0  0  0  0
   -1.5375   -7.2166    1.2849 H   0  0  0  1  0  0  0  0  0  0  0  0
   -0.7835   -7.2628   -0.2911 H   0  0  0  1  0  0  0  0  0  0  0  0
    3.9372   -0.7348    0.3373 H   0  0  0  1  0  0  0  0  0  0  0  0
    2.9305   -3.0067   -0.9377 H   0  0  0  1  0  0  0  0  0  0  0  0
    2.3720   -4.4929    0.8681 H   0  0  0  1  0  0  0  0  0  0  0  0
    1.5587   -3.0139    1.3214 H   0  0  0  1  0  0  0  0  0  0  0  0
    3.3002   -4.2160    2.9887 H   0  0  0  1  0  0  0  0  0  0  0  0
    3.1581   -2.4752    2.9287 H   0  0  0  1  0  0  0  0  0  0  0  0
    5.3177   -2.3785    2.2022 H   0  0  0  1  0  0  0  0  0  0  0  0
    4.8822   -4.1239   -0.1539 H   0  0  0  1  0  0  0  0  0  0  0  0
    5.3987   -2.4550   -0.1033 H   0  0  0  1  0  0  0  0  0  0  0  0
    5.2494   -5.2456    1.7492 H   0  0  0  1  0  0  0  0  0  0  0  0
    5.5615   -4.5888    3.1747 H   0  0  0  1  0  0  0  0  0  0  0  0
  1  2  4  0  0  0  0
  1  6  4  0  0  0  0
  1 18  1  0  0  0  0
  2  3  4  0  0  0  0
  3  4  4  0  0  0  0
  3 25  1  0  0  0  0
  4  5  4  0  0  0  0
  4  7  4  0  0  0  0
  5  6  4  0  0  0  0
  5  9  4  0  0  0  0
  7  8  4  0  0  0  0
  7 26  1  0  0  0  0
  8  9  4  0  0  0  0
  9 10  1  0  0  0  0
 10 11  4  0  0  0  0
 10 15  4  0  0  0  0
 11 12  4  0  0  0  0
 11 27  1  0  0  0  0
 12 13  4  0  0  0  0
 12 28  1  0  0  0  0
 13 14  4  0  0  0  0
 13 16  1  0  0  0  0
 14 15  4  0  0  0  0
 14 29  1  0  0  0  0
 15 30  1  0  0  0  0
 16 17  1  0  0  0  0
 17 31  1  0  0  0  0
 17 32  1  0  0  0  0
 17 33  1  0  0  0  0
 18 19  1  0  0  0  0
 18 34  1  0  0  0  0
 19 20  1  0  0  0  0
 19 23  1  0  0  0  0
 19 35  1  0  0  0  0
 20 21  1  0  0  0  0
 20 36  1  0  0  0  0
 20 37  1  0  0  0  0
 21 22  1  0  0  0  0
 21 38  1  0  0  0  0
 21 39  1  0  0  0  0
 22 23  1  0  0  0  0
 22 24  1  0  0  0  0
 22 40  1  0  0  0  0
 23 41  1  0  0  0  0
 23 42  1  0  0  0  0
 24 43  1  0  0  0  0
 24 44  1  0  0  0  0
M  END
> <ConfClashScore>
0 

> <ConfOneFourInteractionScore>
-0.985399 

> <ConfScore>
0.0129357 

> <ConfScorePBest>
0.0023004 

> <ConfTolerance>
0.502405 

$$$$
c22.sdf
 OpenBabel04162418103D

 44 47  0  0  0  0  0  0  0  0999 V2000
    1.9452   -0.6102    0.1256 C   0  0  0  1  0  0  0  0  0  0  0  0
    2.0363    0.7233    0.1482 N   0  0  0  1  0  0  0  0  0  0  0  0
    0.8946    1.4376    0.0881 C   0  0  0  1  0  0  0  0  0  0  0  0
   -0.3452    0.7386    0.0096 C   0  0  0  1  0  0  0  0  0  0  0  0
   -0.2528   -0.6478    0.0020 C   0  0  0  1  0  0  0  0  0  0  0  0
    0.8780   -1.3913    0.0539 N   0  0  0  1  0  0  0  0  0  0  0  0
   -1.7303    0.9921   -0.0538 C   0  0  0  1  0  0  0  0  0  0  0  0
   -2.4281   -0.1192   -0.1028 N   0  0  0  1  0  0  0  0  0  0  0  0
   -1.5125   -1.1342   -0.0681 N   0  0  0  1  0  0  0  0  0  0  0  0
   -1.8419   -2.5193   -0.1014 C   0  0  0  1  0  0  0  0  0  0  0  0
   -3.0252   -2.9344   -0.6822 C   0  0  0  1  0  0  0  0  0  0  0  0
   -3.3433   -4.2831   -0.7193 C   0  0  0  1  0  0  0  0  0  0  0  0
   -2.4795   -5.2122   -0.1707 C   0  0  0  1  0  0  0  0  0  0  0  0
   -1.2927   -4.7957    0.4119 C   0  0  0  1  0  0  0  0  0  0  0  0
   -0.9754   -3.4510    0.4489 C   0  0  0  1  0  0  0  0  0  0  0  0
   -2.6845   -6.5505   -0.1432 O   0  0  0  1  0  0  0  0  0  0  0  0
   -3.9399   -7.0327   -0.6474 C   0  0  0  1  0  0  0  0  0  0  0  0
    3.1404   -1.2709    0.1858 N   0  0  0  1  0  0  0  0  0  0  0  0
    4.4191   -0.5560    0.1365 C   0  0  0  1  0  0  0  0  0  0  0  0
    4.5092    0.2825   -1.1430 C   0  0  0  1  0  0  0  0  0  0  0  0
    5.9698    0.1946   -1.5538 C   0  0  0  1  0  0  0  0  0  0  0  0
    6.2994   -1.2697   -1.2443 C   0  0  0  1  0  0  0  0  0  0  0  0
    5.5839   -1.5534    0.0793 C   0  0  0  1  0  0  0  0  0  0  0  0
    7.7532   -1.4563   -1.1000 N   0  0  0  1  0  0  0  0  0  0  0  0
    0.9179    2.4772    0.0988 H   0  0  0  1  0  0  0  0  0  0  0  0
   -2.1490    1.9441   -0.0607 H   0  0  0  1  0  0  0  0  0  0  0  0
   -3.6771   -2.2349   -1.0914 H   0  0  0  1  0  0  0  0  0  0  0  0
   -4.2319   -4.5958   -1.1600 H   0  0  0  1  0  0  0  0  0  0  0  0
   -0.6408   -5.4952    0.8211 H   0  0  0  1  0  0  0  0  0  0  0  0
   -0.0868   -3.1382    0.8896 H   0  0  0  1  0  0  0  0  0  0  0  0
   -4.0775   -6.6885   -1.6512 H   0  0  0  1  0  0  0  0  0  0  0  0
   -4.7353   -6.6659   -0.0328 H   0  0  0  1  0  0  0  0  0  0  0  0
   -3.9422   -8.1025   -0.6339 H   0  0  0  1  0  0  0  0  0  0  0  0
    3.1424   -2.2478    0.2641 H   0  0  0  1  0  0  0  0  0  0  0  0
    4.5108    0.0719    0.9981 H   0  0  0  1  0  0  0  0  0  0  0  0
    4.2311    1.2976   -0.9502 H   0  0  0  1  0  0  0  0  0  0  0  0
    3.8770   -0.1223   -1.9055 H   0  0  0  1  0  0  0  0  0  0  0  0
    6.0945    0.4096   -2.5946 H   0  0  0  1  0  0  0  0  0  0  0  0
    6.5768    0.8602   -0.9764 H   0  0  0  1  0  0  0  0  0  0  0  0
    5.9320   -1.9115   -2.0176 H   0  0  0  1  0  0  0  0  0  0  0  0
    5.2169   -2.5583    0.0982 H   0  0  0  1  0  0  0  0  0  0  0  0
    6.2482   -1.4002    0.9040 H   0  0  0  1  0  0  0  0  0  0  0  0
    8.0946   -0.8471   -0.4125 H   0  0  0  1  0  0  0  0  0  0  0  0
    8.1934   -1.2640   -1.9543 H   0  0  0  1  0  0  0  0  0  0  0  0
  1  2  4  0  0  0  0
  1  6  4  0  0  0  0
  1 18  1  0  0  0  0
  2  3  4  0  0  0  0
  3  4  4  0  0  0  0
  3 25  1  0  0  0  0
  4  5  4  0  0  0  0
  4  7  4  0  0  0  0
  5  6  4  0  0  0  0
  5  9  4  0  0  0  0
  7  8  4  0  0  0  0
  7 26  1  0  0  0  0
  8  9  4  0  0  0  0
  9 10  1  0  0  0  0
 10 11  4  0  0  0  0
 10 15  4  0  0  0  0
 11 12  4  0  0  0  0
 11 27  1  0  0  0  0
 12 13  4  0  0  0  0
 12 28  1  0  0  0  0
 13 14  4  0  0  0  0
 13 16  1  0  0  0  0
 14 15  4  0  0  0  0
 14 29  1  0  0  0  0
 15 30  1  0  0  0  0
 16 17  1  0  0  0  0
 17 31  1  0  0  0  0
 17 32  1  0  0  0  0
 17 33  1  0  0  0  0
 18 19  1  0  0  0  0
 18 34  1  0  0  0  0
 19 20  1  0  0  0  0
 19 23  1  0  0  0  0
 19 35  1  0  0  0  0
 20 21  1  0  0  0  0
 20 36  1  0  0  0  0
 20 37  1  0  0  0  0
 21 22  1  0  0  0  0
 21 38  1  0  0  0  0
 21 39  1  0  0  0  0
 22 23  1  0  0  0  0
 22 24  1  0  0  0  0
 22 40  1  0  0  0  0
 23 41  1  0  0  0  0
 23 42  1  0  0  0  0
 24 43  1  0  0  0  0
 24 44  1  0  0  0  0
M  END
> <ConfClashScore>
0 

> <ConfOneFourInteractionScore>
-0.985399 

> <ConfScore>
0.0129357 

> <ConfScorePBest>
0.00228707 

> <ConfTolerance>
0.380878 

$$$$
c22.sdf
 OpenBabel04162418103D

 44 47  0  0  0  0  0  0  0  0999 V2000
    1.9452   -0.6102    0.1255 C   0  0  0  1  0  0  0  0  0  0  0  0
    2.0363    0.7232    0.1481 N   0  0  0  1  0  0  0  0  0  0  0  0
    0.8946    1.4376    0.0881 C   0  0  0  1  0  0  0  0  0  0  0  0
   -0.3452    0.7386    0.0096 C   0  0  0  1  0  0  0  0  0  0  0  0
   -0.2528   -0.6477    0.0020 C   0  0  0  1  0  0  0  0  0  0  0  0
    0.8779   -1.3913    0.0538 N   0  0  0  1  0  0  0  0  0  0  0  0
   -1.7303    0.9921   -0.0538 C   0  0  0  1  0  0  0  0  0  0  0  0
   -2.4282   -0.1191   -0.1028 N   0  0  0  1  0  0  0  0  0  0  0  0
   -1.5125   -1.1342   -0.0681 N   0  0  0  1  0  0  0  0  0  0  0  0
   -1.8412   -2.5164   -0.1013 C   0  0  0  1  0  0  0  0  0  0  0  0
   -0.9815   -3.4447    0.4549 C   0  0  0  1  0  0  0  0  0  0  0  0
   -1.3047   -4.7924    0.4273 C   0  0  0  1  0  0  0  0  0  0  0  0
   -2.4840   -5.2084   -0.1612 C   0  0  0  1  0  0  0  0  0  0  0  0
   -3.3463   -4.2773   -0.7191 C   0  0  0  1  0  0  0  0  0  0  0  0
   -3.0241   -2.9335   -0.6916 C   0  0  0  1  0  0  0  0  0  0  0  0
   -2.6889   -6.5434   -0.1330 O   0  0  0  1  0  0  0  0  0  0  0  0
   -3.9614   -7.0722   -0.5376 C   0  0  0  1  0  0  0  0  0  0  0  0
    3.1135   -1.2562    0.1844 N   0  0  0  1  0  0  0  0  0  0  0  0
    3.4658   -2.6714    0.0393 C   0  0  0  1  0  0  0  0  0  0  0  0
    4.1710   -3.1749    1.3032 C   0  0  0  1  0  0  0  0  0  0  0  0
    5.2173   -4.1515    0.7919 C   0  0  0  1  0  0  0  0  0  0  0  0
    5.7233   -3.4435   -0.4697 C   0  0  0  1  0  0  0  0  0  0  0  0
    4.4637   -2.8553   -1.1118 C   0  0  0  1  0  0  0  0  0  0  0  0
    6.3815   -4.4175   -1.3938 N   0  0  0  1  0  0  0  0  0  0  0  0
    0.9179    2.4772    0.0988 H   0  0  0  1  0  0  0  0  0  0  0  0
   -2.1489    1.9441   -0.0607 H   0  0  0  1  0  0  0  0  0  0  0  0
   -0.0922   -3.1320    0.8942 H   0  0  0  1  0  0  0  0  0  0  0  0
   -0.6596   -5.4904    0.8494 H   0  0  0  1  0  0  0  0  0  0  0  0
   -4.2356   -4.5899   -1.1583 H   0  0  0  1  0  0  0  0  0  0  0  0
   -3.6691   -2.2354   -1.1136 H   0  0  0  1  0  0  0  0  0  0  0  0
   -3.9978   -8.1196   -0.3220 H   0  0  0  1  0  0  0  0  0  0  0  0
   -4.0928   -6.9198   -1.5885 H   0  0  0  1  0  0  0  0  0  0  0  0
   -4.7416   -6.5712   -0.0037 H   0  0  0  1  0  0  0  0  0  0  0  0
    3.8812   -0.6722    0.3577 H   0  0  0  1  0  0  0  0  0  0  0  0
    2.5799   -3.2430   -0.1434 H   0  0  0  1  0  0  0  0  0  0  0  0
    3.4778   -3.6688    1.9515 H   0  0  0  1  0  0  0  0  0  0  0  0
    4.6340   -2.3643    1.8261 H   0  0  0  1  0  0  0  0  0  0  0  0
    6.0043   -4.2861    1.5042 H   0  0  0  1  0  0  0  0  0  0  0  0
    4.7819   -5.1003    0.5571 H   0  0  0  1  0  0  0  0  0  0  0  0
    6.4156   -2.6681   -0.2160 H   0  0  0  1  0  0  0  0  0  0  0  0
    4.0692   -3.5271   -1.8451 H   0  0  0  1  0  0  0  0  0  0  0  0
    4.6828   -1.9139   -1.5708 H   0  0  0  1  0  0  0  0  0  0  0  0
    6.8223   -3.9313   -2.1216 H   0  0  0  1  0  0  0  0  0  0  0  0
    5.7057   -5.0213   -1.7669 H   0  0  0  1  0  0  0  0  0  0  0  0
  1  2  4  0  0  0  0
  1  6  4  0  0  0  0
  1 18  1  0  0  0  0
  2  3  4  0  0  0  0
  3  4  4  0  0  0  0
  3 25  1  0  0  0  0
  4  5  4  0  0  0  0
  4  7  4  0  0  0  0
  5  6  4  0  0  0  0
  5  9  4  0  0  0  0
  7  8  4  0  0  0  0
  7 26  1  0  0  0  0
  8  9  4  0  0  0  0
  9 10  1  0  0  0  0
 10 11  4  0  0  0  0
 10 15  4  0  0  0  0
 11 12  4  0  0  0  0
 11 27  1  0  0  0  0
 12 13  4  0  0  0  0
 12 28  1  0  0  0  0
 13 14  4  0  0  0  0
 13 16  1  0  0  0  0
 14 15  4  0  0  0  0
 14 29  1  0  0  0  0
 15 30  1  0  0  0  0
 16 17  1  0  0  0  0
 17 31  1  0  0  0  0
 17 32  1  0  0  0  0
 17 33  1  0  0  0  0
 18 19  1  0  0  0  0
 18 34  1  0  0  0  0
 19 20  1  0  0  0  0
 19 23  1  0  0  0  0
 19 35  1  0  0  0  0
 20 21  1  0  0  0  0
 20 36  1  0  0  0  0
 20 37  1  0  0  0  0
 21 22  1  0  0  0  0
 21 38  1  0  0  0  0
 21 39  1  0  0  0  0
 22 23  1  0  0  0  0
 22 24  1  0  0  0  0
 22 40  1  0  0  0  0
 23 41  1  0  0  0  0
 23 42  1  0  0  0  0
 24 43  1  0  0  0  0
 24 44  1  0  0  0  0
M  END
> <ConfClashScore>
0 

> <ConfOneFourInteractionScore>
-0.984337 

> <ConfScore>
0.013489 

> <ConfScorePBest>
0.00227374 

> <ConfTolerance>
0.386057 

$$$$
c22.sdf
 OpenBabel04162418103D

 44 47  0  0  0  0  0  0  0  0999 V2000
    1.9452   -0.6103    0.1256 C   0  0  0  1  0  0  0  0  0  0  0  0
    2.0363    0.7233    0.1482 N   0  0  0  1  0  0  0  0  0  0  0  0
    0.8946    1.4376    0.0881 C   0  0  0  1  0  0  0  0  0  0  0  0
   -0.3453    0.7386    0.0096 C   0  0  0  1  0  0  0  0  0  0  0  0
   -0.2528   -0.6477    0.0020 C   0  0  0  1  0  0  0  0  0  0  0  0
    0.8779   -1.3913    0.0539 N   0  0  0  1  0  0  0  0  0  0  0  0
   -1.7303    0.9921   -0.0538 C   0  0  0  1  0  0  0  0  0  0  0  0
   -2.4282   -0.1191   -0.1028 N   0  0  0  1  0  0  0  0  0  0  0  0
   -1.5126   -1.1342   -0.0681 N   0  0  0  1  0  0  0  0  0  0  0  0
   -1.8397   -2.5099   -0.1011 C   0  0  0  1  0  0  0  0  0  0  0  0
   -3.0165   -2.9261   -0.6944 C   0  0  0  1  0  0  0  0  0  0  0  0
   -3.3345   -4.2749   -0.7314 C   0  0  0  1  0  0  0  0  0  0  0  0
   -2.4774   -5.2028   -0.1703 C   0  0  0  1  0  0  0  0  0  0  0  0
   -1.2972   -4.7850    0.4247 C   0  0  0  1  0  0  0  0  0  0  0  0
   -0.9800   -3.4403    0.4617 C   0  0  0  1  0  0  0  0  0  0  0  0
   -2.8934   -6.4809   -0.2616 O   0  0  0  1  0  0  0  0  0  0  0  0
   -1.9653   -7.4648    0.2515 C   0  0  0  1  0  0  0  0  0  0  0  0
    3.1212   -1.2605    0.1849 N   0  0  0  1  0  0  0  0  0  0  0  0
    3.3115   -2.7129    0.2332 C   0  0  0  1  0  0  0  0  0  0  0  0
    4.5645   -3.0578    1.0465 C   0  0  0  1  0  0  0  0  0  0  0  0
    5.5416   -3.6628    0.0462 C   0  0  0  1  0  0  0  0  0  0  0  0
    4.6525   -4.3175   -1.0190 C   0  0  0  1  0  0  0  0  0  0  0  0
    3.5517   -3.2657   -1.1806 C   0  0  0  1  0  0  0  0  0  0  0  0
    4.0973   -5.6214   -0.5420 N   0  0  0  1  0  0  0  0  0  0  0  0
    0.9179    2.4772    0.0988 H   0  0  0  1  0  0  0  0  0  0  0  0
   -2.1489    1.9441   -0.0608 H   0  0  0  1  0  0  0  0  0  0  0  0
   -3.6634   -2.2277   -1.1129 H   0  0  0  1  0  0  0  0  0  0  0  0
   -4.2181   -4.5886   -1.1814 H   0  0  0  1  0  0  0  0  0  0  0  0
   -0.6503   -5.4836    0.8433 H   0  0  0  1  0  0  0  0  0  0  0  0
   -0.0965   -3.1265    0.9116 H   0  0  0  1  0  0  0  0  0  0  0  0
   -1.0484   -7.4113   -0.2974 H   0  0  0  1  0  0  0  0  0  0  0  0
   -2.3875   -8.4423    0.1458 H   0  0  0  1  0  0  0  0  0  0  0  0
   -1.7736   -7.2686    1.2857 H   0  0  0  1  0  0  0  0  0  0  0  0
    3.9309   -0.7085    0.1971 H   0  0  0  1  0  0  0  0  0  0  0  0
    2.4487   -3.1718    0.6690 H   0  0  0  1  0  0  0  0  0  0  0  0
    4.9789   -2.1754    1.4878 H   0  0  0  1  0  0  0  0  0  0  0  0
    4.3294   -3.7647    1.8145 H   0  0  0  1  0  0  0  0  0  0  0  0
    6.1627   -4.3938    0.5203 H   0  0  0  1  0  0  0  0  0  0  0  0
    6.1546   -2.9019   -0.3898 H   0  0  0  1  0  0  0  0  0  0  0  0
    5.1857   -4.4697   -1.9341 H   0  0  0  1  0  0  0  0  0  0  0  0
    2.6591   -3.7131   -1.5651 H   0  0  0  1  0  0  0  0  0  0  0  0
    3.8724   -2.4854   -1.8388 H   0  0  0  1  0  0  0  0  0  0  0  0
    3.4494   -5.4583    0.1750 H   0  0  0  1  0  0  0  0  0  0  0  0
    4.8261   -6.1817   -0.2022 H   0  0  0  1  0  0  0  0  0  0  0  0
  1  2  4  0  0  0  0
  1  6  4  0  0  0  0
  1 18  1  0  0  0  0
  2  3  4  0  0  0  0
  3  4  4  0  0  0  0
  3 25  1  0  0  0  0
  4  5  4  0  0  0  0
  4  7  4  0  0  0  0
  5  6  4  0  0  0  0
  5  9  4  0  0  0  0
  7  8  4  0  0  0  0
  7 26  1  0  0  0  0
  8  9  4  0  0  0  0
  9 10  1  0  0  0  0
 10 11  4  0  0  0  0
 10 15  4  0  0  0  0
 11 12  4  0  0  0  0
 11 27  1  0  0  0  0
 12 13  4  0  0  0  0
 12 28  1  0  0  0  0
 13 14  4  0  0  0  0
 13 16  1  0  0  0  0
 14 15  4  0  0  0  0
 14 29  1  0  0  0  0
 15 30  1  0  0  0  0
 16 17  1  0  0  0  0
 17 31  1  0  0  0  0
 17 32  1  0  0  0  0
 17 33  1  0  0  0  0
 18 19  1  0  0  0  0
 18 34  1  0  0  0  0
 19 20  1  0  0  0  0
 19 23  1  0  0  0  0
 19 35  1  0  0  0  0
 20 21  1  0  0  0  0
 20 36  1  0  0  0  0
 20 37  1  0  0  0  0
 21 22  1  0  0  0  0
 21 38  1  0  0  0  0
 21 39  1  0  0  0  0
 22 23  1  0  0  0  0
 22 24  1  0  0  0  0
 22 40  1  0  0  0  0
 23 41  1  0  0  0  0
 23 42  1  0  0  0  0
 24 43  1  0  0  0  0
 24 44  1  0  0  0  0
M  END
> <ConfClashScore>
0 

> <ConfOneFourInteractionScore>
-0.984337 

> <ConfScore>
0.0135219 

> <ConfScorePBest>
0.00226041 

> <ConfTolerance>
0.428707 

$$$$
c22.sdf
 OpenBabel04162418103D

 44 47  0  0  0  0  0  0  0  0999 V2000
    1.9453   -0.6102    0.1256 C   0  0  0  1  0  0  0  0  0  0  0  0
    2.0363    0.7233    0.1482 N   0  0  0  1  0  0  0  0  0  0  0  0
    0.8946    1.4375    0.0881 C   0  0  0  1  0  0  0  0  0  0  0  0
   -0.3452    0.7386    0.0096 C   0  0  0  1  0  0  0  0  0  0  0  0
   -0.2529   -0.6477    0.0020 C   0  0  0  1  0  0  0  0  0  0  0  0
    0.8779   -1.3912    0.0539 N   0  0  0  1  0  0  0  0  0  0  0  0
   -1.7304    0.9921   -0.0538 C   0  0  0  1  0  0  0  0  0  0  0  0
   -2.4281   -0.1191   -0.1029 N   0  0  0  1  0  0  0  0  0  0  0  0
   -1.5125   -1.1341   -0.0681 N   0  0  0  1  0  0  0  0  0  0  0  0
   -1.8370   -2.4986   -0.1009 C   0  0  0  1  0  0  0  0  0  0  0  0
   -1.5843   -3.3395   -1.1683 C   0  0  0  1  0  0  0  0  0  0  0  0
   -1.9413   -4.6769   -1.0964 C   0  0  0  1  0  0  0  0  0  0  0  0
   -2.5545   -5.1685    0.0405 C   0  0  0  1  0  0  0  0  0  0  0  0
   -2.8079   -4.3250    1.1111 C   0  0  0  1  0  0  0  0  0  0  0  0
   -2.4520   -2.9914    1.0395 C   0  0  0  1  0  0  0  0  0  0  0  0
   -2.8198   -6.4926    0.1427 O   0  0  0  1  0  0  0  0  0  0  0  0
   -2.2864   -7.3494   -0.8790 C   0  0  0  1  0  0  0  0  0  0  0  0
    3.1213   -1.2604    0.1850 N   0  0  0  1  0  0  0  0  0  0  0  0
    3.3710   -2.7039    0.2262 C   0  0  0  1  0  0  0  0  0  0  0  0
    2.6942   -3.4044   -0.9571 C   0  0  0  1  0  0  0  0  0  0  0  0
    2.6062   -4.8398   -0.4653 C   0  0  0  1  0  0  0  0  0  0  0  0
    2.2407   -4.7158    1.0177 C   0  0  0  1  0  0  0  0  0  0  0  0
    2.7237   -3.3296    1.4648 C   0  0  0  1  0  0  0  0  0  0  0  0
    2.9240   -5.7819    1.8097 N   0  0  0  1  0  0  0  0  0  0  0  0
    0.9179    2.4773    0.0987 H   0  0  0  1  0  0  0  0  0  0  0  0
   -2.1490    1.9441   -0.0609 H   0  0  0  1  0  0  0  0  0  0  0  0
   -1.1265   -2.9687   -2.0253 H   0  0  0  1  0  0  0  0  0  0  0  0
   -1.7476   -5.3106   -1.8980 H   0  0  0  1  0  0  0  0  0  0  0  0
   -3.2656   -4.6958    1.9681 H   0  0  0  1  0  0  0  0  0  0  0  0
   -2.6457   -2.3577    1.8411 H   0  0  0  1  0  0  0  0  0  0  0  0
   -2.6607   -7.0430   -1.8334 H   0  0  0  1  0  0  0  0  0  0  0  0
   -2.5828   -8.3596   -0.6876 H   0  0  0  1  0  0  0  0  0  0  0  0
   -1.2184   -7.2841   -0.8772 H   0  0  0  1  0  0  0  0  0  0  0  0
    3.9193   -0.6917    0.2030 H   0  0  0  1  0  0  0  0  0  0  0  0
    4.4257   -2.8843    0.2191 H   0  0  0  1  0  0  0  0  0  0  0  0
    3.2894   -3.3329   -1.8433 H   0  0  0  1  0  0  0  0  0  0  0  0
    1.7227   -2.9977   -1.1455 H   0  0  0  1  0  0  0  0  0  0  0  0
    1.8488   -5.3760   -0.9978 H   0  0  0  1  0  0  0  0  0  0  0  0
    3.5459   -5.3378   -0.5826 H   0  0  0  1  0  0  0  0  0  0  0  0
    1.1817   -4.7985    1.1465 H   0  0  0  1  0  0  0  0  0  0  0  0
    1.8983   -2.7348    1.7962 H   0  0  0  1  0  0  0  0  0  0  0  0
    3.4390   -3.4198    2.2554 H   0  0  0  1  0  0  0  0  0  0  0  0
    3.8924   -5.7224    1.6712 H   0  0  0  1  0  0  0  0  0  0  0  0
    2.6057   -6.6611    1.5164 H   0  0  0  1  0  0  0  0  0  0  0  0
  1  2  4  0  0  0  0
  1  6  4  0  0  0  0
  1 18  1  0  0  0  0
  2  3  4  0  0  0  0
  3  4  4  0  0  0  0
  3 25  1  0  0  0  0
  4  5  4  0  0  0  0
  4  7  4  0  0  0  0
  5  6  4  0  0  0  0
  5  9  4  0  0  0  0
  7  8  4  0  0  0  0
  7 26  1  0  0  0  0
  8  9  4  0  0  0  0
  9 10  1  0  0  0  0
 10 11  4  0  0  0  0
 10 15  4  0  0  0  0
 11 12  4  0  0  0  0
 11 27  1  0  0  0  0
 12 13  4  0  0  0  0
 12 28  1  0  0  0  0
 13 14  4  0  0  0  0
 13 16  1  0  0  0  0
 14 15  4  0  0  0  0
 14 29  1  0  0  0  0
 15 30  1  0  0  0  0
 16 17  1  0  0  0  0
 17 31  1  0  0  0  0
 17 32  1  0  0  0  0
 17 33  1  0  0  0  0
 18 19  1  0  0  0  0
 18 34  1  0  0  0  0
 19 20  1  0  0  0  0
 19 23  1  0  0  0  0
 19 35  1  0  0  0  0
 20 21  1  0  0  0  0
 20 36  1  0  0  0  0
 20 37  1  0  0  0  0
 21 22  1  0  0  0  0
 21 38  1  0  0  0  0
 21 39  1  0  0  0  0
 22 23  1  0  0  0  0
 22 24  1  0  0  0  0
 22 40  1  0  0  0  0
 23 41  1  0  0  0  0
 23 42  1  0  0  0  0
 24 43  1  0  0  0  0
 24 44  1  0  0  0  0
M  END
> <ConfClashScore>
0 

> <ConfOneFourInteractionScore>
-0.980204 

> <ConfScore>
0.0150163 

> <ConfScorePBest>
0.00224709 

> <ConfTolerance>
0.325417 

$$$$
c22.sdf
 OpenBabel04162418103D

 44 47  0  0  0  0  0  0  0  0999 V2000
    1.9452   -0.6102    0.1256 C   0  0  0  1  0  0  0  0  0  0  0  0
    2.0363    0.7233    0.1482 N   0  0  0  1  0  0  0  0  0  0  0  0
    0.8945    1.4376    0.0881 C   0  0  0  1  0  0  0  0  0  0  0  0
   -0.3453    0.7386    0.0096 C   0  0  0  1  0  0  0  0  0  0  0  0
   -0.2529   -0.6478    0.0021 C   0  0  0  1  0  0  0  0  0  0  0  0
    0.8779   -1.3912    0.0540 N   0  0  0  1  0  0  0  0  0  0  0  0
   -1.7303    0.9921   -0.0538 C   0  0  0  1  0  0  0  0  0  0  0  0
   -2.4281   -0.1191   -0.1028 N   0  0  0  1  0  0  0  0  0  0  0  0
   -1.5125   -1.1341   -0.0681 N   0  0  0  1  0  0  0  0  0  0  0  0
   -1.8386   -2.5051   -0.1009 C   0  0  0  1  0  0  0  0  0  0  0  0
   -0.9801   -3.4816    0.3679 C   0  0  0  1  0  0  0  0  0  0  0  0
   -1.3536   -4.8154    0.3165 C   0  0  0  1  0  0  0  0  0  0  0  0
   -2.5822   -5.1694   -0.2086 C   0  0  0  1  0  0  0  0  0  0  0  0
   -3.4431   -4.1900   -0.6788 C   0  0  0  1  0  0  0  0  0  0  0  0
   -3.0707   -2.8599   -0.6275 C   0  0  0  1  0  0  0  0  0  0  0  0
   -2.8331   -6.4930   -0.2115 O   0  0  0  1  0  0  0  0  0  0  0  0
   -4.0389   -6.8861   -0.9073 C   0  0  0  1  0  0  0  0  0  0  0  0
    3.1285   -1.2644    0.1853 N   0  0  0  1  0  0  0  0  0  0  0  0
    4.4192   -0.6015    0.3968 C   0  0  0  1  0  0  0  0  0  0  0  0
    5.4104   -0.9977   -0.7010 C   0  0  0  1  0  0  0  0  0  0  0  0
    6.1863   -2.1800   -0.1104 C   0  0  0  1  0  0  0  0  0  0  0  0
    6.3808   -1.7408    1.3315 C   0  0  0  1  0  0  0  0  0  0  0  0
    5.0551   -1.0727    1.7115 C   0  0  0  1  0  0  0  0  0  0  0  0
    7.4988   -0.7805    1.4383 N   0  0  0  1  0  0  0  0  0  0  0  0
    0.9179    2.4772    0.0988 H   0  0  0  1  0  0  0  0  0  0  0  0
   -2.1490    1.9441   -0.0608 H   0  0  0  1  0  0  0  0  0  0  0  0
   -0.0541   -3.2154    0.7594 H   0  0  0  1  0  0  0  0  0  0  0  0
   -0.7094   -5.5498    0.6730 H   0  0  0  1  0  0  0  0  0  0  0  0
   -4.3692   -4.4560   -1.0702 H   0  0  0  1  0  0  0  0  0  0  0  0
   -3.7150   -2.1254   -0.9841 H   0  0  0  1  0  0  0  0  0  0  0  0
   -4.0922   -7.9537   -0.9544 H   0  0  0  1  0  0  0  0  0  0  0  0
   -4.0244   -6.4857   -1.8994 H   0  0  0  1  0  0  0  0  0  0  0  0
   -4.8919   -6.5095   -0.3826 H   0  0  0  1  0  0  0  0  0  0  0  0
    3.1223   -2.2389    0.0812 H   0  0  0  1  0  0  0  0  0  0  0  0
    4.2783    0.4591    0.4085 H   0  0  0  1  0  0  0  0  0  0  0  0
    6.0709   -0.1861   -0.9245 H   0  0  0  1  0  0  0  0  0  0  0  0
    4.8924   -1.2917   -1.5898 H   0  0  0  1  0  0  0  0  0  0  0  0
    5.6186   -3.0852   -0.1679 H   0  0  0  1  0  0  0  0  0  0  0  0
    7.1251   -2.3152   -0.6057 H   0  0  0  1  0  0  0  0  0  0  0  0
    6.5731   -2.5844    1.9609 H   0  0  0  1  0  0  0  0  0  0  0  0
    4.4140   -1.7745    2.2027 H   0  0  0  1  0  0  0  0  0  0  0  0
    5.2325   -0.2382    2.3573 H   0  0  0  1  0  0  0  0  0  0  0  0
    7.3560   -0.0411    0.8113 H   0  0  0  1  0  0  0  0  0  0  0  0
    8.3403   -1.2339    1.2222 H   0  0  0  1  0  0  0  0  0  0  0  0
  1  2  4  0  0  0  0
  1  6  4  0  0  0  0
  1 18  1  0  0  0  0
  2  3  4  0  0  0  0
  3  4  4  0  0  0  0
  3 25  1  0  0  0  0
  4  5  4  0  0  0  0
  4  7  4  0  0  0  0
  5  6  4  0  0  0  0
  5  9  4  0  0  0  0
  7  8  4  0  0  0  0
  7 26  1  0  0  0  0
  8  9  4  0  0  0  0
  9 10  1  0  0  0  0
 10 11  4  0  0  0  0
 10 15  4  0  0  0  0
 11 12  4  0  0  0  0
 11 27  1  0  0  0  0
 12 13  4  0  0  0  0
 12 28  1  0  0  0  0
 13 14  4  0  0  0  0
 13 16  1  0  0  0  0
 14 15  4  0  0  0  0
 14 29  1  0  0  0  0
 15 30  1  0  0  0  0
 16 17  1  0  0  0  0
 17 31  1  0  0  0  0
 17 32  1  0  0  0  0
 17 33  1  0  0  0  0
 18 19  1  0  0  0  0
 18 34  1  0  0  0  0
 19 20  1  0  0  0  0
 19 23  1  0  0  0  0
 19 35  1  0  0  0  0
 20 21  1  0  0  0  0
 20 36  1  0  0  0  0
 20 37  1  0  0  0  0
 21 22  1  0  0  0  0
 21 38  1  0  0  0  0
 21 39  1  0  0  0  0
 22 23  1  0  0  0  0
 22 24  1  0  0  0  0
 22 40  1  0  0  0  0
 23 41  1  0  0  0  0
 23 42  1  0  0  0  0
 24 43  1  0  0  0  0
 24 44  1  0  0  0  0
M  END
> <ConfClashScore>
0 

> <ConfOneFourInteractionScore>
-0.984337 

> <ConfScore>
0.0164914 

> <ConfScorePBest>
0.00223376 

> <ConfTolerance>
0.447307 

$$$$
c22.sdf
 OpenBabel04162418103D

 44 47  0  0  0  0  0  0  0  0999 V2000
    1.9452   -0.6102    0.1255 C   0  0  0  1  0  0  0  0  0  0  0  0
    2.0362    0.7233    0.1481 N   0  0  0  1  0  0  0  0  0  0  0  0
    0.8946    1.4376    0.0881 C   0  0  0  1  0  0  0  0  0  0  0  0
   -0.3452    0.7386    0.0096 C   0  0  0  1  0  0  0  0  0  0  0  0
   -0.2529   -0.6478    0.0020 C   0  0  0  1  0  0  0  0  0  0  0  0
    0.8779   -1.3912    0.0538 N   0  0  0  1  0  0  0  0  0  0  0  0
   -1.7304    0.9921   -0.0538 C   0  0  0  1  0  0  0  0  0  0  0  0
   -2.4281   -0.1191   -0.1028 N   0  0  0  1  0  0  0  0  0  0  0  0
   -1.5125   -1.1341   -0.0681 N   0  0  0  1  0  0  0  0  0  0  0  0
   -1.8419   -2.5193   -0.1013 C   0  0  0  1  0  0  0  0  0  0  0  0
   -1.3542   -3.3690    0.8735 C   0  0  0  1  0  0  0  0  0  0  0  0
   -1.6792   -4.7162    0.8441 C   0  0  0  1  0  0  0  0  0  0  0  0
   -2.4865   -5.2107   -0.1627 C   0  0  0  1  0  0  0  0  0  0  0  0
   -2.9756   -4.3583   -1.1404 C   0  0  0  1  0  0  0  0  0  0  0  0
   -2.6516   -3.0149   -1.1113 C   0  0  0  1  0  0  0  0  0  0  0  0
   -2.8659   -6.5037   -0.2976 O   0  0  0  1  0  0  0  0  0  0  0  0
   -2.3707   -7.4377    0.6744 C   0  0  0  1  0  0  0  0  0  0  0  0
    3.1256   -1.2628    0.1851 N   0  0  0  1  0  0  0  0  0  0  0  0
    3.2544   -2.7207    0.1566 C   0  0  0  1  0  0  0  0  0  0  0  0
    4.7201   -3.1244    0.0558 C   0  0  0  1  0  0  0  0  0  0  0  0
    4.7080   -4.4390   -0.7351 C   0  0  0  1  0  0  0  0  0  0  0  0
    3.6602   -4.1347   -1.8092 C   0  0  0  1  0  0  0  0  0  0  0  0
    2.5875   -3.2936   -1.0993 C   0  0  0  1  0  0  0  0  0  0  0  0
    3.0685   -5.4005   -2.3367 N   0  0  0  1  0  0  0  0  0  0  0  0
    0.9179    2.4772    0.0987 H   0  0  0  1  0  0  0  0  0  0  0  0
   -2.1490    1.9441   -0.0607 H   0  0  0  1  0  0  0  0  0  0  0  0
   -0.7434   -2.9976    1.6289 H   0  0  0  1  0  0  0  0  0  0  0  0
   -1.3155   -5.3549    1.5800 H   0  0  0  1  0  0  0  0  0  0  0  0
   -3.5864   -4.7296   -1.8958 H   0  0  0  1  0  0  0  0  0  0  0  0
   -3.0153   -2.3763   -1.8470 H   0  0  0  1  0  0  0  0  0  0  0  0
   -1.4391   -7.8426    0.3382 H   0  0  0  1  0  0  0  0  0  0  0  0
   -3.0788   -8.2299    0.8006 H   0  0  0  1  0  0  0  0  0  0  0  0
   -2.2251   -6.9365    1.6085 H   0  0  0  1  0  0  0  0  0  0  0  0
    3.9448   -0.7290    0.2513 H   0  0  0  1  0  0  0  0  0  0  0  0
    2.8116   -3.1355    1.0380 H   0  0  0  1  0  0  0  0  0  0  0  0
    5.1381   -3.2738    1.0293 H   0  0  0  1  0  0  0  0  0  0  0  0
    5.2824   -2.3768   -0.4635 H   0  0  0  1  0  0  0  0  0  0  0  0
    4.4106   -5.2628   -0.1206 H   0  0  0  1  0  0  0  0  0  0  0  0
    5.6646   -4.6437   -1.1686 H   0  0  0  1  0  0  0  0  0  0  0  0
    4.0978   -3.5822   -2.6143 H   0  0  0  1  0  0  0  0  0  0  0  0
    1.7538   -3.9074   -0.8291 H   0  0  0  1  0  0  0  0  0  0  0  0
    2.2557   -2.5011   -1.7371 H   0  0  0  1  0  0  0  0  0  0  0  0
    3.7750   -5.9509   -2.7345 H   0  0  0  1  0  0  0  0  0  0  0  0
    2.3975   -5.1878   -3.0186 H   0  0  0  1  0  0  0  0  0  0  0  0
  1  2  4  0  0  0  0
  1  6  4  0  0  0  0
  1 18  1  0  0  0  0
  2  3  4  0  0  0  0
  3  4  4  0  0  0  0
  3 25  1  0  0  0  0
  4  5  4  0  0  0  0
  4  7  4  0  0  0  0
  5  6  4  0  0  0  0
  5  9  4  0  0  0  0
  7  8  4  0  0  0  0
  7 26  1  0  0  0  0
  8  9  4  0  0  0  0
  9 10  1  0  0  0  0
 10 11  4  0  0  0  0
 10 15  4  0  0  0  0
 11 12  4  0  0  0  0
 11 27  1  0  0  0  0
 12 13  4  0  0  0  0
 12 28  1  0  0  0  0
 13 14  4  0  0  0  0
 13 16  1  0  0  0  0
 14 15  4  0  0  0  0
 14 29  1  0  0  0  0
 15 30  1  0  0  0  0
 16 17  1  0  0  0  0
 17 31  1  0  0  0  0
 17 32  1  0  0  0  0
 17 33  1  0  0  0  0
 18 19  1  0  0  0  0
 18 34  1  0  0  0  0
 19 20  1  0  0  0  0
 19 23  1  0  0  0  0
 19 35  1  0  0  0  0
 20 21  1  0  0  0  0
 20 36  1  0  0  0  0
 20 37  1  0  0  0  0
 21 22  1  0  0  0  0
 21 38  1  0  0  0  0
 21 39  1  0  0  0  0
 22 23  1  0  0  0  0
 22 24  1  0  0  0  0
 22 40  1  0  0  0  0
 23 41  1  0  0  0  0
 23 42  1  0  0  0  0
 24 43  1  0  0  0  0
 24 44  1  0  0  0  0
M  END
> <ConfClashScore>
0 

> <ConfOneFourInteractionScore>
-0.985399 

> <ConfScore>
0.0169228 

> <ConfScorePBest>
0.00222043 

> <ConfTolerance>
0.399718 

$$$$
c22.sdf
 OpenBabel04162418103D

 44 47  0  0  0  0  0  0  0  0999 V2000
    1.9452   -0.6102    0.1256 C   0  0  0  1  0  0  0  0  0  0  0  0
    2.0363    0.7234    0.1481 N   0  0  0  1  0  0  0  0  0  0  0  0
    0.8946    1.4376    0.0881 C   0  0  0  1  0  0  0  0  0  0  0  0
   -0.3452    0.7386    0.0096 C   0  0  0  1  0  0  0  0  0  0  0  0
   -0.2528   -0.6478    0.0020 C   0  0  0  1  0  0  0  0  0  0  0  0
    0.8780   -1.3913    0.0540 N   0  0  0  1  0  0  0  0  0  0  0  0
   -1.7304    0.9921   -0.0538 C   0  0  0  1  0  0  0  0  0  0  0  0
   -2.4282   -0.1191   -0.1028 N   0  0  0  1  0  0  0  0  0  0  0  0
   -1.5126   -1.1342   -0.0681 N   0  0  0  1  0  0  0  0  0  0  0  0
   -1.8418   -2.5192   -0.1013 C   0  0  0  1  0  0  0  0  0  0  0  0
   -2.4643   -3.0550   -1.2128 C   0  0  0  1  0  0  0  0  0  0  0  0
   -2.7800   -4.4043   -1.2472 C   0  0  0  1  0  0  0  0  0  0  0  0
   -2.4772   -5.2128   -0.1680 C   0  0  0  1  0  0  0  0  0  0  0  0
   -1.8528   -4.6753    0.9469 C   0  0  0  1  0  0  0  0  0  0  0  0
   -1.5380   -3.3299    0.9814 C   0  0  0  1  0  0  0  0  0  0  0  0
   -2.7633   -6.5361   -0.1360 O   0  0  0  1  0  0  0  0  0  0  0  0
   -3.3144   -7.1173   -1.3281 C   0  0  0  1  0  0  0  0  0  0  0  0
    3.1213   -1.2604    0.1850 N   0  0  0  1  0  0  0  0  0  0  0  0
    3.3196   -2.6955    0.0838 C   0  0  0  1  0  0  0  0  0  0  0  0
    4.8260   -2.9839   -0.0619 C   0  0  0  1  0  0  0  0  0  0  0  0
    4.5981   -4.3175   -0.7916 C   0  0  0  1  0  0  0  0  0  0  0  0
    3.5508   -4.0496   -1.9021 C   0  0  0  1  0  0  0  0  0  0  0  0
    2.5240   -3.2273   -1.1254 C   0  0  0  1  0  0  0  0  0  0  0  0
    2.9652   -5.3103   -2.4171 N   0  0  0  1  0  0  0  0  0  0  0  0
    0.9179    2.4772    0.0988 H   0  0  0  1  0  0  0  0  0  0  0  0
   -2.1490    1.9441   -0.0609 H   0  0  0  1  0  0  0  0  0  0  0  0
   -2.6959   -2.4458   -2.0234 H   0  0  0  1  0  0  0  0  0  0  0  0
   -3.2449   -4.8083   -2.0853 H   0  0  0  1  0  0  0  0  0  0  0  0
   -1.6214   -5.2844    1.7574 H   0  0  0  1  0  0  0  0  0  0  0  0
   -1.0732   -2.9258    1.8194 H   0  0  0  1  0  0  0  0  0  0  0  0
   -4.0859   -6.4825   -1.7111 H   0  0  0  1  0  0  0  0  0  0  0  0
   -3.7246   -8.0786   -1.0991 H   0  0  0  1  0  0  0  0  0  0  0  0
   -2.5432   -7.2236   -2.0622 H   0  0  0  1  0  0  0  0  0  0  0  0
    3.9237   -0.7114    0.3087 H   0  0  0  1  0  0  0  0  0  0  0  0
    2.9593   -3.1695    0.9729 H   0  0  0  1  0  0  0  0  0  0  0  0
    5.3398   -2.2584   -0.6575 H   0  0  0  1  0  0  0  0  0  0  0  0
    5.3280   -3.0956    0.8764 H   0  0  0  1  0  0  0  0  0  0  0  0
    4.2289   -5.0527   -0.1074 H   0  0  0  1  0  0  0  0  0  0  0  0
    5.5141   -4.6610   -1.2250 H   0  0  0  1  0  0  0  0  0  0  0  0
    3.9700   -3.4925   -2.7137 H   0  0  0  1  0  0  0  0  0  0  0  0
    1.7079   -3.8408   -0.8048 H   0  0  0  1  0  0  0  0  0  0  0  0
    2.1517   -2.4206   -1.7216 H   0  0  0  1  0  0  0  0  0  0  0  0
    2.6217   -5.8412   -1.6686 H   0  0  0  1  0  0  0  0  0  0  0  0
    3.6550   -5.8211   -2.8902 H   0  0  0  1  0  0  0  0  0  0  0  0
  1  2  4  0  0  0  0
  1  6  4  0  0  0  0
  1 18  1  0  0  0  0
  2  3  4  0  0  0  0
  3  4  4  0  0  0  0
  3 25  1  0  0  0  0
  4  5  4  0  0  0  0
  4  7  4  0  0  0  0
  5  6  4  0  0  0  0
  5  9  4  0  0  0  0
  7  8  4  0  0  0  0
  7 26  1  0  0  0  0
  8  9  4  0  0  0  0
  9 10  1  0  0  0  0
 10 11  4  0  0  0  0
 10 15  4  0  0  0  0
 11 12  4  0  0  0  0
 11 27  1  0  0  0  0
 12 13  4  0  0  0  0
 12 28  1  0  0  0  0
 13 14  4  0  0  0  0
 13 16  1  0  0  0  0
 14 15  4  0  0  0  0
 14 29  1  0  0  0  0
 15 30  1  0  0  0  0
 16 17  1  0  0  0  0
 17 31  1  0  0  0  0
 17 32  1  0  0  0  0
 17 33  1  0  0  0  0
 18 19  1  0  0  0  0
 18 34  1  0  0  0  0
 19 20  1  0  0  0  0
 19 23  1  0  0  0  0
 19 35  1  0  0  0  0
 20 21  1  0  0  0  0
 20 36  1  0  0  0  0
 20 37  1  0  0  0  0
 21 22  1  0  0  0  0
 21 38  1  0  0  0  0
 21 39  1  0  0  0  0
 22 23  1  0  0  0  0
 22 24  1  0  0  0  0
 22 40  1  0  0  0  0
 23 41  1  0  0  0  0
 23 42  1  0  0  0  0
 24 43  1  0  0  0  0
 24 44  1  0  0  0  0
M  END
> <ConfClashScore>
0 

> <ConfOneFourInteractionScore>
-0.985399 

> <ConfScore>
0.0173146 

> <ConfScorePBest>
0.0022071 

> <ConfTolerance>
0.462933 

$$$$
c22.sdf
 OpenBabel04162418103D

 44 47  0  0  0  0  0  0  0  0999 V2000
    1.9452   -0.6102    0.1255 C   0  0  0  1  0  0  0  0  0  0  0  0
    2.0363    0.7233    0.1481 N   0  0  0  1  0  0  0  0  0  0  0  0
    0.8946    1.4376    0.0881 C   0  0  0  1  0  0  0  0  0  0  0  0
   -0.3453    0.7386    0.0095 C   0  0  0  1  0  0  0  0  0  0  0  0
   -0.2528   -0.6477    0.0019 C   0  0  0  1  0  0  0  0  0  0  0  0
    0.8779   -1.3913    0.0539 N   0  0  0  1  0  0  0  0  0  0  0  0
   -1.7303    0.9921   -0.0538 C   0  0  0  1  0  0  0  0  0  0  0  0
   -2.4281   -0.1191   -0.1028 N   0  0  0  1  0  0  0  0  0  0  0  0
   -1.5125   -1.1342   -0.0681 N   0  0  0  1  0  0  0  0  0  0  0  0
   -1.8419   -2.5192   -0.1013 C   0  0  0  1  0  0  0  0  0  0  0  0
   -2.0126   -3.2173    1.0791 C   0  0  0  1  0  0  0  0  0  0  0  0
   -2.3384   -4.5643    1.0467 C   0  0  0  1  0  0  0  0  0  0  0  0
   -2.4874   -5.2105   -0.1660 C   0  0  0  1  0  0  0  0  0  0  0  0
   -2.3160   -4.5101   -1.3499 C   0  0  0  1  0  0  0  0  0  0  0  0
   -1.9911   -3.1670   -1.3177 C   0  0  0  1  0  0  0  0  0  0  0  0
   -2.6965   -6.5450   -0.1539 O   0  0  0  1  0  0  0  0  0  0  0  0
   -2.7671   -7.2382    1.1019 C   0  0  0  1  0  0  0  0  0  0  0  0
    3.1322   -1.2665    0.1854 N   0  0  0  1  0  0  0  0  0  0  0  0
    4.3942   -0.5554    0.3918 C   0  0  0  1  0  0  0  0  0  0  0  0
    5.5785   -1.3850   -0.0765 C   0  0  0  1  0  0  0  0  0  0  0  0
    5.8197   -2.3852    1.0590 C   0  0  0  1  0  0  0  0  0  0  0  0
    5.2400   -1.7439    2.3268 C   0  0  0  1  0  0  0  0  0  0  0  0
    4.6981   -0.3820    1.8840 C   0  0  0  1  0  0  0  0  0  0  0  0
    6.2979   -1.5724    3.3509 N   0  0  0  1  0  0  0  0  0  0  0  0
    0.9178    2.4773    0.0987 H   0  0  0  1  0  0  0  0  0  0  0  0
   -2.1490    1.9440   -0.0608 H   0  0  0  1  0  0  0  0  0  0  0  0
   -1.8967   -2.7322    1.9916 H   0  0  0  1  0  0  0  0  0  0  0  0
   -2.4709   -5.0887    1.9349 H   0  0  0  1  0  0  0  0  0  0  0  0
   -2.4320   -4.9952   -2.2625 H   0  0  0  1  0  0  0  0  0  0  0  0
   -1.8587   -2.6426   -2.2060 H   0  0  0  1  0  0  0  0  0  0  0  0
   -2.1314   -6.7540    1.8134 H   0  0  0  1  0  0  0  0  0  0  0  0
   -2.4470   -8.2505    0.9687 H   0  0  0  1  0  0  0  0  0  0  0  0
   -3.7757   -7.2266    1.4592 H   0  0  0  1  0  0  0  0  0  0  0  0
    3.1441   -2.2415    0.0878 H   0  0  0  1  0  0  0  0  0  0  0  0
    4.3584    0.3890   -0.1100 H   0  0  0  1  0  0  0  0  0  0  0  0
    5.3455   -1.8960   -0.9873 H   0  0  0  1  0  0  0  0  0  0  0  0
    6.4387   -0.7661   -0.2242 H   0  0  0  1  0  0  0  0  0  0  0  0
    5.3224   -3.3094    0.8505 H   0  0  0  1  0  0  0  0  0  0  0  0
    6.8679   -2.5631    1.1797 H   0  0  0  1  0  0  0  0  0  0  0  0
    4.4521   -2.3485    2.7250 H   0  0  0  1  0  0  0  0  0  0  0  0
    3.8082   -0.1354    2.4245 H   0  0  0  1  0  0  0  0  0  0  0  0
    5.4308    0.3832    2.0340 H   0  0  0  1  0  0  0  0  0  0  0  0
    6.5316   -2.4457    3.7292 H   0  0  0  1  0  0  0  0  0  0  0  0
    5.9702   -0.9851    4.0637 H   0  0  0  1  0  0  0  0  0  0  0  0
  1  2  4  0  0  0  0
  1  6  4  0  0  0  0
  1 18  1  0  0  0  0
  2  3  4  0  0  0  0
  3  4  4  0  0  0  0
  3 25  1  0  0  0  0
  4  5  4  0  0  0  0
  4  7  4  0  0  0  0
  5  6  4  0  0  0  0
  5  9  4  0  0  0  0
  7  8  4  0  0  0  0
  7 26  1  0  0  0  0
  8  9  4  0  0  0  0
  9 10  1  0  0  0  0
 10 11  4  0  0  0  0
 10 15  4  0  0  0  0
 11 12  4  0  0  0  0
 11 27  1  0  0  0  0
 12 13  4  0  0  0  0
 12 28  1  0  0  0  0
 13 14  4  0  0  0  0
 13 16  1  0  0  0  0
 14 15  4  0  0  0  0
 14 29  1  0  0  0  0
 15 30  1  0  0  0  0
 16 17  1  0  0  0  0
 17 31  1  0  0  0  0
 17 32  1  0  0  0  0
 17 33  1  0  0  0  0
 18 19  1  0  0  0  0
 18 34  1  0  0  0  0
 19 20  1  0  0  0  0
 19 23  1  0  0  0  0
 19 35  1  0  0  0  0
 20 21  1  0  0  0  0
 20 36  1  0  0  0  0
 20 37  1  0  0  0  0
 21 22  1  0  0  0  0
 21 38  1  0  0  0  0
 21 39  1  0  0  0  0
 22 23  1  0  0  0  0
 22 24  1  0  0  0  0
 22 40  1  0  0  0  0
 23 41  1  0  0  0  0
 23 42  1  0  0  0  0
 24 43  1  0  0  0  0
 24 44  1  0  0  0  0
M  END
> <ConfClashScore>
0 

> <ConfOneFourInteractionScore>
-0.984337 

> <ConfScore>
0.0182484 

> <ConfScorePBest>
0.00219377 

> <ConfTolerance>
0.475499 

$$$$
c22.sdf
 OpenBabel04162418103D

 44 47  0  0  0  0  0  0  0  0999 V2000
    1.9453   -0.6103    0.1255 C   0  0  0  1  0  0  0  0  0  0  0  0
    2.0363    0.7233    0.1482 N   0  0  0  1  0  0  0  0  0  0  0  0
    0.8946    1.4376    0.0881 C   0  0  0  1  0  0  0  0  0  0  0  0
   -0.3453    0.7386    0.0096 C   0  0  0  1  0  0  0  0  0  0  0  0
   -0.2527   -0.6477    0.0020 C   0  0  0  1  0  0  0  0  0  0  0  0
    0.8780   -1.3913    0.0539 N   0  0  0  1  0  0  0  0  0  0  0  0
   -1.7303    0.9921   -0.0538 C   0  0  0  1  0  0  0  0  0  0  0  0
   -2.4281   -0.1191   -0.1029 N   0  0  0  1  0  0  0  0  0  0  0  0
   -1.5125   -1.1342   -0.0681 N   0  0  0  1  0  0  0  0  0  0  0  0
   -1.8385   -2.5051   -0.1010 C   0  0  0  1  0  0  0  0  0  0  0  0
   -0.9236   -3.3673   -0.6753 C   0  0  0  1  0  0  0  0  0  0  0  0
   -1.1914   -4.7263   -0.7292 C   0  0  0  1  0  0  0  0  0  0  0  0
   -2.3756   -5.2185   -0.2135 C   0  0  0  1  0  0  0  0  0  0  0  0
   -3.2931   -4.3536    0.3625 C   0  0  0  1  0  0  0  0  0  0  0  0
   -3.0261   -2.9985    0.4163 C   0  0  0  1  0  0  0  0  0  0  0  0
   -2.5783   -6.5544   -0.3023 O   0  0  0  1  0  0  0  0  0  0  0  0
   -3.7556   -7.0829    0.3280 C   0  0  0  1  0  0  0  0  0  0  0  0
    3.1257   -1.2628    0.1851 N   0  0  0  1  0  0  0  0  0  0  0  0
    4.4271   -0.5924    0.2715 C   0  0  0  1  0  0  0  0  0  0  0  0
    4.4732    0.3462    1.4820 C   0  0  0  1  0  0  0  0  0  0  0  0
    5.2909    1.5695    1.0462 C   0  0  0  1  0  0  0  0  0  0  0  0
    5.7072    1.2877   -0.4002 C   0  0  0  1  0  0  0  0  0  0  0  0
    4.6420    0.3191   -0.9255 C   0  0  0  1  0  0  0  0  0  0  0  0
    7.0430    0.6671   -0.4458 N   0  0  0  1  0  0  0  0  0  0  0  0
    0.9179    2.4772    0.0988 H   0  0  0  1  0  0  0  0  0  0  0  0
   -2.1489    1.9441   -0.0608 H   0  0  0  1  0  0  0  0  0  0  0  0
   -0.0345   -2.9966   -1.0670 H   0  0  0  1  0  0  0  0  0  0  0  0
   -0.5014   -5.3756   -1.1577 H   0  0  0  1  0  0  0  0  0  0  0  0
   -4.1823   -4.7243    0.7542 H   0  0  0  1  0  0  0  0  0  0  0  0
   -3.7163   -2.3492    0.8448 H   0  0  0  1  0  0  0  0  0  0  0  0
   -3.6634   -6.9921    1.3902 H   0  0  0  1  0  0  0  0  0  0  0  0
   -3.8671   -8.1145    0.0668 H   0  0  0  1  0  0  0  0  0  0  0  0
   -4.6134   -6.5358   -0.0034 H   0  0  0  1  0  0  0  0  0  0  0  0
    3.1121   -2.2426    0.1697 H   0  0  0  1  0  0  0  0  0  0  0  0
    5.2035   -1.3260    0.3322 H   0  0  0  1  0  0  0  0  0  0  0  0
    3.4830    0.6420    1.7594 H   0  0  0  1  0  0  0  0  0  0  0  0
    4.9459   -0.1398    2.3098 H   0  0  0  1  0  0  0  0  0  0  0  0
    4.6939    2.4560    1.0977 H   0  0  0  1  0  0  0  0  0  0  0  0
    6.1539    1.6833    1.6684 H   0  0  0  1  0  0  0  0  0  0  0  0
    5.7130    2.1907   -0.9744 H   0  0  0  1  0  0  0  0  0  0  0  0
    4.9987   -0.2289   -1.7724 H   0  0  0  1  0  0  0  0  0  0  0  0
    3.7422    0.8355   -1.1874 H   0  0  0  1  0  0  0  0  0  0  0  0
    7.6657    1.1902    0.1010 H   0  0  0  1  0  0  0  0  0  0  0  0
    7.3613    0.6453   -1.3725 H   0  0  0  1  0  0  0  0  0  0  0  0
  1  2  4  0  0  0  0
  1  6  4  0  0  0  0
  1 18  1  0  0  0  0
  2  3  4  0  0  0  0
  3  4  4  0  0  0  0
  3 25  1  0  0  0  0
  4  5  4  0  0  0  0
  4  7  4  0  0  0  0
  5  6  4  0  0  0  0
  5  9  4  0  0  0  0
  7  8  4  0  0  0  0
  7 26  1  0  0  0  0
  8  9  4  0  0  0  0
  9 10  1  0  0  0  0
 10 11  4  0  0  0  0
 10 15  4  0  0  0  0
 11 12  4  0  0  0  0
 11 27  1  0  0  0  0
 12 13  4  0  0  0  0
 12 28  1  0  0  0  0
 13 14  4  0  0  0  0
 13 16  1  0  0  0  0
 14 15  4  0  0  0  0
 14 29  1  0  0  0  0
 15 30  1  0  0  0  0
 16 17  1  0  0  0  0
 17 31  1  0  0  0  0
 17 32  1  0  0  0  0
 17 33  1  0  0  0  0
 18 19  1  0  0  0  0
 18 34  1  0  0  0  0
 19 20  1  0  0  0  0
 19 23  1  0  0  0  0
 19 35  1  0  0  0  0
 20 21  1  0  0  0  0
 20 36  1  0  0  0  0
 20 37  1  0  0  0  0
 21 22  1  0  0  0  0
 21 38  1  0  0  0  0
 21 39  1  0  0  0  0
 22 23  1  0  0  0  0
 22 24  1  0  0  0  0
 22 40  1  0  0  0  0
 23 41  1  0  0  0  0
 23 42  1  0  0  0  0
 24 43  1  0  0  0  0
 24 44  1  0  0  0  0
M  END
> <ConfClashScore>
0 

> <ConfOneFourInteractionScore>
-0.980204 

> <ConfScore>
0.0186933 

> <ConfScorePBest>
0.00218045 

> <ConfTolerance>
0.305138 

$$$$
c22.sdf
 OpenBabel04162418103D

 44 47  0  0  0  0  0  0  0  0999 V2000
    1.9453   -0.6102    0.1255 C   0  0  0  1  0  0  0  0  0  0  0  0
    2.0363    0.7234    0.1481 N   0  0  0  1  0  0  0  0  0  0  0  0
    0.8946    1.4376    0.0881 C   0  0  0  1  0  0  0  0  0  0  0  0
   -0.3453    0.7385    0.0096 C   0  0  0  1  0  0  0  0  0  0  0  0
   -0.2528   -0.6478    0.0020 C   0  0  0  1  0  0  0  0  0  0  0  0
    0.8779   -1.3912    0.0539 N   0  0  0  1  0  0  0  0  0  0  0  0
   -1.7303    0.9921   -0.0538 C   0  0  0  1  0  0  0  0  0  0  0  0
   -2.4281   -0.1191   -0.1029 N   0  0  0  1  0  0  0  0  0  0  0  0
   -1.5126   -1.1342   -0.0681 N   0  0  0  1  0  0  0  0  0  0  0  0
   -1.8421   -2.5203   -0.1014 C   0  0  0  1  0  0  0  0  0  0  0  0
   -0.9398   -3.4340   -0.6124 C   0  0  0  1  0  0  0  0  0  0  0  0
   -1.2945   -4.7692   -0.7252 C   0  0  0  1  0  0  0  0  0  0  0  0
   -2.5522   -5.1860   -0.3317 C   0  0  0  1  0  0  0  0  0  0  0  0
   -3.4571   -4.2694    0.1807 C   0  0  0  1  0  0  0  0  0  0  0  0
   -3.1036   -2.9380    0.2933 C   0  0  0  1  0  0  0  0  0  0  0  0
   -2.8958   -6.4724   -0.5597 O   0  0  0  1  0  0  0  0  0  0  0  0
   -4.2731   -6.8820   -0.3927 C   0  0  0  1  0  0  0  0  0  0  0  0
    3.1380   -1.2696    0.1857 N   0  0  0  1  0  0  0  0  0  0  0  0
    4.4151   -0.5690    0.0161 C   0  0  0  1  0  0  0  0  0  0  0  0
    4.6387    0.4154    1.1574 C   0  0  0  1  0  0  0  0  0  0  0  0
    5.4482    1.5588    0.5320 C   0  0  0  1  0  0  0  0  0  0  0  0
    4.7536    1.7132   -0.8237 C   0  0  0  1  0  0  0  0  0  0  0  0
    4.3942    0.2834   -1.2580 C   0  0  0  1  0  0  0  0  0  0  0  0
    5.6749    2.3453   -1.8148 N   0  0  0  1  0  0  0  0  0  0  0  0
    0.9178    2.4773    0.0988 H   0  0  0  1  0  0  0  0  0  0  0  0
   -2.1491    1.9441   -0.0608 H   0  0  0  1  0  0  0  0  0  0  0  0
    0.0053   -3.1198   -0.9122 H   0  0  0  1  0  0  0  0  0  0  0  0
   -0.6141   -5.4575   -1.1059 H   0  0  0  1  0  0  0  0  0  0  0  0
   -4.4020   -4.5836    0.4805 H   0  0  0  1  0  0  0  0  0  0  0  0
   -3.7839   -2.2497    0.6740 H   0  0  0  1  0  0  0  0  0  0  0  0
   -4.9141   -6.1988   -0.9098 H   0  0  0  1  0  0  0  0  0  0  0  0
   -4.5205   -6.8844    0.6483 H   0  0  0  1  0  0  0  0  0  0  0  0
   -4.4035   -7.8656   -0.7932 H   0  0  0  1  0  0  0  0  0  0  0  0
    3.1415   -2.2363    0.3463 H   0  0  0  1  0  0  0  0  0  0  0  0
    5.2113   -1.2826   -0.0240 H   0  0  0  1  0  0  0  0  0  0  0  0
    3.7040    0.7763    1.5329 H   0  0  0  1  0  0  0  0  0  0  0  0
    5.1883   -0.0458    1.9511 H   0  0  0  1  0  0  0  0  0  0  0  0
    6.4777    1.2916    0.4161 H   0  0  0  1  0  0  0  0  0  0  0  0
    5.3748    2.4539    1.1136 H   0  0  0  1  0  0  0  0  0  0  0  0
    3.8701    2.3090   -0.7267 H   0  0  0  1  0  0  0  0  0  0  0  0
    3.4203    0.2644   -1.7009 H   0  0  0  1  0  0  0  0  0  0  0  0
    5.1134   -0.0823   -1.9607 H   0  0  0  1  0  0  0  0  0  0  0  0
    5.9145    3.2456   -1.5108 H   0  0  0  1  0  0  0  0  0  0  0  0
    5.2283    2.4028   -2.6852 H   0  0  0  1  0  0  0  0  0  0  0  0
  1  2  4  0  0  0  0
  1  6  4  0  0  0  0
  1 18  1  0  0  0  0
  2  3  4  0  0  0  0
  3  4  4  0  0  0  0
  3 25  1  0  0  0  0
  4  5  4  0  0  0  0
  4  7  4  0  0  0  0
  5  6  4  0  0  0  0
  5  9  4  0  0  0  0
  7  8  4  0  0  0  0
  7 26  1  0  0  0  0
  8  9  4  0  0  0  0
  9 10  1  0  0  0  0
 10 11  4  0  0  0  0
 10 15  4  0  0  0  0
 11 12  4  0  0  0  0
 11 27  1  0  0  0  0
 12 13  4  0  0  0  0
 12 28  1  0  0  0  0
 13 14  4  0  0  0  0
 13 16  1  0  0  0  0
 14 15  4  0  0  0  0
 14 29  1  0  0  0  0
 15 30  1  0  0  0  0
 16 17  1  0  0  0  0
 17 31  1  0  0  0  0
 17 32  1  0  0  0  0
 17 33  1  0  0  0  0
 18 19  1  0  0  0  0
 18 34  1  0  0  0  0
 19 20  1  0  0  0  0
 19 23  1  0  0  0  0
 19 35  1  0  0  0  0
 20 21  1  0  0  0  0
 20 36  1  0  0  0  0
 20 37  1  0  0  0  0
 21 22  1  0  0  0  0
 21 38  1  0  0  0  0
 21 39  1  0  0  0  0
 22 23  1  0  0  0  0
 22 24  1  0  0  0  0
 22 40  1  0  0  0  0
 23 41  1  0  0  0  0
 23 42  1  0  0  0  0
 24 43  1  0  0  0  0
 24 44  1  0  0  0  0
M  END
> <ConfClashScore>
0 

> <ConfOneFourInteractionScore>
-0.980204 

> <ConfScore>
0.0186933 

> <ConfScorePBest>
0.00216712 

> <ConfTolerance>
0.444781 

$$$$
c22.sdf
 OpenBabel04162418103D

 44 47  0  0  0  0  0  0  0  0999 V2000
    1.9452   -0.6102    0.1255 C   0  0  0  1  0  0  0  0  0  0  0  0
    2.0363    0.7233    0.1481 N   0  0  0  1  0  0  0  0  0  0  0  0
    0.8945    1.4375    0.0881 C   0  0  0  1  0  0  0  0  0  0  0  0
   -0.3452    0.7386    0.0096 C   0  0  0  1  0  0  0  0  0  0  0  0
   -0.2529   -0.6478    0.0020 C   0  0  0  1  0  0  0  0  0  0  0  0
    0.8779   -1.3913    0.0538 N   0  0  0  1  0  0  0  0  0  0  0  0
   -1.7303    0.9921   -0.0538 C   0  0  0  1  0  0  0  0  0  0  0  0
   -2.4281   -0.1191   -0.1028 N   0  0  0  1  0  0  0  0  0  0  0  0
   -1.5125   -1.1342   -0.0681 N   0  0  0  1  0  0  0  0  0  0  0  0
   -1.8369   -2.4986   -0.1008 C   0  0  0  1  0  0  0  0  0  0  0  0
   -2.9728   -3.0484    0.4629 C   0  0  0  1  0  0  0  0  0  0  0  0
   -3.2022   -4.4123    0.3694 C   0  0  0  1  0  0  0  0  0  0  0  0
   -2.2926   -5.2232   -0.2829 C   0  0  0  1  0  0  0  0  0  0  0  0
   -1.1534   -4.6714   -0.8482 C   0  0  0  1  0  0  0  0  0  0  0  0
   -0.9245   -3.3116   -0.7551 C   0  0  0  1  0  0  0  0  0  0  0  0
   -2.4061   -6.5609   -0.4323 O   0  0  0  1  0  0  0  0  0  0  0  0
   -3.5451   -7.2399    0.1190 C   0  0  0  1  0  0  0  0  0  0  0  0
    3.1213   -1.2605    0.1848 N   0  0  0  1  0  0  0  0  0  0  0  0
    3.3200   -2.7010    0.0858 C   0  0  0  1  0  0  0  0  0  0  0  0
    2.6642   -3.2715   -1.1746 C   0  0  0  1  0  0  0  0  0  0  0  0
    2.4048   -4.7531   -0.8590 C   0  0  0  1  0  0  0  0  0  0  0  0
    2.4326   -4.8767    0.6688 C   0  0  0  1  0  0  0  0  0  0  0  0
    2.5586   -3.4497    1.1875 C   0  0  0  1  0  0  0  0  0  0  0  0
    3.6035   -5.6974    1.1060 N   0  0  0  1  0  0  0  0  0  0  0  0
    0.9179    2.4773    0.0988 H   0  0  0  1  0  0  0  0  0  0  0  0
   -2.1490    1.9441   -0.0608 H   0  0  0  1  0  0  0  0  0  0  0  0
   -3.6553   -2.4390    0.9572 H   0  0  0  1  0  0  0  0  0  0  0  0
   -4.0589   -4.8254    0.7901 H   0  0  0  1  0  0  0  0  0  0  0  0
   -0.4709   -5.2810   -1.3425 H   0  0  0  1  0  0  0  0  0  0  0  0
   -0.0679   -2.8984   -1.1758 H   0  0  0  1  0  0  0  0  0  0  0  0
   -4.4180   -6.9915   -0.4479 H   0  0  0  1  0  0  0  0  0  0  0  0
   -3.6827   -6.9371    1.1361 H   0  0  0  1  0  0  0  0  0  0  0  0
   -3.3835   -8.2969    0.0798 H   0  0  0  1  0  0  0  0  0  0  0  0
    3.9238   -0.7113    0.3067 H   0  0  0  1  0  0  0  0  0  0  0  0
    4.3670   -2.9201    0.1156 H   0  0  0  1  0  0  0  0  0  0  0  0
    1.7443   -2.7653   -1.3805 H   0  0  0  1  0  0  0  0  0  0  0  0
    3.3202   -3.1762   -2.0145 H   0  0  0  1  0  0  0  0  0  0  0  0
    3.1679   -5.3639   -1.2943 H   0  0  0  1  0  0  0  0  0  0  0  0
    1.4495   -5.0510   -1.2377 H   0  0  0  1  0  0  0  0  0  0  0  0
    1.5289   -5.3258    1.0245 H   0  0  0  1  0  0  0  0  0  0  0  0
    3.1071   -3.4291    2.1059 H   0  0  0  1  0  0  0  0  0  0  0  0
    1.5920   -3.0166    1.3390 H   0  0  0  1  0  0  0  0  0  0  0  0
    3.4352   -6.6414    0.9033 H   0  0  0  1  0  0  0  0  0  0  0  0
    3.7358   -5.5894    2.0711 H   0  0  0  1  0  0  0  0  0  0  0  0
  1  2  4  0  0  0  0
  1  6  4  0  0  0  0
  1 18  1  0  0  0  0
  2  3  4  0  0  0  0
  3  4  4  0  0  0  0
  3 25  1  0  0  0  0
  4  5  4  0  0  0  0
  4  7  4  0  0  0  0
  5  6  4  0  0  0  0
  5  9  4  0  0  0  0
  7  8  4  0  0  0  0
  7 26  1  0  0  0  0
  8  9  4  0  0  0  0
  9 10  1  0  0  0  0
 10 11  4  0  0  0  0
 10 15  4  0  0  0  0
 11 12  4  0  0  0  0
 11 27  1  0  0  0  0
 12 13  4  0  0  0  0
 12 28  1  0  0  0  0
 13 14  4  0  0  0  0
 13 16  1  0  0  0  0
 14 15  4  0  0  0  0
 14 29  1  0  0  0  0
 15 30  1  0  0  0  0
 16 17  1  0  0  0  0
 17 31  1  0  0  0  0
 17 32  1  0  0  0  0
 17 33  1  0  0  0  0
 18 19  1  0  0  0  0
 18 34  1  0  0  0  0
 19 20  1  0  0  0  0
 19 23  1  0  0  0  0
 19 35  1  0  0  0  0
 20 21  1  0  0  0  0
 20 36  1  0  0  0  0
 20 37  1  0  0  0  0
 21 22  1  0  0  0  0
 21 38  1  0  0  0  0
 21 39  1  0  0  0  0
 22 23  1  0  0  0  0
 22 24  1  0  0  0  0
 22 40  1  0  0  0  0
 23 41  1  0  0  0  0
 23 42  1  0  0  0  0
 24 43  1  0  0  0  0
 24 44  1  0  0  0  0
M  END
> <ConfClashScore>
0 

> <ConfOneFourInteractionScore>
-0.980204 

> <ConfScore>
0.0186933 

> <ConfScorePBest>
0.00215379 

> <ConfTolerance>
0.314479 

$$$$
c22.sdf
 OpenBabel04162418103D

 44 47  0  0  0  0  0  0  0  0999 V2000
    1.9452   -0.6102    0.1256 C   0  0  0  1  0  0  0  0  0  0  0  0
    2.0363    0.7233    0.1482 N   0  0  0  1  0  0  0  0  0  0  0  0
    0.8946    1.4376    0.0881 C   0  0  0  1  0  0  0  0  0  0  0  0
   -0.3453    0.7386    0.0096 C   0  0  0  1  0  0  0  0  0  0  0  0
   -0.2529   -0.6477    0.0020 C   0  0  0  1  0  0  0  0  0  0  0  0
    0.8779   -1.3913    0.0540 N   0  0  0  1  0  0  0  0  0  0  0  0
   -1.7303    0.9921   -0.0538 C   0  0  0  1  0  0  0  0  0  0  0  0
   -2.4282   -0.1191   -0.1028 N   0  0  0  1  0  0  0  0  0  0  0  0
   -1.5125   -1.1342   -0.0681 N   0  0  0  1  0  0  0  0  0  0  0  0
   -1.8385   -2.5051   -0.1009 C   0  0  0  1  0  0  0  0  0  0  0  0
   -3.0730   -2.8577   -0.6128 C   0  0  0  1  0  0  0  0  0  0  0  0
   -3.4424   -4.1924   -0.6734 C   0  0  0  1  0  0  0  0  0  0  0  0
   -2.5785   -5.1702   -0.2173 C   0  0  0  1  0  0  0  0  0  0  0  0
   -1.3404   -4.8163    0.2960 C   0  0  0  1  0  0  0  0  0  0  0  0
   -0.9720   -3.4855    0.3566 C   0  0  0  1  0  0  0  0  0  0  0  0
   -2.8304   -6.5007   -0.2209 O   0  0  0  1  0  0  0  0  0  0  0  0
   -4.0076   -6.9437   -0.9140 C   0  0  0  1  0  0  0  0  0  0  0  0
    3.1544   -1.2788    0.1867 N   0  0  0  1  0  0  0  0  0  0  0  0
    4.3715   -0.4792    0.3597 C   0  0  0  1  0  0  0  0  0  0  0  0
    5.6178   -1.3691    0.4243 C   0  0  0  1  0  0  0  0  0  0  0  0
    6.6712   -0.5050    1.1231 C   0  0  0  1  0  0  0  0  0  0  0  0
    5.8793    0.5007    1.9695 C   0  0  0  1  0  0  0  0  0  0  0  0
    4.3978    0.1993    1.7194 C   0  0  0  1  0  0  0  0  0  0  0  0
    6.1967    1.8777    1.5548 N   0  0  0  1  0  0  0  0  0  0  0  0
    0.9178    2.4773    0.0987 H   0  0  0  1  0  0  0  0  0  0  0  0
   -2.1490    1.9440   -0.0608 H   0  0  0  1  0  0  0  0  0  0  0  0
   -3.7247   -2.1218   -0.9523 H   0  0  0  1  0  0  0  0  0  0  0  0
   -4.3696   -4.4581   -1.0622 H   0  0  0  1  0  0  0  0  0  0  0  0
   -0.6886   -5.5522    0.6356 H   0  0  0  1  0  0  0  0  0  0  0  0
   -0.0447   -3.2198    0.7454 H   0  0  0  1  0  0  0  0  0  0  0  0
   -3.9751   -6.6025   -1.9276 H   0  0  0  1  0  0  0  0  0  0  0  0
   -4.8760   -6.5459   -0.4318 H   0  0  0  1  0  0  0  0  0  0  0  0
   -4.0490   -8.0129   -0.8990 H   0  0  0  1  0  0  0  0  0  0  0  0
    3.1965   -2.2553    0.1165 H   0  0  0  1  0  0  0  0  0  0  0  0
    4.4450    0.2357   -0.4330 H   0  0  0  1  0  0  0  0  0  0  0  0
    5.9415   -1.6379   -0.5594 H   0  0  0  1  0  0  0  0  0  0  0  0
    5.4202   -2.2555    0.9901 H   0  0  0  1  0  0  0  0  0  0  0  0
    7.2961   -1.1090    1.7473 H   0  0  0  1  0  0  0  0  0  0  0  0
    7.2741    0.0060    0.4018 H   0  0  0  1  0  0  0  0  0  0  0  0
    6.1128    0.3772    3.0063 H   0  0  0  1  0  0  0  0  0  0  0  0
    3.8259    1.1033    1.7019 H   0  0  0  1  0  0  0  0  0  0  0  0
    4.0121   -0.4530    2.4749 H   0  0  0  1  0  0  0  0  0  0  0  0
    5.6167    2.5056    2.0341 H   0  0  0  1  0  0  0  0  0  0  0  0
    6.0508    1.9700    0.5901 H   0  0  0  1  0  0  0  0  0  0  0  0
  1  2  4  0  0  0  0
  1  6  4  0  0  0  0
  1 18  1  0  0  0  0
  2  3  4  0  0  0  0
  3  4  4  0  0  0  0
  3 25  1  0  0  0  0
  4  5  4  0  0  0  0
  4  7  4  0  0  0  0
  5  6  4  0  0  0  0
  5  9  4  0  0  0  0
  7  8  4  0  0  0  0
  7 26  1  0  0  0  0
  8  9  4  0  0  0  0
  9 10  1  0  0  0  0
 10 11  4  0  0  0  0
 10 15  4  0  0  0  0
 11 12  4  0  0  0  0
 11 27  1  0  0  0  0
 12 13  4  0  0  0  0
 12 28  1  0  0  0  0
 13 14  4  0  0  0  0
 13 16  1  0  0  0  0
 14 15  4  0  0  0  0
 14 29  1  0  0  0  0
 15 30  1  0  0  0  0
 16 17  1  0  0  0  0
 17 31  1  0  0  0  0
 17 32  1  0  0  0  0
 17 33  1  0  0  0  0
 18 19  1  0  0  0  0
 18 34  1  0  0  0  0
 19 20  1  0  0  0  0
 19 23  1  0  0  0  0
 19 35  1  0  0  0  0
 20 21  1  0  0  0  0
 20 36  1  0  0  0  0
 20 37  1  0  0  0  0
 21 22  1  0  0  0  0
 21 38  1  0  0  0  0
 21 39  1  0  0  0  0
 22 23  1  0  0  0  0
 22 24  1  0  0  0  0
 22 40  1  0  0  0  0
 23 41  1  0  0  0  0
 23 42  1  0  0  0  0
 24 43  1  0  0  0  0
 24 44  1  0  0  0  0
M  END
> <ConfClashScore>
0 

> <ConfOneFourInteractionScore>
-0.981848 

> <ConfScore>
0.0212463 

> <ConfScorePBest>
0.00214046 

> <ConfTolerance>
0.341266 

$$$$
c22.sdf
 OpenBabel04162418103D

 44 47  0  0  0  0  0  0  0  0999 V2000
    1.9452   -0.6102    0.1256 C   0  0  0  1  0  0  0  0  0  0  0  0
    2.0363    0.7233    0.1481 N   0  0  0  1  0  0  0  0  0  0  0  0
    0.8946    1.4375    0.0881 C   0  0  0  1  0  0  0  0  0  0  0  0
   -0.3453    0.7386    0.0096 C   0  0  0  1  0  0  0  0  0  0  0  0
   -0.2528   -0.6477    0.0020 C   0  0  0  1  0  0  0  0  0  0  0  0
    0.8779   -1.3913    0.0539 N   0  0  0  1  0  0  0  0  0  0  0  0
   -1.7304    0.9921   -0.0538 C   0  0  0  1  0  0  0  0  0  0  0  0
   -2.4281   -0.1191   -0.1029 N   0  0  0  1  0  0  0  0  0  0  0  0
   -1.5125   -1.1341   -0.0681 N   0  0  0  1  0  0  0  0  0  0  0  0
   -1.8419   -2.5193   -0.1013 C   0  0  0  1  0  0  0  0  0  0  0  0
   -1.5874   -3.2118   -1.2700 C   0  0  0  1  0  0  0  0  0  0  0  0
   -1.9681   -4.5397   -1.3853 C   0  0  0  1  0  0  0  0  0  0  0  0
   -2.6068   -5.1696   -0.3338 C   0  0  0  1  0  0  0  0  0  0  0  0
   -2.8620   -4.4747    0.8382 C   0  0  0  1  0  0  0  0  0  0  0  0
   -2.4824   -3.1507    0.9534 C   0  0  0  1  0  0  0  0  0  0  0  0
   -2.9334   -6.4564   -0.5628 O   0  0  0  1  0  0  0  0  0  0  0  0
   -3.5814   -7.1293    0.5416 C   0  0  0  1  0  0  0  0  0  0  0  0
    3.1213   -1.2604    0.1850 N   0  0  0  1  0  0  0  0  0  0  0  0
    4.4241   -0.5901    0.2306 C   0  0  0  1  0  0  0  0  0  0  0  0
    4.4925    0.3687    1.4268 C   0  0  0  1  0  0  0  0  0  0  0  0
    4.7412    1.7641    0.8445 C   0  0  0  1  0  0  0  0  0  0  0  0
    5.4010    1.5037   -0.4997 C   0  0  0  1  0  0  0  0  0  0  0  0
    4.6175    0.2888   -1.0083 C   0  0  0  1  0  0  0  0  0  0  0  0
    6.8506    1.1862   -0.3399 N   0  0  0  1  0  0  0  0  0  0  0  0
    0.9179    2.4773    0.0988 H   0  0  0  1  0  0  0  0  0  0  0  0
   -2.1490    1.9441   -0.0608 H   0  0  0  1  0  0  0  0  0  0  0  0
   -1.1105   -2.7368   -2.0627 H   0  0  0  1  0  0  0  0  0  0  0  0
   -1.7731   -5.0621   -2.2632 H   0  0  0  1  0  0  0  0  0  0  0  0
   -3.3389   -4.9498    1.6309 H   0  0  0  1  0  0  0  0  0  0  0  0
   -2.6775   -2.6283    1.8313 H   0  0  0  1  0  0  0  0  0  0  0  0
   -4.5794   -6.7588    0.6497 H   0  0  0  1  0  0  0  0  0  0  0  0
   -3.0335   -6.9453    1.4421 H   0  0  0  1  0  0  0  0  0  0  0  0
   -3.6107   -8.1816    0.3501 H   0  0  0  1  0  0  0  0  0  0  0  0
    3.1062   -2.2401    0.1986 H   0  0  0  1  0  0  0  0  0  0  0  0
    5.2010   -1.3233    0.2940 H   0  0  0  1  0  0  0  0  0  0  0  0
    5.2942    0.0910    2.0788 H   0  0  0  1  0  0  0  0  0  0  0  0
    3.5698    0.3521    1.9682 H   0  0  0  1  0  0  0  0  0  0  0  0
    5.3898    2.3291    1.4808 H   0  0  0  1  0  0  0  0  0  0  0  0
    3.8183    2.2904    0.7170 H   0  0  0  1  0  0  0  0  0  0  0  0
    5.2891    2.3412   -1.1563 H   0  0  0  1  0  0  0  0  0  0  0  0
    3.6723    0.5895   -1.4095 H   0  0  0  1  0  0  0  0  0  0  0  0
    5.1743   -0.2329   -1.7586 H   0  0  0  1  0  0  0  0  0  0  0  0
    6.9645    0.5312    0.3801 H   0  0  0  1  0  0  0  0  0  0  0  0
    7.3415    2.0046   -0.1171 H   0  0  0  1  0  0  0  0  0  0  0  0
  1  2  4  0  0  0  0
  1  6  4  0  0  0  0
  1 18  1  0  0  0  0
  2  3  4  0  0  0  0
  3  4  4  0  0  0  0
  3 25  1  0  0  0  0
  4  5  4  0  0  0  0
  4  7  4  0  0  0  0
  5  6  4  0  0  0  0
  5  9  4  0  0  0  0
  7  8  4  0  0  0  0
  7 26  1  0  0  0  0
  8  9  4  0  0  0  0
  9 10  1  0  0  0  0
 10 11  4  0  0  0  0
 10 15  4  0  0  0  0
 11 12  4  0  0  0  0
 11 27  1  0  0  0  0
 12 13  4  0  0  0  0
 12 28  1  0  0  0  0
 13 14  4  0  0  0  0
 13 16  1  0  0  0  0
 14 15  4  0  0  0  0
 14 29  1  0  0  0  0
 15 30  1  0  0  0  0
 16 17  1  0  0  0  0
 17 31  1  0  0  0  0
 17 32  1  0  0  0  0
 17 33  1  0  0  0  0
 18 19  1  0  0  0  0
 18 34  1  0  0  0  0
 19 20  1  0  0  0  0
 19 23  1  0  0  0  0
 19 35  1  0  0  0  0
 20 21  1  0  0  0  0
 20 36  1  0  0  0  0
 20 37  1  0  0  0  0
 21 22  1  0  0  0  0
 21 38  1  0  0  0  0
 21 39  1  0  0  0  0
 22 23  1  0  0  0  0
 22 24  1  0  0  0  0
 22 40  1  0  0  0  0
 23 41  1  0  0  0  0
 23 42  1  0  0  0  0
 24 43  1  0  0  0  0
 24 44  1  0  0  0  0
M  END
> <ConfClashScore>
0 

> <ConfOneFourInteractionScore>
-0.980204 

> <ConfScore>
0.0231122 

> <ConfScorePBest>
0.00212713 

> <ConfTolerance>
0.301617 

$$$$
c22.sdf
 OpenBabel04162418103D

 44 47  0  0  0  0  0  0  0  0999 V2000
    1.9452   -0.6102    0.1256 C   0  0  0  1  0  0  0  0  0  0  0  0
    2.0363    0.7233    0.1482 N   0  0  0  1  0  0  0  0  0  0  0  0
    0.8946    1.4376    0.0881 C   0  0  0  1  0  0  0  0  0  0  0  0
   -0.3453    0.7385    0.0096 C   0  0  0  1  0  0  0  0  0  0  0  0
   -0.2528   -0.6478    0.0021 C   0  0  0  1  0  0  0  0  0  0  0  0
    0.8780   -1.3913    0.0540 N   0  0  0  1  0  0  0  0  0  0  0  0
   -1.7303    0.9921   -0.0538 C   0  0  0  1  0  0  0  0  0  0  0  0
   -2.4282   -0.1192   -0.1028 N   0  0  0  1  0  0  0  0  0  0  0  0
   -1.5125   -1.1341   -0.0681 N   0  0  0  1  0  0  0  0  0  0  0  0
   -1.8419   -2.5193   -0.1013 C   0  0  0  1  0  0  0  0  0  0  0  0
   -2.3474   -3.0817   -1.2581 C   0  0  0  1  0  0  0  0  0  0  0  0
   -2.6630   -4.4310   -1.2920 C   0  0  0  1  0  0  0  0  0  0  0  0
   -2.4770   -5.2129   -0.1675 C   0  0  0  1  0  0  0  0  0  0  0  0
   -1.9699   -4.6486    0.9927 C   0  0  0  1  0  0  0  0  0  0  0  0
   -1.6554   -3.3031    1.0266 C   0  0  0  1  0  0  0  0  0  0  0  0
   -2.8250   -6.5129   -0.3181 O   0  0  0  1  0  0  0  0  0  0  0  0
   -2.5709   -7.3927    0.7882 C   0  0  0  1  0  0  0  0  0  0  0  0
    3.1148   -1.2568    0.1847 N   0  0  0  1  0  0  0  0  0  0  0  0
    3.3110   -2.7090    0.1286 C   0  0  0  1  0  0  0  0  0  0  0  0
    4.7843   -3.0676   -0.1043 C   0  0  0  1  0  0  0  0  0  0  0  0
    5.0110   -2.8237   -1.5912 C   0  0  0  1  0  0  0  0  0  0  0  0
    3.6532   -3.0774   -2.2565 C   0  0  0  1  0  0  0  0  0  0  0  0
    2.6532   -3.3153   -1.1139 C   0  0  0  1  0  0  0  0  0  0  0  0
    3.7264   -4.2856   -3.1434 N   0  0  0  1  0  0  0  0  0  0  0  0
    0.9179    2.4773    0.0988 H   0  0  0  1  0  0  0  0  0  0  0  0
   -2.1491    1.9440   -0.0609 H   0  0  0  1  0  0  0  0  0  0  0  0
   -2.4912   -2.4926   -2.1031 H   0  0  0  1  0  0  0  0  0  0  0  0
   -3.0397   -4.8552   -2.1636 H   0  0  0  1  0  0  0  0  0  0  0  0
   -1.8263   -5.2377    1.8376 H   0  0  0  1  0  0  0  0  0  0  0  0
   -1.2787   -2.8790    1.8982 H   0  0  0  1  0  0  0  0  0  0  0  0
   -3.4964   -7.6518    1.2584 H   0  0  0  1  0  0  0  0  0  0  0  0
   -1.9368   -6.9010    1.4961 H   0  0  0  1  0  0  0  0  0  0  0  0
   -2.0900   -8.2805    0.4344 H   0  0  0  1  0  0  0  0  0  0  0  0
    3.9200   -0.7055    0.2743 H   0  0  0  1  0  0  0  0  0  0  0  0
    2.9369   -3.1549    1.0265 H   0  0  0  1  0  0  0  0  0  0  0  0
    4.9666   -4.0929    0.1418 H   0  0  0  1  0  0  0  0  0  0  0  0
    5.4225   -2.4405    0.4824 H   0  0  0  1  0  0  0  0  0  0  0  0
    5.3286   -1.8162   -1.7610 H   0  0  0  1  0  0  0  0  0  0  0  0
    5.7472   -3.4996   -1.9734 H   0  0  0  1  0  0  0  0  0  0  0  0
    3.3592   -2.2267   -2.8352 H   0  0  0  1  0  0  0  0  0  0  0  0
    2.4844   -4.3629   -0.9755 H   0  0  0  1  0  0  0  0  0  0  0  0
    1.7235   -2.8281   -1.3216 H   0  0  0  1  0  0  0  0  0  0  0  0
    2.8967   -4.3636   -3.6590 H   0  0  0  1  0  0  0  0  0  0  0  0
    3.8455   -5.0877   -2.5931 H   0  0  0  1  0  0  0  0  0  0  0  0
  1  2  4  0  0  0  0
  1  6  4  0  0  0  0
  1 18  1  0  0  0  0
  2  3  4  0  0  0  0
  3  4  4  0  0  0  0
  3 25  1  0  0  0  0
  4  5  4  0  0  0  0
  4  7  4  0  0  0  0
  5  6  4  0  0  0  0
  5  9  4  0  0  0  0
  7  8  4  0  0  0  0
  7 26  1  0  0  0  0
  8  9  4  0  0  0  0
  9 10  1  0  0  0  0
 10 11  4  0  0  0  0
 10 15  4  0  0  0  0
 11 12  4  0  0  0  0
 11 27  1  0  0  0  0
 12 13  4  0  0  0  0
 12 28  1  0  0  0  0
 13 14  4  0  0  0  0
 13 16  1  0  0  0  0
 14 15  4  0  0  0  0
 14 29  1  0  0  0  0
 15 30  1  0  0  0  0
 16 17  1  0  0  0  0
 17 31  1  0  0  0  0
 17 32  1  0  0  0  0
 17 33  1  0  0  0  0
 18 19  1  0  0  0  0
 18 34  1  0  0  0  0
 19 20  1  0  0  0  0
 19 23  1  0  0  0  0
 19 35  1  0  0  0  0
 20 21  1  0  0  0  0
 20 36  1  0  0  0  0
 20 37  1  0  0  0  0
 21 22  1  0  0  0  0
 21 38  1  0  0  0  0
 21 39  1  0  0  0  0
 22 23  1  0  0  0  0
 22 24  1  0  0  0  0
 22 40  1  0  0  0  0
 23 41  1  0  0  0  0
 23 42  1  0  0  0  0
 24 43  1  0  0  0  0
 24 44  1  0  0  0  0
M  END
> <ConfClashScore>
0 

> <ConfOneFourInteractionScore>
-0.985399 

> <ConfScore>
0.0239961 

> <ConfScorePBest>
0.0021138 

> <ConfTolerance>
0.547047 

$$$$
c22.sdf
 OpenBabel04162418103D

 44 47  0  0  0  0  0  0  0  0999 V2000
    1.9452   -0.6102    0.1257 C   0  0  0  1  0  0  0  0  0  0  0  0
    2.0363    0.7234    0.1482 N   0  0  0  1  0  0  0  0  0  0  0  0
    0.8946    1.4376    0.0881 C   0  0  0  1  0  0  0  0  0  0  0  0
   -0.3453    0.7386    0.0096 C   0  0  0  1  0  0  0  0  0  0  0  0
   -0.2528   -0.6477    0.0020 C   0  0  0  1  0  0  0  0  0  0  0  0
    0.8780   -1.3912    0.0539 N   0  0  0  1  0  0  0  0  0  0  0  0
   -1.7304    0.9921   -0.0538 C   0  0  0  1  0  0  0  0  0  0  0  0
   -2.4281   -0.1191   -0.1029 N   0  0  0  1  0  0  0  0  0  0  0  0
   -1.5125   -1.1342   -0.0681 N   0  0  0  1  0  0  0  0  0  0  0  0
   -1.8412   -2.5164   -0.1013 C   0  0  0  1  0  0  0  0  0  0  0  0
   -0.9812   -3.4447    0.4547 C   0  0  0  1  0  0  0  0  0  0  0  0
   -1.3043   -4.7923    0.4271 C   0  0  0  1  0  0  0  0  0  0  0  0
   -2.4839   -5.2084   -0.1611 C   0  0  0  1  0  0  0  0  0  0  0  0
   -3.3463   -4.2773   -0.7186 C   0  0  0  1  0  0  0  0  0  0  0  0
   -3.0242   -2.9336   -0.6912 C   0  0  0  1  0  0  0  0  0  0  0  0
   -2.9000   -6.4865   -0.2518 O   0  0  0  1  0  0  0  0  0  0  0  0
   -1.8992   -7.4804    0.0697 C   0  0  0  1  0  0  0  0  0  0  0  0
    3.1214   -1.2604    0.1850 N   0  0  0  1  0  0  0  0  0  0  0  0
    4.4173   -0.5924    0.3149 C   0  0  0  1  0  0  0  0  0  0  0  0
    5.5054   -1.3445   -0.4756 C   0  0  0  1  0  0  0  0  0  0  0  0
    6.8376   -1.0253    0.2252 C   0  0  0  1  0  0  0  0  0  0  0  0
    6.4794   -0.4813    1.6371 C   0  0  0  1  0  0  0  0  0  0  0  0
    4.9306   -0.6504    1.7936 C   0  0  0  1  0  0  0  0  0  0  0  0
    6.8542    0.9540    1.7461 N   0  0  0  1  0  0  0  0  0  0  0  0
    0.9179    2.4773    0.0988 H   0  0  0  1  0  0  0  0  0  0  0  0
   -2.1490    1.9441   -0.0609 H   0  0  0  1  0  0  0  0  0  0  0  0
   -0.0917   -3.1320    0.8937 H   0  0  0  1  0  0  0  0  0  0  0  0
   -0.6591   -5.4905    0.8489 H   0  0  0  1  0  0  0  0  0  0  0  0
   -4.2358   -4.5900   -1.1576 H   0  0  0  1  0  0  0  0  0  0  0  0
   -3.6693   -2.2354   -1.1130 H   0  0  0  1  0  0  0  0  0  0  0  0
   -1.3731   -7.1847    0.9532 H   0  0  0  1  0  0  0  0  0  0  0  0
   -1.2094   -7.5675   -0.7436 H   0  0  0  1  0  0  0  0  0  0  0  0
   -2.3750   -8.4240    0.2372 H   0  0  0  1  0  0  0  0  0  0  0  0
    3.1098   -2.2392    0.1386 H   0  0  0  1  0  0  0  0  0  0  0  0
    4.3325    0.4201   -0.0206 H   0  0  0  1  0  0  0  0  0  0  0  0
    5.5288   -1.0053   -1.4901 H   0  0  0  1  0  0  0  0  0  0  0  0
    5.3181   -2.3978   -0.4554 H   0  0  0  1  0  0  0  0  0  0  0  0
    7.4309   -1.9115    0.3111 H   0  0  0  1  0  0  0  0  0  0  0  0
    7.3779   -0.2861   -0.3286 H   0  0  0  1  0  0  0  0  0  0  0  0
    6.9912   -1.0424    2.3908 H   0  0  0  1  0  0  0  0  0  0  0  0
    4.6904   -1.5893    2.2471 H   0  0  0  1  0  0  0  0  0  0  0  0
    4.5142    0.1446    2.3763 H   0  0  0  1  0  0  0  0  0  0  0  0
    6.3107    1.4821    1.1247 H   0  0  0  1  0  0  0  0  0  0  0  0
    7.8024    1.0617    1.5231 H   0  0  0  1  0  0  0  0  0  0  0  0
  1  2  4  0  0  0  0
  1  6  4  0  0  0  0
  1 18  1  0  0  0  0
  2  3  4  0  0  0  0
  3  4  4  0  0  0  0
  3 25  1  0  0  0  0
  4  5  4  0  0  0  0
  4  7  4  0  0  0  0
  5  6  4  0  0  0  0
  5  9  4  0  0  0  0
  7  8  4  0  0  0  0
  7 26  1  0  0  0  0
  8  9  4  0  0  0  0
  9 10  1  0  0  0  0
 10 11  4  0  0  0  0
 10 15  4  0  0  0  0
 11 12  4  0  0  0  0
 11 27  1  0  0  0  0
 12 13  4  0  0  0  0
 12 28  1  0  0  0  0
 13 14  4  0  0  0  0
 13 16  1  0  0  0  0
 14 15  4  0  0  0  0
 14 29  1  0  0  0  0
 15 30  1  0  0  0  0
 16 17  1  0  0  0  0
 17 31  1  0  0  0  0
 17 32  1  0  0  0  0
 17 33  1  0  0  0  0
 18 19  1  0  0  0  0
 18 34  1  0  0  0  0
 19 20  1  0  0  0  0
 19 23  1  0  0  0  0
 19 35  1  0  0  0  0
 20 21  1  0  0  0  0
 20 36  1  0  0  0  0
 20 37  1  0  0  0  0
 21 22  1  0  0  0  0
 21 38  1  0  0  0  0
 21 39  1  0  0  0  0
 22 23  1  0  0  0  0
 22 24  1  0  0  0  0
 22 40  1  0  0  0  0
 23 41  1  0  0  0  0
 23 42  1  0  0  0  0
 24 43  1  0  0  0  0
 24 44  1  0  0  0  0
M  END
> <ConfClashScore>
0 

> <ConfOneFourInteractionScore>
-0.984337 

> <ConfScore>
0.0263026 

> <ConfScorePBest>
0.00210048 

> <ConfTolerance>
0.351081 

$$$$
c22.sdf
 OpenBabel04162418103D

 44 47  0  0  0  0  0  0  0  0999 V2000
    1.9453   -0.6102    0.1256 C   0  0  0  1  0  0  0  0  0  0  0  0
    2.0363    0.7232    0.1481 N   0  0  0  1  0  0  0  0  0  0  0  0
    0.8946    1.4375    0.0881 C   0  0  0  1  0  0  0  0  0  0  0  0
   -0.3452    0.7386    0.0096 C   0  0  0  1  0  0  0  0  0  0  0  0
   -0.2528   -0.6477    0.0020 C   0  0  0  1  0  0  0  0  0  0  0  0
    0.8780   -1.3913    0.0539 N   0  0  0  1  0  0  0  0  0  0  0  0
   -1.7304    0.9921   -0.0538 C   0  0  0  1  0  0  0  0  0  0  0  0
   -2.4281   -0.1191   -0.1028 N   0  0  0  1  0  0  0  0  0  0  0  0
   -1.5125   -1.1341   -0.0681 N   0  0  0  1  0  0  0  0  0  0  0  0
   -1.8370   -2.4987   -0.1008 C   0  0  0  1  0  0  0  0  0  0  0  0
   -2.9110   -3.0331   -0.7869 C   0  0  0  1  0  0  0  0  0  0  0  0
   -3.1407   -4.3999   -0.7586 C   0  0  0  1  0  0  0  0  0  0  0  0
   -2.2988   -5.2275   -0.0399 C   0  0  0  1  0  0  0  0  0  0  0  0
   -1.2216   -4.6912    0.6483 C   0  0  0  1  0  0  0  0  0  0  0  0
   -0.9924   -3.3285    0.6201 C   0  0  0  1  0  0  0  0  0  0  0  0
   -2.6236   -6.5343   -0.0812 O   0  0  0  1  0  0  0  0  0  0  0  0
   -1.6409   -7.4277    0.4919 C   0  0  0  1  0  0  0  0  0  0  0  0
    3.1214   -1.2605    0.1849 N   0  0  0  1  0  0  0  0  0  0  0  0
    4.4459   -0.6513    0.3147 C   0  0  0  1  0  0  0  0  0  0  0  0
    5.4752   -1.7040    0.7422 C   0  0  0  1  0  0  0  0  0  0  0  0
    5.9155   -1.2935    2.1418 C   0  0  0  1  0  0  0  0  0  0  0  0
    5.7619    0.2328    2.1661 C   0  0  0  1  0  0  0  0  0  0  0  0
    4.4359    0.4139    1.4225 C   0  0  0  1  0  0  0  0  0  0  0  0
    6.8875    0.9072    1.4492 N   0  0  0  1  0  0  0  0  0  0  0  0
    0.9179    2.4772    0.0988 H   0  0  0  1  0  0  0  0  0  0  0  0
   -2.1490    1.9441   -0.0608 H   0  0  0  1  0  0  0  0  0  0  0  0
   -3.5469   -2.4100   -1.3245 H   0  0  0  1  0  0  0  0  0  0  0  0
   -3.9465   -4.8026   -1.2782 H   0  0  0  1  0  0  0  0  0  0  0  0
   -0.5857   -5.3143    1.1858 H   0  0  0  1  0  0  0  0  0  0  0  0
   -0.1866   -2.9257    1.1397 H   0  0  0  1  0  0  0  0  0  0  0  0
   -1.9603   -8.4407    0.3622 H   0  0  0  1  0  0  0  0  0  0  0  0
   -1.5347   -7.2184    1.5358 H   0  0  0  1  0  0  0  0  0  0  0  0
   -0.7006   -7.2850    0.0016 H   0  0  0  1  0  0  0  0  0  0  0  0
    3.0880   -2.2387    0.1365 H   0  0  0  1  0  0  0  0  0  0  0  0
    4.7303   -0.2125   -0.6189 H   0  0  0  1  0  0  0  0  0  0  0  0
    6.3097   -1.7053    0.0726 H   0  0  0  1  0  0  0  0  0  0  0  0
    5.0302   -2.6770    0.7601 H   0  0  0  1  0  0  0  0  0  0  0  0
    5.2905   -1.7474    2.8823 H   0  0  0  1  0  0  0  0  0  0  0  0
    6.9339   -1.5730    2.3141 H   0  0  0  1  0  0  0  0  0  0  0  0
    5.7028    0.6043    3.1678 H   0  0  0  1  0  0  0  0  0  0  0  0
    3.6101    0.2582    2.0849 H   0  0  0  1  0  0  0  0  0  0  0  0
    4.3743    1.3946    0.9991 H   0  0  0  1  0  0  0  0  0  0  0  0
    7.7417    0.5949    1.8143 H   0  0  0  1  0  0  0  0  0  0  0  0
    6.8163    1.8772    1.5692 H   0  0  0  1  0  0  0  0  0  0  0  0
  1  2  4  0  0  0  0
  1  6  4  0  0  0  0
  1 18  1  0  0  0  0
  2  3  4  0  0  0  0
  3  4  4  0  0  0  0
  3 25  1  0  0  0  0
  4  5  4  0  0  0  0
  4  7  4  0  0  0  0
  5  6  4  0  0  0  0
  5  9  4  0  0  0  0
  7  8  4  0  0  0  0
  7 26  1  0  0  0  0
  8  9  4  0  0  0  0
  9 10  1  0  0  0  0
 10 11  4  0  0  0  0
 10 15  4  0  0  0  0
 11 12  4  0  0  0  0
 11 27  1  0  0  0  0
 12 13  4  0  0  0  0
 12 28  1  0  0  0  0
 13 14  4  0  0  0  0
 13 16  1  0  0  0  0
 14 15  4  0  0  0  0
 14 29  1  0  0  0  0
 15 30  1  0  0  0  0
 16 17  1  0  0  0  0
 17 31  1  0  0  0  0
 17 32  1  0  0  0  0
 17 33  1  0  0  0  0
 18 19  1  0  0  0  0
 18 34  1  0  0  0  0
 19 20  1  0  0  0  0
 19 23  1  0  0  0  0
 19 35  1  0  0  0  0
 20 21  1  0  0  0  0
 20 36  1  0  0  0  0
 20 37  1  0  0  0  0
 21 22  1  0  0  0  0
 21 38  1  0  0  0  0
 21 39  1  0  0  0  0
 22 23  1  0  0  0  0
 22 24  1  0  0  0  0
 22 40  1  0  0  0  0
 23 41  1  0  0  0  0
 23 42  1  0  0  0  0
 24 43  1  0  0  0  0
 24 44  1  0  0  0  0
M  END
> <ConfClashScore>
0 

> <ConfOneFourInteractionScore>
-0.985399 

> <ConfScore>
0.0264668 

> <ConfScorePBest>
0.00208715 

> <ConfTolerance>
0.393511 

$$$$
c22.sdf
 OpenBabel04162418103D

 44 47  0  0  0  0  0  0  0  0999 V2000
    1.9452   -0.6102    0.1255 C   0  0  0  1  0  0  0  0  0  0  0  0
    2.0362    0.7233    0.1480 N   0  0  0  1  0  0  0  0  0  0  0  0
    0.8946    1.4376    0.0881 C   0  0  0  1  0  0  0  0  0  0  0  0
   -0.3453    0.7386    0.0096 C   0  0  0  1  0  0  0  0  0  0  0  0
   -0.2528   -0.6478    0.0020 C   0  0  0  1  0  0  0  0  0  0  0  0
    0.8780   -1.3912    0.0538 N   0  0  0  1  0  0  0  0  0  0  0  0
   -1.7303    0.9921   -0.0538 C   0  0  0  1  0  0  0  0  0  0  0  0
   -2.4281   -0.1192   -0.1028 N   0  0  0  1  0  0  0  0  0  0  0  0
   -1.5126   -1.1342   -0.0681 N   0  0  0  1  0  0  0  0  0  0  0  0
   -1.8385   -2.5051   -0.1011 C   0  0  0  1  0  0  0  0  0  0  0  0
   -0.9260   -3.4207   -0.5901 C   0  0  0  1  0  0  0  0  0  0  0  0
   -1.2445   -4.7695   -0.6175 C   0  0  0  1  0  0  0  0  0  0  0  0
   -2.4766   -5.1982   -0.1607 C   0  0  0  1  0  0  0  0  0  0  0  0
   -3.3917   -4.2797    0.3297 C   0  0  0  1  0  0  0  0  0  0  0  0
   -3.0742   -2.9348    0.3571 C   0  0  0  1  0  0  0  0  0  0  0  0
   -2.8319   -6.5137   -0.2807 O   0  0  0  1  0  0  0  0  0  0  0  0
   -4.1604   -6.8820    0.1576 C   0  0  0  1  0  0  0  0  0  0  0  0
    3.1213   -1.2603    0.1848 N   0  0  0  1  0  0  0  0  0  0  0  0
    3.2521   -2.7233    0.1349 C   0  0  0  1  0  0  0  0  0  0  0  0
    3.0226   -3.3546    1.5143 C   0  0  0  1  0  0  0  0  0  0  0  0
    4.3213   -3.1092    2.2724 C   0  0  0  1  0  0  0  0  0  0  0  0
    5.4167   -3.0703    1.2004 C   0  0  0  1  0  0  0  0  0  0  0  0
    4.6947   -3.1471   -0.1541 C   0  0  0  1  0  0  0  0  0  0  0  0
    6.3492   -4.2451    1.3630 N   0  0  0  1  0  0  0  0  0  0  0  0
    0.9179    2.4773    0.0988 H   0  0  0  1  0  0  0  0  0  0  0  0
   -2.1491    1.9441   -0.0607 H   0  0  0  1  0  0  0  0  0  0  0  0
   -0.0005   -3.0978   -0.9375 H   0  0  0  1  0  0  0  0  0  0  0  0
   -0.5564   -5.4590   -0.9817 H   0  0  0  1  0  0  0  0  0  0  0  0
   -4.3173   -4.6026    0.6771 H   0  0  0  1  0  0  0  0  0  0  0  0
   -3.7624   -2.2453    0.7213 H   0  0  0  1  0  0  0  0  0  0  0  0
   -4.2789   -6.6287    1.1904 H   0  0  0  1  0  0  0  0  0  0  0  0
   -4.2981   -7.9356    0.0309 H   0  0  0  1  0  0  0  0  0  0  0  0
   -4.8867   -6.3544   -0.4245 H   0  0  0  1  0  0  0  0  0  0  0  0
    3.9395   -0.7270    0.2660 H   0  0  0  1  0  0  0  0  0  0  0  0
    2.5749   -3.1178   -0.5936 H   0  0  0  1  0  0  0  0  0  0  0  0
    2.2005   -2.8843    2.0123 H   0  0  0  1  0  0  0  0  0  0  0  0
    2.8319   -4.4033    1.4222 H   0  0  0  1  0  0  0  0  0  0  0  0
    4.2781   -2.1779    2.7975 H   0  0  0  1  0  0  0  0  0  0  0  0
    4.5050   -3.9025    2.9666 H   0  0  0  1  0  0  0  0  0  0  0  0
    5.9736   -2.1594    1.2725 H   0  0  0  1  0  0  0  0  0  0  0  0
    4.7224   -4.1456   -0.5377 H   0  0  0  1  0  0  0  0  0  0  0  0
    5.1472   -2.4810   -0.8587 H   0  0  0  1  0  0  0  0  0  0  0  0
    6.6301   -4.5645    0.4802 H   0  0  0  1  0  0  0  0  0  0  0  0
    5.8863   -4.9659    1.8389 H   0  0  0  1  0  0  0  0  0  0  0  0
  1  2  4  0  0  0  0
  1  6  4  0  0  0  0
  1 18  1  0  0  0  0
  2  3  4  0  0  0  0
  3  4  4  0  0  0  0
  3 25  1  0  0  0  0
  4  5  4  0  0  0  0
  4  7  4  0  0  0  0
  5  6  4  0  0  0  0
  5  9  4  0  0  0  0
  7  8  4  0  0  0  0
  7 26  1  0  0  0  0
  8  9  4  0  0  0  0
  9 10  1  0  0  0  0
 10 11  4  0  0  0  0
 10 15  4  0  0  0  0
 11 12  4  0  0  0  0
 11 27  1  0  0  0  0
 12 13  4  0  0  0  0
 12 28  1  0  0  0  0
 13 14  4  0  0  0  0
 13 16  1  0  0  0  0
 14 15  4  0  0  0  0
 14 29  1  0  0  0  0
 15 30  1  0  0  0  0
 16 17  1  0  0  0  0
 17 31  1  0  0  0  0
 17 32  1  0  0  0  0
 17 33  1  0  0  0  0
 18 19  1  0  0  0  0
 18 34  1  0  0  0  0
 19 20  1  0  0  0  0
 19 23  1  0  0  0  0
 19 35  1  0  0  0  0
 20 21  1  0  0  0  0
 20 36  1  0  0  0  0
 20 37  1  0  0  0  0
 21 22  1  0  0  0  0
 21 38  1  0  0  0  0
 21 39  1  0  0  0  0
 22 23  1  0  0  0  0
 22 24  1  0  0  0  0
 22 40  1  0  0  0  0
 23 41  1  0  0  0  0
 23 42  1  0  0  0  0
 24 43  1  0  0  0  0
 24 44  1  0  0  0  0
M  END
> <ConfClashScore>
0 

> <ConfOneFourInteractionScore>
-0.984337 

> <ConfScore>
0.0272515 

> <ConfScorePBest>
0.00207382 

> <ConfTolerance>
0.655577 

$$$$
c22.sdf
 OpenBabel04162418103D

 44 47  0  0  0  0  0  0  0  0999 V2000
    1.9452   -0.6101    0.1256 C   0  0  0  1  0  0  0  0  0  0  0  0
    2.0363    0.7234    0.1481 N   0  0  0  1  0  0  0  0  0  0  0  0
    0.8946    1.4376    0.0881 C   0  0  0  1  0  0  0  0  0  0  0  0
   -0.3452    0.7386    0.0096 C   0  0  0  1  0  0  0  0  0  0  0  0
   -0.2528   -0.6477    0.0020 C   0  0  0  1  0  0  0  0  0  0  0  0
    0.8779   -1.3912    0.0539 N   0  0  0  1  0  0  0  0  0  0  0  0
   -1.7304    0.9921   -0.0538 C   0  0  0  1  0  0  0  0  0  0  0  0
   -2.4282   -0.1192   -0.1029 N   0  0  0  1  0  0  0  0  0  0  0  0
   -1.5126   -1.1342   -0.0681 N   0  0  0  1  0  0  0  0  0  0  0  0
   -1.8396   -2.5099   -0.1011 C   0  0  0  1  0  0  0  0  0  0  0  0
   -1.4571   -3.2853   -1.1793 C   0  0  0  1  0  0  0  0  0  0  0  0
   -1.7730   -4.6347   -1.2092 C   0  0  0  1  0  0  0  0  0  0  0  0
   -2.4752   -5.2035   -0.1632 C   0  0  0  1  0  0  0  0  0  0  0  0
   -2.8586   -4.4256    0.9182 C   0  0  0  1  0  0  0  0  0  0  0  0
   -2.5437   -3.0801    0.9480 C   0  0  0  1  0  0  0  0  0  0  0  0
   -2.7883   -6.5206   -0.1949 O   0  0  0  1  0  0  0  0  0  0  0  0
   -2.5334   -7.2265   -1.4193 C   0  0  0  1  0  0  0  0  0  0  0  0
    3.1214   -1.2603    0.1849 N   0  0  0  1  0  0  0  0  0  0  0  0
    3.2562   -2.7163    0.0822 C   0  0  0  1  0  0  0  0  0  0  0  0
    2.7440   -3.2053   -1.2669 C   0  0  0  1  0  0  0  0  0  0  0  0
    2.1905   -4.6086   -0.9878 C   0  0  0  1  0  0  0  0  0  0  0  0
    1.4818   -4.3919    0.3520 C   0  0  0  1  0  0  0  0  0  0  0  0
    2.3760   -3.4115    1.1274 C   0  0  0  1  0  0  0  0  0  0  0  0
    1.3556   -5.6829    1.0923 N   0  0  0  1  0  0  0  0  0  0  0  0
    0.9179    2.4773    0.0987 H   0  0  0  1  0  0  0  0  0  0  0  0
   -2.1490    1.9440   -0.0608 H   0  0  0  1  0  0  0  0  0  0  0  0
   -0.9324   -2.8566   -1.9682 H   0  0  0  1  0  0  0  0  0  0  0  0
   -1.4818   -5.2192   -2.0185 H   0  0  0  1  0  0  0  0  0  0  0  0
   -3.3835   -4.8544    1.7071 H   0  0  0  1  0  0  0  0  0  0  0  0
   -2.8350   -2.4957    1.7574 H   0  0  0  1  0  0  0  0  0  0  0  0
   -2.6831   -8.2747   -1.2652 H   0  0  0  1  0  0  0  0  0  0  0  0
   -1.5238   -7.0522   -1.7276 H   0  0  0  1  0  0  0  0  0  0  0  0
   -3.2035   -6.8785   -2.1774 H   0  0  0  1  0  0  0  0  0  0  0  0
    3.9362   -0.7291    0.3039 H   0  0  0  1  0  0  0  0  0  0  0  0
    4.2820   -2.9903    0.2148 H   0  0  0  1  0  0  0  0  0  0  0  0
    1.9720   -2.5612   -1.6332 H   0  0  0  1  0  0  0  0  0  0  0  0
    3.5408   -3.2488   -1.9797 H   0  0  0  1  0  0  0  0  0  0  0  0
    2.9766   -5.3295   -0.9026 H   0  0  0  1  0  0  0  0  0  0  0  0
    1.5040   -4.9170   -1.7483 H   0  0  0  1  0  0  0  0  0  0  0  0
    0.5098   -3.9716    0.1984 H   0  0  0  1  0  0  0  0  0  0  0  0
    2.9840   -3.9413    1.8308 H   0  0  0  1  0  0  0  0  0  0  0  0
    1.7760   -2.6921    1.6445 H   0  0  0  1  0  0  0  0  0  0  0  0
    0.6745   -6.2413    0.6623 H   0  0  0  1  0  0  0  0  0  0  0  0
    1.0929   -5.5033    2.0192 H   0  0  0  1  0  0  0  0  0  0  0  0
  1  2  4  0  0  0  0
  1  6  4  0  0  0  0
  1 18  1  0  0  0  0
  2  3  4  0  0  0  0
  3  4  4  0  0  0  0
  3 25  1  0  0  0  0
  4  5  4  0  0  0  0
  4  7  4  0  0  0  0
  5  6  4  0  0  0  0
  5  9  4  0  0  0  0
  7  8  4  0  0  0  0
  7 26  1  0  0  0  0
  8  9  4  0  0  0  0
  9 10  1  0  0  0  0
 10 11  4  0  0  0  0
 10 15  4  0  0  0  0
 11 12  4  0  0  0  0
 11 27  1  0  0  0  0
 12 13  4  0  0  0  0
 12 28  1  0  0  0  0
 13 14  4  0  0  0  0
 13 16  1  0  0  0  0
 14 15  4  0  0  0  0
 14 29  1  0  0  0  0
 15 30  1  0  0  0  0
 16 17  1  0  0  0  0
 17 31  1  0  0  0  0
 17 32  1  0  0  0  0
 17 33  1  0  0  0  0
 18 19  1  0  0  0  0
 18 34  1  0  0  0  0
 19 20  1  0  0  0  0
 19 23  1  0  0  0  0
 19 35  1  0  0  0  0
 20 21  1  0  0  0  0
 20 36  1  0  0  0  0
 20 37  1  0  0  0  0
 21 22  1  0  0  0  0
 21 38  1  0  0  0  0
 21 39  1  0  0  0  0
 22 23  1  0  0  0  0
 22 24  1  0  0  0  0
 22 40  1  0  0  0  0
 23 41  1  0  0  0  0
 23 42  1  0  0  0  0
 24 43  1  0  0  0  0
 24 44  1  0  0  0  0
M  END
> <ConfClashScore>
0 

> <ConfOneFourInteractionScore>
-0.980204 

> <ConfScore>
0.0293765 

> <ConfScorePBest>
0.00206049 

> <ConfTolerance>
0.369118 

$$$$
c22.sdf
 OpenBabel04162418103D

 44 47  0  0  0  0  0  0  0  0999 V2000
    1.9453   -0.6102    0.1256 C   0  0  0  1  0  0  0  0  0  0  0  0
    2.0363    0.7233    0.1482 N   0  0  0  1  0  0  0  0  0  0  0  0
    0.8946    1.4376    0.0881 C   0  0  0  1  0  0  0  0  0  0  0  0
   -0.3453    0.7386    0.0096 C   0  0  0  1  0  0  0  0  0  0  0  0
   -0.2528   -0.6478    0.0020 C   0  0  0  1  0  0  0  0  0  0  0  0
    0.8780   -1.3913    0.0539 N   0  0  0  1  0  0  0  0  0  0  0  0
   -1.7303    0.9920   -0.0538 C   0  0  0  1  0  0  0  0  0  0  0  0
   -2.4282   -0.1191   -0.1029 N   0  0  0  1  0  0  0  0  0  0  0  0
   -1.5125   -1.1341   -0.0681 N   0  0  0  1  0  0  0  0  0  0  0  0
   -1.8397   -2.5099   -0.1012 C   0  0  0  1  0  0  0  0  0  0  0  0
   -2.6614   -3.0010   -1.0979 C   0  0  0  1  0  0  0  0  0  0  0  0
   -2.9776   -4.3501   -1.1334 C   0  0  0  1  0  0  0  0  0  0  0  0
   -2.4756   -5.2034   -0.1688 C   0  0  0  1  0  0  0  0  0  0  0  0
   -1.6514   -4.7106    0.8310 C   0  0  0  1  0  0  0  0  0  0  0  0
   -1.3360   -3.3654    0.8663 C   0  0  0  1  0  0  0  0  0  0  0  0
   -2.8566   -6.4959   -0.3028 O   0  0  0  1  0  0  0  0  0  0  0  0
   -2.3560   -7.4340    0.6698 C   0  0  0  1  0  0  0  0  0  0  0  0
    3.1213   -1.2605    0.1850 N   0  0  0  1  0  0  0  0  0  0  0  0
    3.2488   -2.7195    0.1797 C   0  0  0  1  0  0  0  0  0  0  0  0
    2.3278   -3.3603    1.2757 C   0  0  0  1  0  0  0  0  0  0  0  0
    3.2510   -3.9750    2.3440 C   0  0  0  1  0  0  0  0  0  0  0  0
    4.5353   -4.3367    1.5249 C   0  0  0  1  0  0  0  0  0  0  0  0
    4.6609   -3.1388    0.5757 C   0  0  0  1  0  0  0  0  0  0  0  0
    4.3551   -5.5995    0.7744 N   0  0  0  1  0  0  0  0  0  0  0  0
    0.9179    2.4772    0.0988 H   0  0  0  1  0  0  0  0  0  0  0  0
   -2.1489    1.9441   -0.0608 H   0  0  0  1  0  0  0  0  0  0  0  0
   -3.0425   -2.3584   -1.8214 H   0  0  0  1  0  0  0  0  0  0  0  0
   -3.5928   -4.7204   -1.8858 H   0  0  0  1  0  0  0  0  0  0  0  0
   -1.2702   -5.3532    1.5544 H   0  0  0  1  0  0  0  0  0  0  0  0
   -0.7209   -2.9951    1.6187 H   0  0  0  1  0  0  0  0  0  0  0  0
   -1.9550   -6.9012    1.5066 H   0  0  0  1  0  0  0  0  0  0  0  0
   -1.5873   -8.0315    0.2261 H   0  0  0  1  0  0  0  0  0  0  0  0
   -3.1542   -8.0660    0.9992 H   0  0  0  1  0  0  0  0  0  0  0  0
    3.9414   -0.7263    0.2347 H   0  0  0  1  0  0  0  0  0  0  0  0
    3.0004   -3.0962   -0.7904 H   0  0  0  1  0  0  0  0  0  0  0  0
    1.7144   -4.1210    0.8399 H   0  0  0  1  0  0  0  0  0  0  0  0
    1.7062   -2.6095    1.7168 H   0  0  0  1  0  0  0  0  0  0  0  0
    2.8111   -4.8491    2.7769 H   0  0  0  1  0  0  0  0  0  0  0  0
    3.4725   -3.2673    3.1154 H   0  0  0  1  0  0  0  0  0  0  0  0
    5.3913   -4.4186    2.1616 H   0  0  0  1  0  0  0  0  0  0  0  0
    5.2165   -3.4189   -0.2948 H   0  0  0  1  0  0  0  0  0  0  0  0
    5.1568   -2.3303    1.0711 H   0  0  0  1  0  0  0  0  0  0  0  0
    3.5645   -5.5286    0.1997 H   0  0  0  1  0  0  0  0  0  0  0  0
    4.2348   -6.3398    1.4052 H   0  0  0  1  0  0  0  0  0  0  0  0
  1  2  4  0  0  0  0
  1  6  4  0  0  0  0
  1 18  1  0  0  0  0
  2  3  4  0  0  0  0
  3  4  4  0  0  0  0
  3 25  1  0  0  0  0
  4  5  4  0  0  0  0
  4  7  4  0  0  0  0
  5  6  4  0  0  0  0
  5  9  4  0  0  0  0
  7  8  4  0  0  0  0
  7 26  1  0  0  0  0
  8  9  4  0  0  0  0
  9 10  1  0  0  0  0
 10 11  4  0  0  0  0
 10 15  4  0  0  0  0
 11 12  4  0  0  0  0
 11 27  1  0  0  0  0
 12 13  4  0  0  0  0
 12 28  1  0  0  0  0
 13 14  4  0  0  0  0
 13 16  1  0  0  0  0
 14 15  4  0  0  0  0
 14 29  1  0  0  0  0
 15 30  1  0  0  0  0
 16 17  1  0  0  0  0
 17 31  1  0  0  0  0
 17 32  1  0  0  0  0
 17 33  1  0  0  0  0
 18 19  1  0  0  0  0
 18 34  1  0  0  0  0
 19 20  1  0  0  0  0
 19 23  1  0  0  0  0
 19 35  1  0  0  0  0
 20 21  1  0  0  0  0
 20 36  1  0  0  0  0
 20 37  1  0  0  0  0
 21 22  1  0  0  0  0
 21 38  1  0  0  0  0
 21 39  1  0  0  0  0
 22 23  1  0  0  0  0
 22 24  1  0  0  0  0
 22 40  1  0  0  0  0
 23 41  1  0  0  0  0
 23 42  1  0  0  0  0
 24 43  1  0  0  0  0
 24 44  1  0  0  0  0
M  END
> <ConfClashScore>
0.000152506 

> <ConfOneFourInteractionScore>
-0.985399 

> <ConfScore>
0.0309361 

> <ConfScorePBest>
0.00204716 

> <ConfTolerance>
0.351447 

$$$$
c22.sdf
 OpenBabel04162418103D

 44 47  0  0  0  0  0  0  0  0999 V2000
    1.9452   -0.6102    0.1255 C   0  0  0  1  0  0  0  0  0  0  0  0
    2.0364    0.7233    0.1482 N   0  0  0  1  0  0  0  0  0  0  0  0
    0.8945    1.4376    0.0881 C   0  0  0  1  0  0  0  0  0  0  0  0
   -0.3452    0.7386    0.0095 C   0  0  0  1  0  0  0  0  0  0  0  0
   -0.2528   -0.6477    0.0020 C   0  0  0  1  0  0  0  0  0  0  0  0
    0.8779   -1.3913    0.0538 N   0  0  0  1  0  0  0  0  0  0  0  0
   -1.7303    0.9921   -0.0538 C   0  0  0  1  0  0  0  0  0  0  0  0
   -2.4281   -0.1191   -0.1029 N   0  0  0  1  0  0  0  0  0  0  0  0
   -1.5125   -1.1341   -0.0681 N   0  0  0  1  0  0  0  0  0  0  0  0
   -1.8418   -2.5193   -0.1014 C   0  0  0  1  0  0  0  0  0  0  0  0
   -2.3526   -3.1353    1.0255 C   0  0  0  1  0  0  0  0  0  0  0  0
   -2.6781   -4.4822    0.9914 C   0  0  0  1  0  0  0  0  0  0  0  0
   -2.4871   -5.2105   -0.1677 C   0  0  0  1  0  0  0  0  0  0  0  0
   -1.9748   -4.5924   -1.2978 C   0  0  0  1  0  0  0  0  0  0  0  0
   -1.6501   -3.2494   -1.2639 C   0  0  0  1  0  0  0  0  0  0  0  0
   -2.7196   -6.6082   -0.1740 O   0  0  0  1  0  0  0  0  0  0  0  0
   -2.9313   -7.2439    1.0962 C   0  0  0  1  0  0  0  0  0  0  0  0
    3.1323   -1.2664    0.1855 N   0  0  0  1  0  0  0  0  0  0  0  0
    3.2649   -2.7250    0.1080 C   0  0  0  1  0  0  0  0  0  0  0  0
    4.2394   -3.2470    1.1551 C   0  0  0  1  0  0  0  0  0  0  0  0
    4.7538   -4.5836    0.6382 C   0  0  0  1  0  0  0  0  0  0  0  0
    4.4650   -4.5943   -0.8645 C   0  0  0  1  0  0  0  0  0  0  0  0
    3.9555   -3.1648   -1.2367 C   0  0  0  1  0  0  0  0  0  0  0  0
    3.4162   -5.6125   -1.1795 N   0  0  0  1  0  0  0  0  0  0  0  0
    0.9179    2.4773    0.0988 H   0  0  0  1  0  0  0  0  0  0  0  0
   -2.1490    1.9441   -0.0608 H   0  0  0  1  0  0  0  0  0  0  0  0
   -2.4927   -2.5882    1.8988 H   0  0  0  1  0  0  0  0  0  0  0  0
   -3.0662   -4.9448    1.8382 H   0  0  0  1  0  0  0  0  0  0  0  0
   -1.8347   -5.1395   -2.1711 H   0  0  0  1  0  0  0  0  0  0  0  0
   -1.2621   -2.7868   -2.1107 H   0  0  0  1  0  0  0  0  0  0  0  0
   -2.3715   -6.7309    1.8501 H   0  0  0  1  0  0  0  0  0  0  0  0
   -2.6079   -8.2625    1.0432 H   0  0  0  1  0  0  0  0  0  0  0  0
   -3.9723   -7.2120    1.3416 H   0  0  0  1  0  0  0  0  0  0  0  0
    3.9488   -0.7340    0.2865 H   0  0  0  1  0  0  0  0  0  0  0  0
    2.3012   -3.1774    0.2153 H   0  0  0  1  0  0  0  0  0  0  0  0
    5.0515   -2.5613    1.2786 H   0  0  0  1  0  0  0  0  0  0  0  0
    3.7392   -3.3806    2.0915 H   0  0  0  1  0  0  0  0  0  0  0  0
    4.2424   -5.3903    1.1206 H   0  0  0  1  0  0  0  0  0  0  0  0
    5.8055   -4.6707    0.8152 H   0  0  0  1  0  0  0  0  0  0  0  0
    5.3577   -4.8205   -1.4093 H   0  0  0  1  0  0  0  0  0  0  0  0
    3.2550   -3.1967   -2.0448 H   0  0  0  1  0  0  0  0  0  0  0  0
    4.7659   -2.5143   -1.4920 H   0  0  0  1  0  0  0  0  0  0  0  0
    3.2725   -5.6449   -2.1484 H   0  0  0  1  0  0  0  0  0  0  0  0
    2.5788   -5.3674   -0.7333 H   0  0  0  1  0  0  0  0  0  0  0  0
  1  2  4  0  0  0  0
  1  6  4  0  0  0  0
  1 18  1  0  0  0  0
  2  3  4  0  0  0  0
  3  4  4  0  0  0  0
  3 25  1  0  0  0  0
  4  5  4  0  0  0  0
  4  7  4  0  0  0  0
  5  6  4  0  0  0  0
  5  9  4  0  0  0  0
  7  8  4  0  0  0  0
  7 26  1  0  0  0  0
  8  9  4  0  0  0  0
  9 10  1  0  0  0  0
 10 11  4  0  0  0  0
 10 15  4  0  0  0  0
 11 12  4  0  0  0  0
 11 27  1  0  0  0  0
 12 13  4  0  0  0  0
 12 28  1  0  0  0  0
 13 14  4  0  0  0  0
 13 16  1  0  0  0  0
 14 15  4  0  0  0  0
 14 29  1  0  0  0  0
 15 30  1  0  0  0  0
 16 17  1  0  0  0  0
 17 31  1  0  0  0  0
 17 32  1  0  0  0  0
 17 33  1  0  0  0  0
 18 19  1  0  0  0  0
 18 34  1  0  0  0  0
 19 20  1  0  0  0  0
 19 23  1  0  0  0  0
 19 35  1  0  0  0  0
 20 21  1  0  0  0  0
 20 36  1  0  0  0  0
 20 37  1  0  0  0  0
 21 22  1  0  0  0  0
 21 38  1  0  0  0  0
 21 39  1  0  0  0  0
 22 23  1  0  0  0  0
 22 24  1  0  0  0  0
 22 40  1  0  0  0  0
 23 41  1  0  0  0  0
 23 42  1  0  0  0  0
 24 43  1  0  0  0  0
 24 44  1  0  0  0  0
M  END
> <ConfClashScore>
0 

> <ConfOneFourInteractionScore>
-0.984337 

> <ConfScore>
0.0334452 

> <ConfScorePBest>
0.00203384 

> <ConfTolerance>
0.53255 

$$$$
c22.sdf
 OpenBabel04162418103D

 44 47  0  0  0  0  0  0  0  0999 V2000
    1.9452   -0.6102    0.1255 C   0  0  0  1  0  0  0  0  0  0  0  0
    2.0363    0.7233    0.1482 N   0  0  0  1  0  0  0  0  0  0  0  0
    0.8946    1.4376    0.0881 C   0  0  0  1  0  0  0  0  0  0  0  0
   -0.3452    0.7386    0.0096 C   0  0  0  1  0  0  0  0  0  0  0  0
   -0.2528   -0.6478    0.0020 C   0  0  0  1  0  0  0  0  0  0  0  0
    0.8780   -1.3912    0.0539 N   0  0  0  1  0  0  0  0  0  0  0  0
   -1.7303    0.9920   -0.0538 C   0  0  0  1  0  0  0  0  0  0  0  0
   -2.4282   -0.1191   -0.1029 N   0  0  0  1  0  0  0  0  0  0  0  0
   -1.5125   -1.1341   -0.0681 N   0  0  0  1  0  0  0  0  0  0  0  0
   -1.8397   -2.5099   -0.1012 C   0  0  0  1  0  0  0  0  0  0  0  0
   -2.5936   -3.0654    0.9153 C   0  0  0  1  0  0  0  0  0  0  0  0
   -2.9187   -4.4125    0.8801 C   0  0  0  1  0  0  0  0  0  0  0  0
   -2.4844   -5.2012   -0.1685 C   0  0  0  1  0  0  0  0  0  0  0  0
   -1.7283   -4.6438   -1.1879 C   0  0  0  1  0  0  0  0  0  0  0  0
   -1.4040   -3.3007   -1.1530 C   0  0  0  1  0  0  0  0  0  0  0  0
   -2.8780   -6.4912   -0.2457 O   0  0  0  1  0  0  0  0  0  0  0  0
   -3.6004   -7.0767    0.8487 C   0  0  0  1  0  0  0  0  0  0  0  0
    3.1380   -1.2696    0.1858 N   0  0  0  1  0  0  0  0  0  0  0  0
    3.2080   -2.7126    0.4206 C   0  0  0  1  0  0  0  0  0  0  0  0
    2.6000   -3.4831   -0.7385 C   0  0  0  1  0  0  0  0  0  0  0  0
    2.1216   -4.8052   -0.1447 C   0  0  0  1  0  0  0  0  0  0  0  0
    1.5605   -4.3745    1.2240 C   0  0  0  1  0  0  0  0  0  0  0  0
    2.3274   -3.1204    1.6132 C   0  0  0  1  0  0  0  0  0  0  0  0
    1.7786   -5.4561    2.2410 N   0  0  0  1  0  0  0  0  0  0  0  0
    0.9179    2.4772    0.0988 H   0  0  0  1  0  0  0  0  0  0  0  0
   -2.1490    1.9441   -0.0608 H   0  0  0  1  0  0  0  0  0  0  0  0
   -2.9170   -2.4729    1.7064 H   0  0  0  1  0  0  0  0  0  0  0  0
   -3.4893   -4.8297    1.6429 H   0  0  0  1  0  0  0  0  0  0  0  0
   -1.4049   -5.2363   -1.9790 H   0  0  0  1  0  0  0  0  0  0  0  0
   -0.8334   -2.8835   -1.9158 H   0  0  0  1  0  0  0  0  0  0  0  0
   -4.4104   -6.4350    1.1261 H   0  0  0  1  0  0  0  0  0  0  0  0
   -2.9429   -7.2019    1.6836 H   0  0  0  1  0  0  0  0  0  0  0  0
   -3.9861   -8.0297    0.5520 H   0  0  0  1  0  0  0  0  0  0  0  0
    3.9693   -0.7642    0.0688 H   0  0  0  1  0  0  0  0  0  0  0  0
    4.2263   -2.9997    0.5798 H   0  0  0  1  0  0  0  0  0  0  0  0
    3.3343   -3.6580   -1.4969 H   0  0  0  1  0  0  0  0  0  0  0  0
    1.7772   -2.9416   -1.1562 H   0  0  0  1  0  0  0  0  0  0  0  0
    2.9329   -5.4933   -0.0303 H   0  0  0  1  0  0  0  0  0  0  0  0
    1.3603   -5.2484   -0.7521 H   0  0  0  1  0  0  0  0  0  0  0  0
    0.5147   -4.1621    1.1471 H   0  0  0  1  0  0  0  0  0  0  0  0
    1.6414   -2.3324    1.8441 H   0  0  0  1  0  0  0  0  0  0  0  0
    2.9416   -3.3206    2.4662 H   0  0  0  1  0  0  0  0  0  0  0  0
    1.2708   -6.2538    1.9841 H   0  0  0  1  0  0  0  0  0  0  0  0
    1.4748   -5.1445    3.1191 H   0  0  0  1  0  0  0  0  0  0  0  0
  1  2  4  0  0  0  0
  1  6  4  0  0  0  0
  1 18  1  0  0  0  0
  2  3  4  0  0  0  0
  3  4  4  0  0  0  0
  3 25  1  0  0  0  0
  4  5  4  0  0  0  0
  4  7  4  0  0  0  0
  5  6  4  0  0  0  0
  5  9  4  0  0  0  0
  7  8  4  0  0  0  0
  7 26  1  0  0  0  0
  8  9  4  0  0  0  0
  9 10  1  0  0  0  0
 10 11  4  0  0  0  0
 10 15  4  0  0  0  0
 11 12  4  0  0  0  0
 11 27  1  0  0  0  0
 12 13  4  0  0  0  0
 12 28  1  0  0  0  0
 13 14  4  0  0  0  0
 13 16  1  0  0  0  0
 14 15  4  0  0  0  0
 14 29  1  0  0  0  0
 15 30  1  0  0  0  0
 16 17  1  0  0  0  0
 17 31  1  0  0  0  0
 17 32  1  0  0  0  0
 17 33  1  0  0  0  0
 18 19  1  0  0  0  0
 18 34  1  0  0  0  0
 19 20  1  0  0  0  0
 19 23  1  0  0  0  0
 19 35  1  0  0  0  0
 20 21  1  0  0  0  0
 20 36  1  0  0  0  0
 20 37  1  0  0  0  0
 21 22  1  0  0  0  0
 21 38  1  0  0  0  0
 21 39  1  0  0  0  0
 22 23  1  0  0  0  0
 22 24  1  0  0  0  0
 22 40  1  0  0  0  0
 23 41  1  0  0  0  0
 23 42  1  0  0  0  0
 24 43  1  0  0  0  0
 24 44  1  0  0  0  0
M  END
> <ConfClashScore>
0 

> <ConfOneFourInteractionScore>
-0.980204 

> <ConfScore>
0.0374724 

> <ConfScorePBest>
0.00202051 

> <ConfTolerance>
0.280607 

$$$$
c22.sdf
 OpenBabel04162418103D

 44 47  0  0  0  0  0  0  0  0999 V2000
    1.9452   -0.6102    0.1255 C   0  0  0  1  0  0  0  0  0  0  0  0
    2.0363    0.7233    0.1481 N   0  0  0  1  0  0  0  0  0  0  0  0
    0.8946    1.4376    0.0881 C   0  0  0  1  0  0  0  0  0  0  0  0
   -0.3453    0.7386    0.0096 C   0  0  0  1  0  0  0  0  0  0  0  0
   -0.2528   -0.6478    0.0020 C   0  0  0  1  0  0  0  0  0  0  0  0
    0.8779   -1.3912    0.0539 N   0  0  0  1  0  0  0  0  0  0  0  0
   -1.7304    0.9921   -0.0538 C   0  0  0  1  0  0  0  0  0  0  0  0
   -2.4281   -0.1192   -0.1029 N   0  0  0  1  0  0  0  0  0  0  0  0
   -1.5125   -1.1342   -0.0681 N   0  0  0  1  0  0  0  0  0  0  0  0
   -1.8421   -2.5201   -0.1013 C   0  0  0  1  0  0  0  0  0  0  0  0
   -0.9997   -3.4407    0.4927 C   0  0  0  1  0  0  0  0  0  0  0  0
   -1.3632   -4.7771    0.5490 C   0  0  0  1  0  0  0  0  0  0  0  0
   -2.5654   -5.1900    0.0064 C   0  0  0  1  0  0  0  0  0  0  0  0
   -3.4102   -4.2664   -0.5894 C   0  0  0  1  0  0  0  0  0  0  0  0
   -3.0480   -2.9338   -0.6456 C   0  0  0  1  0  0  0  0  0  0  0  0
   -3.0233   -6.4644   -0.0027 O   0  0  0  1  0  0  0  0  0  0  0  0
   -2.2920   -7.4300    0.7688 C   0  0  0  1  0  0  0  0  0  0  0  0
    3.1148   -1.2568    0.1845 N   0  0  0  1  0  0  0  0  0  0  0  0
    4.4439   -0.6455    0.2771 C   0  0  0  1  0  0  0  0  0  0  0  0
    5.5124   -1.7112    0.5367 C   0  0  0  1  0  0  0  0  0  0  0  0
    5.6885   -1.7510    2.0606 C   0  0  0  1  0  0  0  0  0  0  0  0
    4.7329   -0.6973    2.6305 C   0  0  0  1  0  0  0  0  0  0  0  0
    4.5275    0.2867    1.4907 C   0  0  0  1  0  0  0  0  0  0  0  0
    5.3484   -0.0096    3.8241 N   0  0  0  1  0  0  0  0  0  0  0  0
    0.9179    2.4772    0.0987 H   0  0  0  1  0  0  0  0  0  0  0  0
   -2.1489    1.9441   -0.0608 H   0  0  0  1  0  0  0  0  0  0  0  0
   -0.0932   -3.1308    0.8974 H   0  0  0  1  0  0  0  0  0  0  0  0
   -0.7312   -5.4694    0.9996 H   0  0  0  1  0  0  0  0  0  0  0  0
   -4.3168   -4.5763   -0.9941 H   0  0  0  1  0  0  0  0  0  0  0  0
   -3.6800   -2.2416   -1.0962 H   0  0  0  1  0  0  0  0  0  0  0  0
   -2.2136   -7.0928    1.7813 H   0  0  0  1  0  0  0  0  0  0  0  0
   -1.3121   -7.5480    0.3557 H   0  0  0  1  0  0  0  0  0  0  0  0
   -2.8054   -8.3685    0.7443 H   0  0  0  1  0  0  0  0  0  0  0  0
    3.0796   -2.2360    0.1638 H   0  0  0  1  0  0  0  0  0  0  0  0
    4.6548   -0.1109   -0.6253 H   0  0  0  1  0  0  0  0  0  0  0  0
    6.4322   -1.4422    0.0607 H   0  0  0  1  0  0  0  0  0  0  0  0
    5.1870   -2.6634    0.1728 H   0  0  0  1  0  0  0  0  0  0  0  0
    5.4383   -2.7207    2.4373 H   0  0  0  1  0  0  0  0  0  0  0  0
    6.6988   -1.5157    2.3230 H   0  0  0  1  0  0  0  0  0  0  0  0
    3.8039   -1.1447    2.9160 H   0  0  0  1  0  0  0  0  0  0  0  0
    5.3533    0.9617    1.4063 H   0  0  0  1  0  0  0  0  0  0  0  0
    3.6224    0.8435    1.6163 H   0  0  0  1  0  0  0  0  0  0  0  0
    5.3616   -0.6259    4.5859 H   0  0  0  1  0  0  0  0  0  0  0  0
    4.8186    0.7821    4.0538 H   0  0  0  1  0  0  0  0  0  0  0  0
  1  2  4  0  0  0  0
  1  6  4  0  0  0  0
  1 18  1  0  0  0  0
  2  3  4  0  0  0  0
  3  4  4  0  0  0  0
  3 25  1  0  0  0  0
  4  5  4  0  0  0  0
  4  7  4  0  0  0  0
  5  6  4  0  0  0  0
  5  9  4  0  0  0  0
  7  8  4  0  0  0  0
  7 26  1  0  0  0  0
  8  9  4  0  0  0  0
  9 10  1  0  0  0  0
 10 11  4  0  0  0  0
 10 15  4  0  0  0  0
 11 12  4  0  0  0  0
 11 27  1  0  0  0  0
 12 13  4  0  0  0  0
 12 28  1  0  0  0  0
 13 14  4  0  0  0  0
 13 16  1  0  0  0  0
 14 15  4  0  0  0  0
 14 29  1  0  0  0  0
 15 30  1  0  0  0  0
 16 17  1  0  0  0  0
 17 31  1  0  0  0  0
 17 32  1  0  0  0  0
 17 33  1  0  0  0  0
 18 19  1  0  0  0  0
 18 34  1  0  0  0  0
 19 20  1  0  0  0  0
 19 23  1  0  0  0  0
 19 35  1  0  0  0  0
 20 21  1  0  0  0  0
 20 36  1  0  0  0  0
 20 37  1  0  0  0  0
 21 22  1  0  0  0  0
 21 38  1  0  0  0  0
 21 39  1  0  0  0  0
 22 23  1  0  0  0  0
 22 24  1  0  0  0  0
 22 40  1  0  0  0  0
 23 41  1  0  0  0  0
 23 42  1  0  0  0  0
 24 43  1  0  0  0  0
 24 44  1  0  0  0  0
M  END
> <ConfClashScore>
0 

> <ConfOneFourInteractionScore>
-0.985399 

> <ConfScore>
0.0386089 

> <ConfScorePBest>
0.00200718 

> <ConfTolerance>
0.428734 

$$$$
c22.sdf
 OpenBabel04162418103D

 44 47  0  0  0  0  0  0  0  0999 V2000
    1.9452   -0.6102    0.1256 C   0  0  0  1  0  0  0  0  0  0  0  0
    2.0363    0.7233    0.1482 N   0  0  0  1  0  0  0  0  0  0  0  0
    0.8945    1.4375    0.0881 C   0  0  0  1  0  0  0  0  0  0  0  0
   -0.3453    0.7386    0.0096 C   0  0  0  1  0  0  0  0  0  0  0  0
   -0.2528   -0.6478    0.0019 C   0  0  0  1  0  0  0  0  0  0  0  0
    0.8780   -1.3913    0.0539 N   0  0  0  1  0  0  0  0  0  0  0  0
   -1.7303    0.9921   -0.0538 C   0  0  0  1  0  0  0  0  0  0  0  0
   -2.4281   -0.1192   -0.1029 N   0  0  0  1  0  0  0  0  0  0  0  0
   -1.5125   -1.1341   -0.0681 N   0  0  0  1  0  0  0  0  0  0  0  0
   -1.8420   -2.5193   -0.1013 C   0  0  0  1  0  0  0  0  0  0  0  0
   -2.9686   -2.9455   -0.7789 C   0  0  0  1  0  0  0  0  0  0  0  0
   -3.2861   -4.2943   -0.8157 C   0  0  0  1  0  0  0  0  0  0  0  0
   -2.4792   -5.2123   -0.1703 C   0  0  0  1  0  0  0  0  0  0  0  0
   -1.3492   -4.7846    0.5092 C   0  0  0  1  0  0  0  0  0  0  0  0
   -1.0325   -3.4398    0.5460 C   0  0  0  1  0  0  0  0  0  0  0  0
   -2.6901   -6.5494   -0.1327 O   0  0  0  1  0  0  0  0  0  0  0  0
   -3.8587   -7.0485   -0.8020 C   0  0  0  1  0  0  0  0  0  0  0  0
    3.1213   -1.2604    0.1849 N   0  0  0  1  0  0  0  0  0  0  0  0
    3.3718   -2.7025    0.2007 C   0  0  0  1  0  0  0  0  0  0  0  0
    4.7308   -3.0290    0.8334 C   0  0  0  1  0  0  0  0  0  0  0  0
    5.7500   -2.7072   -0.2526 C   0  0  0  1  0  0  0  0  0  0  0  0
    5.0193   -2.9450   -1.5793 C   0  0  0  1  0  0  0  0  0  0  0  0
    3.5585   -3.2539   -1.2154 C   0  0  0  1  0  0  0  0  0  0  0  0
    5.6188   -4.0843   -2.2950 N   0  0  0  1  0  0  0  0  0  0  0  0
    0.9179    2.4773    0.0987 H   0  0  0  1  0  0  0  0  0  0  0  0
   -2.1490    1.9441   -0.0609 H   0  0  0  1  0  0  0  0  0  0  0  0
   -3.5779   -2.2544   -1.2612 H   0  0  0  1  0  0  0  0  0  0  0  0
   -4.1317   -4.6155   -1.3289 H   0  0  0  1  0  0  0  0  0  0  0  0
   -0.7398   -5.4757    0.9914 H   0  0  0  1  0  0  0  0  0  0  0  0
   -0.1869   -3.1185    1.0592 H   0  0  0  1  0  0  0  0  0  0  0  0
   -4.1226   -6.3874   -1.6008 H   0  0  0  1  0  0  0  0  0  0  0  0
   -4.6695   -7.1083   -0.1063 H   0  0  0  1  0  0  0  0  0  0  0  0
   -3.6547   -8.0216   -1.1973 H   0  0  0  1  0  0  0  0  0  0  0  0
    3.9184   -0.6916    0.2228 H   0  0  0  1  0  0  0  0  0  0  0  0
    2.5730   -3.1982    0.7117 H   0  0  0  1  0  0  0  0  0  0  0  0
    4.8988   -2.4240    1.6997 H   0  0  0  1  0  0  0  0  0  0  0  0
    4.7821   -4.0629    1.1043 H   0  0  0  1  0  0  0  0  0  0  0  0
    6.0676   -1.6882   -0.1777 H   0  0  0  1  0  0  0  0  0  0  0  0
    6.5993   -3.3529   -0.1721 H   0  0  0  1  0  0  0  0  0  0  0  0
    5.0714   -2.0702   -2.1932 H   0  0  0  1  0  0  0  0  0  0  0  0
    2.8916   -2.7693   -1.8974 H   0  0  0  1  0  0  0  0  0  0  0  0
    3.3827   -4.3093   -1.2330 H   0  0  0  1  0  0  0  0  0  0  0  0
    6.5270   -3.8507   -2.5796 H   0  0  0  1  0  0  0  0  0  0  0  0
    5.0751   -4.2983   -3.0818 H   0  0  0  1  0  0  0  0  0  0  0  0
  1  2  4  0  0  0  0
  1  6  4  0  0  0  0
  1 18  1  0  0  0  0
  2  3  4  0  0  0  0
  3  4  4  0  0  0  0
  3 25  1  0  0  0  0
  4  5  4  0  0  0  0
  4  7  4  0  0  0  0
  5  6  4  0  0  0  0
  5  9  4  0  0  0  0
  7  8  4  0  0  0  0
  7 26  1  0  0  0  0
  8  9  4  0  0  0  0
  9 10  1  0  0  0  0
 10 11  4  0  0  0  0
 10 15  4  0  0  0  0
 11 12  4  0  0  0  0
 11 27  1  0  0  0  0
 12 13  4  0  0  0  0
 12 28  1  0  0  0  0
 13 14  4  0  0  0  0
 13 16  1  0  0  0  0
 14 15  4  0  0  0  0
 14 29  1  0  0  0  0
 15 30  1  0  0  0  0
 16 17  1  0  0  0  0
 17 31  1  0  0  0  0
 17 32  1  0  0  0  0
 17 33  1  0  0  0  0
 18 19  1  0  0  0  0
 18 34  1  0  0  0  0
 19 20  1  0  0  0  0
 19 23  1  0  0  0  0
 19 35  1  0  0  0  0
 20 21  1  0  0  0  0
 20 36  1  0  0  0  0
 20 37  1  0  0  0  0
 21 22  1  0  0  0  0
 21 38  1  0  0  0  0
 21 39  1  0  0  0  0
 22 23  1  0  0  0  0
 22 24  1  0  0  0  0
 22 40  1  0  0  0  0
 23 41  1  0  0  0  0
 23 42  1  0  0  0  0
 24 43  1  0  0  0  0
 24 44  1  0  0  0  0
M  END
> <ConfClashScore>
0 

> <ConfOneFourInteractionScore>
-0.984337 

> <ConfScore>
0.0406627 

> <ConfScorePBest>
0.00199385 

> <ConfTolerance>
0.555281 

$$$$
c22.sdf
 OpenBabel04162418103D

 44 47  0  0  0  0  0  0  0  0999 V2000
    1.9452   -0.6103    0.1256 C   0  0  0  1  0  0  0  0  0  0  0  0
    2.0363    0.7233    0.1482 N   0  0  0  1  0  0  0  0  0  0  0  0
    0.8945    1.4375    0.0881 C   0  0  0  1  0  0  0  0  0  0  0  0
   -0.3453    0.7386    0.0096 C   0  0  0  1  0  0  0  0  0  0  0  0
   -0.2528   -0.6478    0.0020 C   0  0  0  1  0  0  0  0  0  0  0  0
    0.8779   -1.3913    0.0539 N   0  0  0  1  0  0  0  0  0  0  0  0
   -1.7303    0.9921   -0.0538 C   0  0  0  1  0  0  0  0  0  0  0  0
   -2.4281   -0.1191   -0.1029 N   0  0  0  1  0  0  0  0  0  0  0  0
   -1.5125   -1.1341   -0.0681 N   0  0  0  1  0  0  0  0  0  0  0  0
   -1.8385   -2.5051   -0.1010 C   0  0  0  1  0  0  0  0  0  0  0  0
   -1.2796   -3.4201    0.7712 C   0  0  0  1  0  0  0  0  0  0  0  0
   -1.6401   -4.7565    0.6984 C   0  0  0  1  0  0  0  0  0  0  0  0
   -2.5544   -5.1751   -0.2499 C   0  0  0  1  0  0  0  0  0  0  0  0
   -3.1149   -4.2573   -1.1246 C   0  0  0  1  0  0  0  0  0  0  0  0
   -2.7555   -2.9248   -1.0521 C   0  0  0  1  0  0  0  0  0  0  0  0
   -3.0024   -6.4293   -0.4525 O   0  0  0  1  0  0  0  0  0  0  0  0
   -2.4800   -7.4212    0.4618 C   0  0  0  1  0  0  0  0  0  0  0  0
    3.1257   -1.2629    0.1852 N   0  0  0  1  0  0  0  0  0  0  0  0
    4.4302   -0.6028    0.0837 C   0  0  0  1  0  0  0  0  0  0  0  0
    4.6335    0.3639    1.2535 C   0  0  0  1  0  0  0  0  0  0  0  0
    5.1487    1.6662    0.6602 C   0  0  0  1  0  0  0  0  0  0  0  0
    5.5021    1.3469   -0.8001 C   0  0  0  1  0  0  0  0  0  0  0  0
    4.4953    0.2684   -1.1833 C   0  0  0  1  0  0  0  0  0  0  0  0
    6.9006    0.8345   -0.9107 N   0  0  0  1  0  0  0  0  0  0  0  0
    0.9179    2.4772    0.0988 H   0  0  0  1  0  0  0  0  0  0  0  0
   -2.1490    1.9440   -0.0608 H   0  0  0  1  0  0  0  0  0  0  0  0
   -0.5886   -3.1057    1.4821 H   0  0  0  1  0  0  0  0  0  0  0  0
   -1.2226   -5.4443    1.3573 H   0  0  0  1  0  0  0  0  0  0  0  0
   -3.8058   -4.5716   -1.8356 H   0  0  0  1  0  0  0  0  0  0  0  0
   -3.1731   -2.2369   -1.7110 H   0  0  0  1  0  0  0  0  0  0  0  0
   -2.5661   -7.0618    1.4660 H   0  0  0  1  0  0  0  0  0  0  0  0
   -1.4505   -7.6063    0.2366 H   0  0  0  1  0  0  0  0  0  0  0  0
   -3.0369   -8.3291    0.3591 H   0  0  0  1  0  0  0  0  0  0  0  0
    3.1093   -2.2356    0.3033 H   0  0  0  1  0  0  0  0  0  0  0  0
    5.2042   -1.3414    0.0700 H   0  0  0  1  0  0  0  0  0  0  0  0
    5.3484   -0.0358    1.9419 H   0  0  0  1  0  0  0  0  0  0  0  0
    3.7054    0.5309    1.7591 H   0  0  0  1  0  0  0  0  0  0  0  0
    6.0167    1.9995    1.1896 H   0  0  0  1  0  0  0  0  0  0  0  0
    4.3917    2.4213    0.7041 H   0  0  0  1  0  0  0  0  0  0  0  0
    5.3890    2.2125   -1.4188 H   0  0  0  1  0  0  0  0  0  0  0  0
    4.8387   -0.2983   -2.0234 H   0  0  0  1  0  0  0  0  0  0  0  0
    3.5399    0.6952   -1.4069 H   0  0  0  1  0  0  0  0  0  0  0  0
    7.0725    0.5490   -1.8322 H   0  0  0  1  0  0  0  0  0  0  0  0
    7.0178    0.0725   -0.3056 H   0  0  0  1  0  0  0  0  0  0  0  0
  1  2  4  0  0  0  0
  1  6  4  0  0  0  0
  1 18  1  0  0  0  0
  2  3  4  0  0  0  0
  3  4  4  0  0  0  0
  3 25  1  0  0  0  0
  4  5  4  0  0  0  0
  4  7  4  0  0  0  0
  5  6  4  0  0  0  0
  5  9  4  0  0  0  0
  7  8  4  0  0  0  0
  7 26  1  0  0  0  0
  8  9  4  0  0  0  0
  9 10  1  0  0  0  0
 10 11  4  0  0  0  0
 10 15  4  0  0  0  0
 11 12  4  0  0  0  0
 11 27  1  0  0  0  0
 12 13  4  0  0  0  0
 12 28  1  0  0  0  0
 13 14  4  0  0  0  0
 13 16  1  0  0  0  0
 14 15  4  0  0  0  0
 14 29  1  0  0  0  0
 15 30  1  0  0  0  0
 16 17  1  0  0  0  0
 17 31  1  0  0  0  0
 17 32  1  0  0  0  0
 17 33  1  0  0  0  0
 18 19  1  0  0  0  0
 18 34  1  0  0  0  0
 19 20  1  0  0  0  0
 19 23  1  0  0  0  0
 19 35  1  0  0  0  0
 20 21  1  0  0  0  0
 20 36  1  0  0  0  0
 20 37  1  0  0  0  0
 21 22  1  0  0  0  0
 21 38  1  0  0  0  0
 21 39  1  0  0  0  0
 22 23  1  0  0  0  0
 22 24  1  0  0  0  0
 22 40  1  0  0  0  0
 23 41  1  0  0  0  0
 23 42  1  0  0  0  0
 24 43  1  0  0  0  0
 24 44  1  0  0  0  0
M  END
> <ConfClashScore>
0 

> <ConfOneFourInteractionScore>
-0.980204 

> <ConfScore>
0.0425272 

> <ConfScorePBest>
0.00198052 

> <ConfTolerance>
0.253861 

$$$$
c22.sdf
 OpenBabel04162418103D

 44 47  0  0  0  0  0  0  0  0999 V2000
    1.9452   -0.6102    0.1255 C   0  0  0  1  0  0  0  0  0  0  0  0
    2.0363    0.7233    0.1481 N   0  0  0  1  0  0  0  0  0  0  0  0
    0.8946    1.4376    0.0881 C   0  0  0  1  0  0  0  0  0  0  0  0
   -0.3452    0.7386    0.0096 C   0  0  0  1  0  0  0  0  0  0  0  0
   -0.2528   -0.6478    0.0020 C   0  0  0  1  0  0  0  0  0  0  0  0
    0.8779   -1.3913    0.0539 N   0  0  0  1  0  0  0  0  0  0  0  0
   -1.7303    0.9921   -0.0538 C   0  0  0  1  0  0  0  0  0  0  0  0
   -2.4282   -0.1192   -0.1028 N   0  0  0  1  0  0  0  0  0  0  0  0
   -1.5126   -1.1342   -0.0681 N   0  0  0  1  0  0  0  0  0  0  0  0
   -1.8396   -2.5099   -0.1011 C   0  0  0  1  0  0  0  0  0  0  0  0
   -1.0657   -3.3350   -0.8950 C   0  0  0  1  0  0  0  0  0  0  0  0
   -1.3958   -4.6744   -1.0310 C   0  0  0  1  0  0  0  0  0  0  0  0
   -2.5019   -5.1836   -0.3772 C   0  0  0  1  0  0  0  0  0  0  0  0
   -3.2780   -4.3559    0.4191 C   0  0  0  1  0  0  0  0  0  0  0  0
   -2.9490   -3.0204    0.5549 C   0  0  0  1  0  0  0  0  0  0  0  0
   -2.7690   -6.5097   -0.4399 O   0  0  0  1  0  0  0  0  0  0  0  0
   -2.0747   -7.2725   -1.4392 C   0  0  0  1  0  0  0  0  0  0  0  0
    3.1257   -1.2628    0.1851 N   0  0  0  1  0  0  0  0  0  0  0  0
    4.4230   -0.5945    0.3306 C   0  0  0  1  0  0  0  0  0  0  0  0
    4.4387    0.3104    1.5778 C   0  0  0  1  0  0  0  0  0  0  0  0
    5.4705    1.4150    1.2890 C   0  0  0  1  0  0  0  0  0  0  0  0
    5.7077    1.4126   -0.2476 C   0  0  0  1  0  0  0  0  0  0  0  0
    4.6736    0.4031   -0.8508 C   0  0  0  1  0  0  0  0  0  0  0  0
    7.0897    0.9744   -0.5523 N   0  0  0  1  0  0  0  0  0  0  0  0
    0.9178    2.4772    0.0987 H   0  0  0  1  0  0  0  0  0  0  0  0
   -2.1490    1.9441   -0.0608 H   0  0  0  1  0  0  0  0  0  0  0  0
   -0.2357   -2.9510   -1.3903 H   0  0  0  1  0  0  0  0  0  0  0  0
   -0.8111   -5.2962   -1.6252 H   0  0  0  1  0  0  0  0  0  0  0  0
   -4.1080   -4.7398    0.9144 H   0  0  0  1  0  0  0  0  0  0  0  0
   -3.5337   -2.3985    1.1490 H   0  0  0  1  0  0  0  0  0  0  0  0
   -2.2693   -6.8562   -2.4055 H   0  0  0  1  0  0  0  0  0  0  0  0
   -2.4141   -8.2868   -1.4131 H   0  0  0  1  0  0  0  0  0  0  0  0
   -1.0231   -7.2425   -1.2436 H   0  0  0  1  0  0  0  0  0  0  0  0
    3.1150   -2.2411    0.1276 H   0  0  0  1  0  0  0  0  0  0  0  0
    5.1995   -1.3288    0.3817 H   0  0  0  1  0  0  0  0  0  0  0  0
    4.7282   -0.2519    2.4409 H   0  0  0  1  0  0  0  0  0  0  0  0
    3.4713    0.7384    1.7384 H   0  0  0  1  0  0  0  0  0  0  0  0
    5.0910    2.3651    1.6022 H   0  0  0  1  0  0  0  0  0  0  0  0
    6.3856    1.2086    1.8037 H   0  0  0  1  0  0  0  0  0  0  0  0
    5.5467    2.3914   -0.6485 H   0  0  0  1  0  0  0  0  0  0  0  0
    5.0815   -0.1027   -1.7008 H   0  0  0  1  0  0  0  0  0  0  0  0
    3.7692    0.9013   -1.1315 H   0  0  0  1  0  0  0  0  0  0  0  0
    7.7188    1.6874   -0.3152 H   0  0  0  1  0  0  0  0  0  0  0  0
    7.1660    0.7766   -1.5091 H   0  0  0  1  0  0  0  0  0  0  0  0
  1  2  4  0  0  0  0
  1  6  4  0  0  0  0
  1 18  1  0  0  0  0
  2  3  4  0  0  0  0
  3  4  4  0  0  0  0
  3 25  1  0  0  0  0
  4  5  4  0  0  0  0
  4  7  4  0  0  0  0
  5  6  4  0  0  0  0
  5  9  4  0  0  0  0
  7  8  4  0  0  0  0
  7 26  1  0  0  0  0
  8  9  4  0  0  0  0
  9 10  1  0  0  0  0
 10 11  4  0  0  0  0
 10 15  4  0  0  0  0
 11 12  4  0  0  0  0
 11 27  1  0  0  0  0
 12 13  4  0  0  0  0
 12 28  1  0  0  0  0
 13 14  4  0  0  0  0
 13 16  1  0  0  0  0
 14 15  4  0  0  0  0
 14 29  1  0  0  0  0
 15 30  1  0  0  0  0
 16 17  1  0  0  0  0
 17 31  1  0  0  0  0
 17 32  1  0  0  0  0
 17 33  1  0  0  0  0
 18 19  1  0  0  0  0
 18 34  1  0  0  0  0
 19 20  1  0  0  0  0
 19 23  1  0  0  0  0
 19 35  1  0  0  0  0
 20 21  1  0  0  0  0
 20 36  1  0  0  0  0
 20 37  1  0  0  0  0
 21 22  1  0  0  0  0
 21 38  1  0  0  0  0
 21 39  1  0  0  0  0
 22 23  1  0  0  0  0
 22 24  1  0  0  0  0
 22 40  1  0  0  0  0
 23 41  1  0  0  0  0
 23 42  1  0  0  0  0
 24 43  1  0  0  0  0
 24 44  1  0  0  0  0
M  END
> <ConfClashScore>
0.000406378 

> <ConfOneFourInteractionScore>
-0.980204 

> <ConfScore>
0.0446204 

> <ConfScorePBest>
0.00196719 

> <ConfTolerance>
0.424465 

$$$$
c22.sdf
 OpenBabel04162418103D

 44 47  0  0  0  0  0  0  0  0999 V2000
    1.9452   -0.6102    0.1256 C   0  0  0  1  0  0  0  0  0  0  0  0
    2.0363    0.7233    0.1482 N   0  0  0  1  0  0  0  0  0  0  0  0
    0.8946    1.4376    0.0881 C   0  0  0  1  0  0  0  0  0  0  0  0
   -0.3453    0.7386    0.0096 C   0  0  0  1  0  0  0  0  0  0  0  0
   -0.2528   -0.6478    0.0020 C   0  0  0  1  0  0  0  0  0  0  0  0
    0.8780   -1.3912    0.0539 N   0  0  0  1  0  0  0  0  0  0  0  0
   -1.7303    0.9921   -0.0538 C   0  0  0  1  0  0  0  0  0  0  0  0
   -2.4281   -0.1192   -0.1029 N   0  0  0  1  0  0  0  0  0  0  0  0
   -1.5125   -1.1341   -0.0681 N   0  0  0  1  0  0  0  0  0  0  0  0
   -1.8418   -2.5192   -0.1013 C   0  0  0  1  0  0  0  0  0  0  0  0
   -2.1587   -3.1254   -1.3023 C   0  0  0  1  0  0  0  0  0  0  0  0
   -2.4740   -4.4749   -1.3354 C   0  0  0  1  0  0  0  0  0  0  0  0
   -2.4769   -5.2129   -0.1668 C   0  0  0  1  0  0  0  0  0  0  0  0
   -2.1590   -4.6047    1.0377 C   0  0  0  1  0  0  0  0  0  0  0  0
   -1.8446   -3.2592    1.0707 C   0  0  0  1  0  0  0  0  0  0  0  0
   -2.7707   -6.5245   -0.0751 O   0  0  0  1  0  0  0  0  0  0  0  0
   -3.1529   -7.1547   -1.3199 C   0  0  0  1  0  0  0  0  0  0  0  0
    3.1403   -1.2709    0.1858 N   0  0  0  1  0  0  0  0  0  0  0  0
    3.2086   -2.7313    0.3326 C   0  0  0  1  0  0  0  0  0  0  0  0
    2.4454   -3.2066    1.5757 C   0  0  0  1  0  0  0  0  0  0  0  0
    3.3726   -2.8907    2.7427 C   0  0  0  1  0  0  0  0  0  0  0  0
    4.7919   -2.9776    2.1693 C   0  0  0  1  0  0  0  0  0  0  0  0
    4.6311   -3.1958    0.6566 C   0  0  0  1  0  0  0  0  0  0  0  0
    5.5180   -4.1075    2.7735 N   0  0  0  1  0  0  0  0  0  0  0  0
    0.9179    2.4773    0.0988 H   0  0  0  1  0  0  0  0  0  0  0  0
   -2.1490    1.9440   -0.0608 H   0  0  0  1  0  0  0  0  0  0  0  0
   -2.1605   -2.5693   -2.1811 H   0  0  0  1  0  0  0  0  0  0  0  0
   -2.7085   -4.9320   -2.2396 H   0  0  0  1  0  0  0  0  0  0  0  0
   -2.1572   -5.1609    1.9164 H   0  0  0  1  0  0  0  0  0  0  0  0
   -1.6101   -2.8021    1.9750 H   0  0  0  1  0  0  0  0  0  0  0  0
   -3.5154   -6.4121   -1.9996 H   0  0  0  1  0  0  0  0  0  0  0  0
   -3.9230   -7.8738   -1.1336 H   0  0  0  1  0  0  0  0  0  0  0  0
   -2.3028   -7.6443   -1.7472 H   0  0  0  1  0  0  0  0  0  0  0  0
    3.9731   -0.7573    0.1297 H   0  0  0  1  0  0  0  0  0  0  0  0
    2.8377   -3.1974   -0.5564 H   0  0  0  1  0  0  0  0  0  0  0  0
    1.5203   -2.6784    1.6753 H   0  0  0  1  0  0  0  0  0  0  0  0
    2.2525   -4.2577    1.5210 H   0  0  0  1  0  0  0  0  0  0  0  0
    3.2421   -3.6050    3.5285 H   0  0  0  1  0  0  0  0  0  0  0  0
    3.1801   -1.9075    3.1182 H   0  0  0  1  0  0  0  0  0  0  0  0
    5.3243   -2.0689    2.3584 H   0  0  0  1  0  0  0  0  0  0  0  0
    4.7528   -4.2302    0.4119 H   0  0  0  1  0  0  0  0  0  0  0  0
    5.3479   -2.6140    0.1155 H   0  0  0  1  0  0  0  0  0  0  0  0
    5.5499   -3.9933    3.7463 H   0  0  0  1  0  0  0  0  0  0  0  0
    6.4309   -4.1365    2.4181 H   0  0  0  1  0  0  0  0  0  0  0  0
  1  2  4  0  0  0  0
  1  6  4  0  0  0  0
  1 18  1  0  0  0  0
  2  3  4  0  0  0  0
  3  4  4  0  0  0  0
  3 25  1  0  0  0  0
  4  5  4  0  0  0  0
  4  7  4  0  0  0  0
  5  6  4  0  0  0  0
  5  9  4  0  0  0  0
  7  8  4  0  0  0  0
  7 26  1  0  0  0  0
  8  9  4  0  0  0  0
  9 10  1  0  0  0  0
 10 11  4  0  0  0  0
 10 15  4  0  0  0  0
 11 12  4  0  0  0  0
 11 27  1  0  0  0  0
 12 13  4  0  0  0  0
 12 28  1  0  0  0  0
 13 14  4  0  0  0  0
 13 16  1  0  0  0  0
 14 15  4  0  0  0  0
 14 29  1  0  0  0  0
 15 30  1  0  0  0  0
 16 17  1  0  0  0  0
 17 31  1  0  0  0  0
 17 32  1  0  0  0  0
 17 33  1  0  0  0  0
 18 19  1  0  0  0  0
 18 34  1  0  0  0  0
 19 20  1  0  0  0  0
 19 23  1  0  0  0  0
 19 35  1  0  0  0  0
 20 21  1  0  0  0  0
 20 36  1  0  0  0  0
 20 37  1  0  0  0  0
 21 22  1  0  0  0  0
 21 38  1  0  0  0  0
 21 39  1  0  0  0  0
 22 23  1  0  0  0  0
 22 24  1  0  0  0  0
 22 40  1  0  0  0  0
 23 41  1  0  0  0  0
 23 42  1  0  0  0  0
 24 43  1  0  0  0  0
 24 44  1  0  0  0  0
M  END
> <ConfClashScore>
0 

> <ConfOneFourInteractionScore>
-0.985399 

> <ConfScore>
0.0449803 

> <ConfScorePBest>
0.00195387 

> <ConfTolerance>
0.661574 

$$$$
c22.sdf
 OpenBabel04162418103D

 44 47  0  0  0  0  0  0  0  0999 V2000
    1.9452   -0.6102    0.1255 C   0  0  0  1  0  0  0  0  0  0  0  0
    2.0363    0.7233    0.1481 N   0  0  0  1  0  0  0  0  0  0  0  0
    0.8946    1.4376    0.0881 C   0  0  0  1  0  0  0  0  0  0  0  0
   -0.3453    0.7386    0.0096 C   0  0  0  1  0  0  0  0  0  0  0  0
   -0.2528   -0.6477    0.0020 C   0  0  0  1  0  0  0  0  0  0  0  0
    0.8779   -1.3913    0.0539 N   0  0  0  1  0  0  0  0  0  0  0  0
   -1.7303    0.9921   -0.0538 C   0  0  0  1  0  0  0  0  0  0  0  0
   -2.4281   -0.1191   -0.1029 N   0  0  0  1  0  0  0  0  0  0  0  0
   -1.5125   -1.1342   -0.0681 N   0  0  0  1  0  0  0  0  0  0  0  0
   -1.8369   -2.4985   -0.1008 C   0  0  0  1  0  0  0  0  0  0  0  0
   -2.6727   -2.8848   -1.1315 C   0  0  0  1  0  0  0  0  0  0  0  0
   -3.0500   -4.2128   -1.2571 C   0  0  0  1  0  0  0  0  0  0  0  0
   -2.5946   -5.1496   -0.3486 C   0  0  0  1  0  0  0  0  0  0  0  0
   -1.7564   -4.7619    0.6853 C   0  0  0  1  0  0  0  0  0  0  0  0
   -1.3801   -3.4378    0.8105 C   0  0  0  1  0  0  0  0  0  0  0  0
   -2.9674   -6.4459   -0.4682 O   0  0  0  1  0  0  0  0  0  0  0  0
   -3.9272   -6.7612   -1.4889 C   0  0  0  1  0  0  0  0  0  0  0  0
    3.1213   -1.2603    0.1849 N   0  0  0  1  0  0  0  0  0  0  0  0
    4.4189   -0.5918    0.2739 C   0  0  0  1  0  0  0  0  0  0  0  0
    4.6931    0.2474   -0.9891 C   0  0  0  1  0  0  0  0  0  0  0  0
    6.2241    0.3285   -1.1217 C   0  0  0  1  0  0  0  0  0  0  0  0
    6.8093   -0.8028   -0.2302 C   0  0  0  1  0  0  0  0  0  0  0  0
    5.5865   -1.6358    0.2827 C   0  0  0  1  0  0  0  0  0  0  0  0
    7.5501   -0.2229    0.9133 N   0  0  0  1  0  0  0  0  0  0  0  0
    0.9178    2.4772    0.0987 H   0  0  0  1  0  0  0  0  0  0  0  0
   -2.1490    1.9440   -0.0609 H   0  0  0  1  0  0  0  0  0  0  0  0
   -3.0186   -2.1793   -1.8128 H   0  0  0  1  0  0  0  0  0  0  0  0
   -3.6756   -4.5042   -2.0350 H   0  0  0  1  0  0  0  0  0  0  0  0
   -1.4104   -5.4674    1.3665 H   0  0  0  1  0  0  0  0  0  0  0  0
   -0.7545   -3.1464    1.5884 H   0  0  0  1  0  0  0  0  0  0  0  0
   -4.0914   -7.8182   -1.5107 H   0  0  0  1  0  0  0  0  0  0  0  0
   -3.5558   -6.4386   -2.4392 H   0  0  0  1  0  0  0  0  0  0  0  0
   -4.8495   -6.2615   -1.2774 H   0  0  0  1  0  0  0  0  0  0  0  0
    3.1078   -2.2402    0.1675 H   0  0  0  1  0  0  0  0  0  0  0  0
    4.4463    0.0193    1.1518 H   0  0  0  1  0  0  0  0  0  0  0  0
    4.2772    1.2273   -0.8815 H   0  0  0  1  0  0  0  0  0  0  0  0
    4.2704   -0.2277   -1.8496 H   0  0  0  1  0  0  0  0  0  0  0  0
    6.5735    1.2819   -0.7843 H   0  0  0  1  0  0  0  0  0  0  0  0
    6.5142    0.1821   -2.1412 H   0  0  0  1  0  0  0  0  0  0  0  0
    7.4660   -1.4236   -0.8032 H   0  0  0  1  0  0  0  0  0  0  0  0
    5.7621   -2.0077    1.2704 H   0  0  0  1  0  0  0  0  0  0  0  0
    5.3758   -2.4534   -0.3746 H   0  0  0  1  0  0  0  0  0  0  0  0
    6.9165    0.0465    1.6108 H   0  0  0  1  0  0  0  0  0  0  0  0
    8.0554    0.5606    0.6113 H   0  0  0  1  0  0  0  0  0  0  0  0
  1  2  4  0  0  0  0
  1  6  4  0  0  0  0
  1 18  1  0  0  0  0
  2  3  4  0  0  0  0
  3  4  4  0  0  0  0
  3 25  1  0  0  0  0
  4  5  4  0  0  0  0
  4  7  4  0  0  0  0
  5  6  4  0  0  0  0
  5  9  4  0  0  0  0
  7  8  4  0  0  0  0
  7 26  1  0  0  0  0
  8  9  4  0  0  0  0
  9 10  1  0  0  0  0
 10 11  4  0  0  0  0
 10 15  4  0  0  0  0
 11 12  4  0  0  0  0
 11 27  1  0  0  0  0
 12 13  4  0  0  0  0
 12 28  1  0  0  0  0
 13 14  4  0  0  0  0
 13 16  1  0  0  0  0
 14 15  4  0  0  0  0
 14 29  1  0  0  0  0
 15 30  1  0  0  0  0
 16 17  1  0  0  0  0
 17 31  1  0  0  0  0
 17 32  1  0  0  0  0
 17 33  1  0  0  0  0
 18 19  1  0  0  0  0
 18 34  1  0  0  0  0
 19 20  1  0  0  0  0
 19 23  1  0  0  0  0
 19 35  1  0  0  0  0
 20 21  1  0  0  0  0
 20 36  1  0  0  0  0
 20 37  1  0  0  0  0
 21 22  1  0  0  0  0
 21 38  1  0  0  0  0
 21 39  1  0  0  0  0
 22 23  1  0  0  0  0
 22 24  1  0  0  0  0
 22 40  1  0  0  0  0
 23 41  1  0  0  0  0
 23 42  1  0  0  0  0
 24 43  1  0  0  0  0
 24 44  1  0  0  0  0
M  END
> <ConfClashScore>
0 

> <ConfOneFourInteractionScore>
-0.981848 

> <ConfScore>
0.0474229 

> <ConfScorePBest>
0.00194054 

> <ConfTolerance>
0.451641 

$$$$
c22.sdf
 OpenBabel04162418103D

 44 47  0  0  0  0  0  0  0  0999 V2000
    1.9452   -0.6102    0.1255 C   0  0  0  1  0  0  0  0  0  0  0  0
    2.0363    0.7233    0.1481 N   0  0  0  1  0  0  0  0  0  0  0  0
    0.8946    1.4376    0.0881 C   0  0  0  1  0  0  0  0  0  0  0  0
   -0.3453    0.7385    0.0096 C   0  0  0  1  0  0  0  0  0  0  0  0
   -0.2528   -0.6477    0.0020 C   0  0  0  1  0  0  0  0  0  0  0  0
    0.8780   -1.3913    0.0538 N   0  0  0  1  0  0  0  0  0  0  0  0
   -1.7304    0.9921   -0.0538 C   0  0  0  1  0  0  0  0  0  0  0  0
   -2.4282   -0.1191   -0.1028 N   0  0  0  1  0  0  0  0  0  0  0  0
   -1.5126   -1.1342   -0.0681 N   0  0  0  1  0  0  0  0  0  0  0  0
   -1.8397   -2.5099   -0.1012 C   0  0  0  1  0  0  0  0  0  0  0  0
   -1.2691   -3.3331   -1.0535 C   0  0  0  1  0  0  0  0  0  0  0  0
   -1.5856   -4.6823   -1.0825 C   0  0  0  1  0  0  0  0  0  0  0  0
   -2.4758   -5.2034   -0.1624 C   0  0  0  1  0  0  0  0  0  0  0  0
   -3.0480   -4.3775    0.7926 C   0  0  0  1  0  0  0  0  0  0  0  0
   -2.7326   -3.0323    0.8216 C   0  0  0  1  0  0  0  0  0  0  0  0
   -2.8619   -6.4924   -0.0966 O   0  0  0  1  0  0  0  0  0  0  0  0
   -2.1699   -7.3856   -0.9999 C   0  0  0  1  0  0  0  0  0  0  0  0
    3.1148   -1.2568    0.1845 N   0  0  0  1  0  0  0  0  0  0  0  0
    3.3075   -2.7096    0.1776 C   0  0  0  1  0  0  0  0  0  0  0  0
    3.4990   -3.2269    1.6081 C   0  0  0  1  0  0  0  0  0  0  0  0
    4.9338   -3.7363    1.6649 C   0  0  0  1  0  0  0  0  0  0  0  0
    5.2421   -4.1914    0.2326 C   0  0  0  1  0  0  0  0  0  0  0  0
    4.5911   -3.0728   -0.5856 C   0  0  0  1  0  0  0  0  0  0  0  0
    4.6228   -5.5165   -0.0645 N   0  0  0  1  0  0  0  0  0  0  0  0
    0.9178    2.4773    0.0988 H   0  0  0  1  0  0  0  0  0  0  0  0
   -2.1490    1.9440   -0.0607 H   0  0  0  1  0  0  0  0  0  0  0  0
   -0.6022   -2.9403   -1.7482 H   0  0  0  1  0  0  0  0  0  0  0  0
   -1.1531   -5.3026   -1.7964 H   0  0  0  1  0  0  0  0  0  0  0  0
   -3.7149   -4.7704    1.4874 H   0  0  0  1  0  0  0  0  0  0  0  0
   -3.1649   -2.4119    1.5356 H   0  0  0  1  0  0  0  0  0  0  0  0
   -2.3853   -7.1085   -2.0107 H   0  0  0  1  0  0  0  0  0  0  0  0
   -2.4970   -8.3898   -0.8283 H   0  0  0  1  0  0  0  0  0  0  0  0
   -1.1158   -7.3191   -0.8289 H   0  0  0  1  0  0  0  0  0  0  0  0
    3.9225   -0.7045    0.2375 H   0  0  0  1  0  0  0  0  0  0  0  0
    2.4606   -3.1801   -0.2764 H   0  0  0  1  0  0  0  0  0  0  0  0
    2.8116   -4.0204    1.8143 H   0  0  0  1  0  0  0  0  0  0  0  0
    3.3543   -2.4363    2.3144 H   0  0  0  1  0  0  0  0  0  0  0  0
    5.6002   -2.9544    1.9640 H   0  0  0  1  0  0  0  0  0  0  0  0
    5.0163   -4.5564    2.3473 H   0  0  0  1  0  0  0  0  0  0  0  0
    6.2964   -4.2422    0.0564 H   0  0  0  1  0  0  0  0  0  0  0  0
    5.2424   -2.2263   -0.6483 H   0  0  0  1  0  0  0  0  0  0  0  0
    4.3567   -3.4170   -1.5712 H   0  0  0  1  0  0  0  0  0  0  0  0
    4.1256   -5.8285    0.7202 H   0  0  0  1  0  0  0  0  0  0  0  0
    5.3255   -6.1634   -0.2841 H   0  0  0  1  0  0  0  0  0  0  0  0
  1  2  4  0  0  0  0
  1  6  4  0  0  0  0
  1 18  1  0  0  0  0
  2  3  4  0  0  0  0
  3  4  4  0  0  0  0
  3 25  1  0  0  0  0
  4  5  4  0  0  0  0
  4  7  4  0  0  0  0
  5  6  4  0  0  0  0
  5  9  4  0  0  0  0
  7  8  4  0  0  0  0
  7 26  1  0  0  0  0
  8  9  4  0  0  0  0
  9 10  1  0  0  0  0
 10 11  4  0  0  0  0
 10 15  4  0  0  0  0
 11 12  4  0  0  0  0
 11 27  1  0  0  0  0
 12 13  4  0  0  0  0
 12 28  1  0  0  0  0
 13 14  4  0  0  0  0
 13 16  1  0  0  0  0
 14 15  4  0  0  0  0
 14 29  1  0  0  0  0
 15 30  1  0  0  0  0
 16 17  1  0  0  0  0
 17 31  1  0  0  0  0
 17 32  1  0  0  0  0
 17 33  1  0  0  0  0
 18 19  1  0  0  0  0
 18 34  1  0  0  0  0
 19 20  1  0  0  0  0
 19 23  1  0  0  0  0
 19 35  1  0  0  0  0
 20 21  1  0  0  0  0
 20 36  1  0  0  0  0
 20 37  1  0  0  0  0
 21 22  1  0  0  0  0
 21 38  1  0  0  0  0
 21 39  1  0  0  0  0
 22 23  1  0  0  0  0
 22 24  1  0  0  0  0
 22 40  1  0  0  0  0
 23 41  1  0  0  0  0
 23 42  1  0  0  0  0
 24 43  1  0  0  0  0
 24 44  1  0  0  0  0
M  END
> <ConfClashScore>
0 

> <ConfOneFourInteractionScore>
-0.984337 

> <ConfScore>
0.0478053 

> <ConfScorePBest>
0.00192721 

> <ConfTolerance>
0.671335 

$$$$
c22.sdf
 OpenBabel04162418103D

 44 47  0  0  0  0  0  0  0  0999 V2000
    1.9452   -0.6102    0.1255 C   0  0  0  1  0  0  0  0  0  0  0  0
    2.0363    0.7233    0.1481 N   0  0  0  1  0  0  0  0  0  0  0  0
    0.8946    1.4376    0.0881 C   0  0  0  1  0  0  0  0  0  0  0  0
   -0.3452    0.7386    0.0096 C   0  0  0  1  0  0  0  0  0  0  0  0
   -0.2528   -0.6478    0.0020 C   0  0  0  1  0  0  0  0  0  0  0  0
    0.8780   -1.3913    0.0538 N   0  0  0  1  0  0  0  0  0  0  0  0
   -1.7304    0.9921   -0.0538 C   0  0  0  1  0  0  0  0  0  0  0  0
   -2.4281   -0.1192   -0.1028 N   0  0  0  1  0  0  0  0  0  0  0  0
   -1.5125   -1.1342   -0.0681 N   0  0  0  1  0  0  0  0  0  0  0  0
   -1.8421   -2.5200   -0.1014 C   0  0  0  1  0  0  0  0  0  0  0  0
   -1.7121   -3.2287   -1.2808 C   0  0  0  1  0  0  0  0  0  0  0  0
   -1.9370   -4.5964   -1.2957 C   0  0  0  1  0  0  0  0  0  0  0  0
   -2.2964   -5.2506   -0.1325 C   0  0  0  1  0  0  0  0  0  0  0  0
   -2.4267   -4.5396    1.0504 C   0  0  0  1  0  0  0  0  0  0  0  0
   -2.2025   -3.1758    1.0654 C   0  0  0  1  0  0  0  0  0  0  0  0
   -2.5212   -6.5859   -0.1483 O   0  0  0  1  0  0  0  0  0  0  0  0
   -2.3444   -7.2664   -1.4005 C   0  0  0  1  0  0  0  0  0  0  0  0
    3.1213   -1.2604    0.1848 N   0  0  0  1  0  0  0  0  0  0  0  0
    4.5007   -0.7898    0.3198 C   0  0  0  1  0  0  0  0  0  0  0  0
    5.3938   -1.4525   -0.7356 C   0  0  0  1  0  0  0  0  0  0  0  0
    6.3552   -2.3380    0.0471 C   0  0  0  1  0  0  0  0  0  0  0  0
    6.5126   -1.6381    1.4033 C   0  0  0  1  0  0  0  0  0  0  0  0
    5.0725   -1.2013    1.6856 C   0  0  0  1  0  0  0  0  0  0  0  0
    7.4383   -0.4548    1.3081 N   0  0  0  1  0  0  0  0  0  0  0  0
    0.9179    2.4772    0.0988 H   0  0  0  1  0  0  0  0  0  0  0  0
   -2.1490    1.9441   -0.0607 H   0  0  0  1  0  0  0  0  0  0  0  0
   -1.4456   -2.7359   -2.1569 H   0  0  0  1  0  0  0  0  0  0  0  0
   -1.8353   -5.1304   -2.1823 H   0  0  0  1  0  0  0  0  0  0  0  0
   -2.6933   -5.0325    1.9266 H   0  0  0  1  0  0  0  0  0  0  0  0
   -2.3042   -2.6418    1.9521 H   0  0  0  1  0  0  0  0  0  0  0  0
   -2.6466   -6.6245   -2.2015 H   0  0  0  1  0  0  0  0  0  0  0  0
   -2.9411   -8.1545   -1.4109 H   0  0  0  1  0  0  0  0  0  0  0  0
   -1.3138   -7.5270   -1.5221 H   0  0  0  1  0  0  0  0  0  0  0  0
    3.0389   -2.2353    0.1265 H   0  0  0  1  0  0  0  0  0  0  0  0
    4.5270    0.2745    0.2123 H   0  0  0  1  0  0  0  0  0  0  0  0
    4.8052   -2.0414   -1.4076 H   0  0  0  1  0  0  0  0  0  0  0  0
    5.9328   -0.7116   -1.2884 H   0  0  0  1  0  0  0  0  0  0  0  0
    7.2983   -2.4061   -0.4540 H   0  0  0  1  0  0  0  0  0  0  0  0
    5.9465   -3.3188    0.1739 H   0  0  0  1  0  0  0  0  0  0  0  0
    6.8710   -2.3126    2.1525 H   0  0  0  1  0  0  0  0  0  0  0  0
    4.5092   -2.0114    2.0993 H   0  0  0  1  0  0  0  0  0  0  0  0
    5.0578   -0.3733    2.3632 H   0  0  0  1  0  0  0  0  0  0  0  0
    8.3422   -0.7634    1.0893 H   0  0  0  1  0  0  0  0  0  0  0  0
    7.4535    0.0176    2.1666 H   0  0  0  1  0  0  0  0  0  0  0  0
  1  2  4  0  0  0  0
  1  6  4  0  0  0  0
  1 18  1  0  0  0  0
  2  3  4  0  0  0  0
  3  4  4  0  0  0  0
  3 25  1  0  0  0  0
  4  5  4  0  0  0  0
  4  7  4  0  0  0  0
  5  6  4  0  0  0  0
  5  9  4  0  0  0  0
  7  8  4  0  0  0  0
  7 26  1  0  0  0  0
  8  9  4  0  0  0  0
  9 10  1  0  0  0  0
 10 11  4  0  0  0  0
 10 15  4  0  0  0  0
 11 12  4  0  0  0  0
 11 27  1  0  0  0  0
 12 13  4  0  0  0  0
 12 28  1  0  0  0  0
 13 14  4  0  0  0  0
 13 16  1  0  0  0  0
 14 15  4  0  0  0  0
 14 29  1  0  0  0  0
 15 30  1  0  0  0  0
 16 17  1  0  0  0  0
 17 31  1  0  0  0  0
 17 32  1  0  0  0  0
 17 33  1  0  0  0  0
 18 19  1  0  0  0  0
 18 34  1  0  0  0  0
 19 20  1  0  0  0  0
 19 23  1  0  0  0  0
 19 35  1  0  0  0  0
 20 21  1  0  0  0  0
 20 36  1  0  0  0  0
 20 37  1  0  0  0  0
 21 22  1  0  0  0  0
 21 38  1  0  0  0  0
 21 39  1  0  0  0  0
 22 23  1  0  0  0  0
 22 24  1  0  0  0  0
 22 40  1  0  0  0  0
 23 41  1  0  0  0  0
 23 42  1  0  0  0  0
 24 43  1  0  0  0  0
 24 44  1  0  0  0  0
M  END
> <ConfClashScore>
0 

> <ConfOneFourInteractionScore>
-0.984337 

> <ConfScore>
0.048536 

> <ConfScorePBest>
0.00191388 

> <ConfTolerance>
0.56004 

$$$$
c22.sdf
 OpenBabel04162418103D

 44 47  0  0  0  0  0  0  0  0999 V2000
    1.9453   -0.6102    0.1256 C   0  0  0  1  0  0  0  0  0  0  0  0
    2.0363    0.7233    0.1482 N   0  0  0  1  0  0  0  0  0  0  0  0
    0.8945    1.4375    0.0881 C   0  0  0  1  0  0  0  0  0  0  0  0
   -0.3453    0.7386    0.0096 C   0  0  0  1  0  0  0  0  0  0  0  0
   -0.2528   -0.6477    0.0020 C   0  0  0  1  0  0  0  0  0  0  0  0
    0.8779   -1.3912    0.0539 N   0  0  0  1  0  0  0  0  0  0  0  0
   -1.7303    0.9921   -0.0538 C   0  0  0  1  0  0  0  0  0  0  0  0
   -2.4281   -0.1191   -0.1029 N   0  0  0  1  0  0  0  0  0  0  0  0
   -1.5125   -1.1341   -0.0681 N   0  0  0  1  0  0  0  0  0  0  0  0
   -1.8418   -2.5192   -0.1014 C   0  0  0  1  0  0  0  0  0  0  0  0
   -2.3220   -3.1427    1.0348 C   0  0  0  1  0  0  0  0  0  0  0  0
   -2.6476   -4.4896    1.0009 C   0  0  0  1  0  0  0  0  0  0  0  0
   -2.4871   -5.2104   -0.1674 C   0  0  0  1  0  0  0  0  0  0  0  0
   -2.0055   -4.5849   -1.3069 C   0  0  0  1  0  0  0  0  0  0  0  0
   -1.6809   -3.2420   -1.2733 C   0  0  0  1  0  0  0  0  0  0  0  0
   -2.8316   -6.5137   -0.0787 O   0  0  0  1  0  0  0  0  0  0  0  0
   -2.8072   -7.3393   -1.2664 C   0  0  0  1  0  0  0  0  0  0  0  0
    3.1257   -1.2628    0.1851 N   0  0  0  1  0  0  0  0  0  0  0  0
    4.4040   -0.6134    0.4898 C   0  0  0  1  0  0  0  0  0  0  0  0
    4.6803    0.5112   -0.5138 C   0  0  0  1  0  0  0  0  0  0  0  0
    6.1835    0.4654   -0.7329 C   0  0  0  1  0  0  0  0  0  0  0  0
    6.4549   -1.0428   -0.7597 C   0  0  0  1  0  0  0  0  0  0  0  0
    5.5575   -1.6145    0.3414 C   0  0  0  1  0  0  0  0  0  0  0  0
    7.8861   -1.3241   -0.4697 N   0  0  0  1  0  0  0  0  0  0  0  0
    0.9179    2.4773    0.0987 H   0  0  0  1  0  0  0  0  0  0  0  0
   -2.1489    1.9441   -0.0608 H   0  0  0  1  0  0  0  0  0  0  0  0
   -2.4391   -2.6013    1.9151 H   0  0  0  1  0  0  0  0  0  0  0  0
   -3.0128   -4.9579    1.8547 H   0  0  0  1  0  0  0  0  0  0  0  0
   -1.8885   -5.1263   -2.1872 H   0  0  0  1  0  0  0  0  0  0  0  0
   -1.3157   -2.7736   -2.1270 H   0  0  0  1  0  0  0  0  0  0  0  0
   -3.7900   -7.7156   -1.4600 H   0  0  0  1  0  0  0  0  0  0  0  0
   -2.1349   -8.1583   -1.1173 H   0  0  0  1  0  0  0  0  0  0  0  0
   -2.4786   -6.7546   -2.1001 H   0  0  0  1  0  0  0  0  0  0  0  0
    3.1281   -2.2279    0.0147 H   0  0  0  1  0  0  0  0  0  0  0  0
    4.3779   -0.2231    1.4858 H   0  0  0  1  0  0  0  0  0  0  0  0
    4.3856    1.4578   -0.1114 H   0  0  0  1  0  0  0  0  0  0  0  0
    4.1590    0.3354   -1.4315 H   0  0  0  1  0  0  0  0  0  0  0  0
    6.4556    0.9259   -1.6596 H   0  0  0  1  0  0  0  0  0  0  0  0
    6.7080    0.9406    0.0696 H   0  0  0  1  0  0  0  0  0  0  0  0
    6.1954   -1.4566   -1.7117 H   0  0  0  1  0  0  0  0  0  0  0  0
    5.1838   -2.5762    0.0576 H   0  0  0  1  0  0  0  0  0  0  0  0
    6.0999   -1.6990    1.2598 H   0  0  0  1  0  0  0  0  0  0  0  0
    8.0060   -2.2845   -0.3159 H   0  0  0  1  0  0  0  0  0  0  0  0
    8.1606   -0.8287    0.3301 H   0  0  0  1  0  0  0  0  0  0  0  0
  1  2  4  0  0  0  0
  1  6  4  0  0  0  0
  1 18  1  0  0  0  0
  2  3  4  0  0  0  0
  3  4  4  0  0  0  0
  3 25  1  0  0  0  0
  4  5  4  0  0  0  0
  4  7  4  0  0  0  0
  5  6  4  0  0  0  0
  5  9  4  0  0  0  0
  7  8  4  0  0  0  0
  7 26  1  0  0  0  0
  8  9  4  0  0  0  0
  9 10  1  0  0  0  0
 10 11  4  0  0  0  0
 10 15  4  0  0  0  0
 11 12  4  0  0  0  0
 11 27  1  0  0  0  0
 12 13  4  0  0  0  0
 12 28  1  0  0  0  0
 13 14  4  0  0  0  0
 13 16  1  0  0  0  0
 14 15  4  0  0  0  0
 14 29  1  0  0  0  0
 15 30  1  0  0  0  0
 16 17  1  0  0  0  0
 17 31  1  0  0  0  0
 17 32  1  0  0  0  0
 17 33  1  0  0  0  0
 18 19  1  0  0  0  0
 18 34  1  0  0  0  0
 19 20  1  0  0  0  0
 19 23  1  0  0  0  0
 19 35  1  0  0  0  0
 20 21  1  0  0  0  0
 20 36  1  0  0  0  0
 20 37  1  0  0  0  0
 21 22  1  0  0  0  0
 21 38  1  0  0  0  0
 21 39  1  0  0  0  0
 22 23  1  0  0  0  0
 22 24  1  0  0  0  0
 22 40  1  0  0  0  0
 23 41  1  0  0  0  0
 23 42  1  0  0  0  0
 24 43  1  0  0  0  0
 24 44  1  0  0  0  0
M  END
> <ConfClashScore>
0 

> <ConfOneFourInteractionScore>
-0.985399 

> <ConfScore>
0.0492315 

> <ConfScorePBest>
0.00190055 

> <ConfTolerance>
0.546554 

$$$$
c22.sdf
 OpenBabel04162418103D

 44 47  0  0  0  0  0  0  0  0999 V2000
    1.9453   -0.6101    0.1256 C   0  0  0  1  0  0  0  0  0  0  0  0
    2.0363    0.7233    0.1482 N   0  0  0  1  0  0  0  0  0  0  0  0
    0.8945    1.4376    0.0881 C   0  0  0  1  0  0  0  0  0  0  0  0
   -0.3452    0.7387    0.0097 C   0  0  0  1  0  0  0  0  0  0  0  0
   -0.2527   -0.6477    0.0020 C   0  0  0  1  0  0  0  0  0  0  0  0
    0.8780   -1.3913    0.0538 N   0  0  0  1  0  0  0  0  0  0  0  0
   -1.7303    0.9921   -0.0538 C   0  0  0  1  0  0  0  0  0  0  0  0
   -2.4281   -0.1191   -0.1028 N   0  0  0  1  0  0  0  0  0  0  0  0
   -1.5126   -1.1342   -0.0681 N   0  0  0  1  0  0  0  0  0  0  0  0
   -1.8396   -2.5099   -0.1011 C   0  0  0  1  0  0  0  0  0  0  0  0
   -2.1106   -3.1841    1.0745 C   0  0  0  1  0  0  0  0  0  0  0  0
   -2.4363   -4.5310    1.0416 C   0  0  0  1  0  0  0  0  0  0  0  0
   -2.4850   -5.2011   -0.1663 C   0  0  0  1  0  0  0  0  0  0  0  0
   -2.2132   -4.5247   -1.3453 C   0  0  0  1  0  0  0  0  0  0  0  0
   -1.8883   -3.1818   -1.3127 C   0  0  0  1  0  0  0  0  0  0  0  0
   -2.7836   -6.5056   -0.3213 O   0  0  0  1  0  0  0  0  0  0  0  0
   -2.8899   -7.2596    0.9086 C   0  0  0  1  0  0  0  0  0  0  0  0
    3.1214   -1.2604    0.1849 N   0  0  0  1  0  0  0  0  0  0  0  0
    4.4539   -0.6502    0.1930 C   0  0  0  1  0  0  0  0  0  0  0  0
    5.5265   -1.7196    0.4392 C   0  0  0  1  0  0  0  0  0  0  0  0
    6.2439   -1.2901    1.7220 C   0  0  0  1  0  0  0  0  0  0  0  0
    5.2120   -0.4435    2.4750 C   0  0  0  1  0  0  0  0  0  0  0  0
    4.5725    0.3502    1.3476 C   0  0  0  1  0  0  0  0  0  0  0  0
    5.8639    0.4495    3.4588 N   0  0  0  1  0  0  0  0  0  0  0  0
    0.9178    2.4772    0.0989 H   0  0  0  1  0  0  0  0  0  0  0  0
   -2.1489    1.9441   -0.0608 H   0  0  0  1  0  0  0  0  0  0  0  0
   -2.0700   -2.6809    1.9838 H   0  0  0  1  0  0  0  0  0  0  0  0
   -2.6442   -5.0374    1.9258 H   0  0  0  1  0  0  0  0  0  0  0  0
   -2.2537   -5.0279   -2.2547 H   0  0  0  1  0  0  0  0  0  0  0  0
   -1.6805   -2.6753   -2.1969 H   0  0  0  1  0  0  0  0  0  0  0  0
   -3.9218   -7.4239    1.1387 H   0  0  0  1  0  0  0  0  0  0  0  0
   -2.4303   -6.7110    1.7039 H   0  0  0  1  0  0  0  0  0  0  0  0
   -2.3962   -8.2019    0.7927 H   0  0  0  1  0  0  0  0  0  0  0  0
    3.0835   -2.2387    0.2268 H   0  0  0  1  0  0  0  0  0  0  0  0
    4.6277   -0.1594   -0.7418 H   0  0  0  1  0  0  0  0  0  0  0  0
    5.0740   -2.6806    0.5676 H   0  0  0  1  0  0  0  0  0  0  0  0
    6.2142   -1.7551   -0.3798 H   0  0  0  1  0  0  0  0  0  0  0  0
    6.5268   -2.1444    2.3009 H   0  0  0  1  0  0  0  0  0  0  0  0
    7.1135   -0.7103    1.4927 H   0  0  0  1  0  0  0  0  0  0  0  0
    4.4929   -1.0595    2.9734 H   0  0  0  1  0  0  0  0  0  0  0  0
    3.6069    0.7085    1.6380 H   0  0  0  1  0  0  0  0  0  0  0  0
    5.1915    1.1773    1.0692 H   0  0  0  1  0  0  0  0  0  0  0  0
    6.5844    0.9486    3.0205 H   0  0  0  1  0  0  0  0  0  0  0  0
    6.2359   -0.0865    4.1900 H   0  0  0  1  0  0  0  0  0  0  0  0
  1  2  4  0  0  0  0
  1  6  4  0  0  0  0
  1 18  1  0  0  0  0
  2  3  4  0  0  0  0
  3  4  4  0  0  0  0
  3 25  1  0  0  0  0
  4  5  4  0  0  0  0
  4  7  4  0  0  0  0
  5  6  4  0  0  0  0
  5  9  4  0  0  0  0
  7  8  4  0  0  0  0
  7 26  1  0  0  0  0
  8  9  4  0  0  0  0
  9 10  1  0  0  0  0
 10 11  4  0  0  0  0
 10 15  4  0  0  0  0
 11 12  4  0  0  0  0
 11 27  1  0  0  0  0
 12 13  4  0  0  0  0
 12 28  1  0  0  0  0
 13 14  4  0  0  0  0
 13 16  1  0  0  0  0
 14 15  4  0  0  0  0
 14 29  1  0  0  0  0
 15 30  1  0  0  0  0
 16 17  1  0  0  0  0
 17 31  1  0  0  0  0
 17 32  1  0  0  0  0
 17 33  1  0  0  0  0
 18 19  1  0  0  0  0
 18 34  1  0  0  0  0
 19 20  1  0  0  0  0
 19 23  1  0  0  0  0
 19 35  1  0  0  0  0
 20 21  1  0  0  0  0
 20 36  1  0  0  0  0
 20 37  1  0  0  0  0
 21 22  1  0  0  0  0
 21 38  1  0  0  0  0
 21 39  1  0  0  0  0
 22 23  1  0  0  0  0
 22 24  1  0  0  0  0
 22 40  1  0  0  0  0
 23 41  1  0  0  0  0
 23 42  1  0  0  0  0
 24 43  1  0  0  0  0
 24 44  1  0  0  0  0
M  END
> <ConfClashScore>
0 

> <ConfOneFourInteractionScore>
-0.985399 

> <ConfScore>
0.0500291 

> <ConfScorePBest>
0.00188723 

> <ConfTolerance>
0.646224 

$$$$
c22.sdf
 OpenBabel04162418103D

 44 47  0  0  0  0  0  0  0  0999 V2000
    1.9452   -0.6102    0.1255 C   0  0  0  1  0  0  0  0  0  0  0  0
    2.0363    0.7234    0.1480 N   0  0  0  1  0  0  0  0  0  0  0  0
    0.8946    1.4376    0.0881 C   0  0  0  1  0  0  0  0  0  0  0  0
   -0.3452    0.7386    0.0095 C   0  0  0  1  0  0  0  0  0  0  0  0
   -0.2528   -0.6476    0.0020 C   0  0  0  1  0  0  0  0  0  0  0  0
    0.8779   -1.3912    0.0538 N   0  0  0  1  0  0  0  0  0  0  0  0
   -1.7303    0.9921   -0.0538 C   0  0  0  1  0  0  0  0  0  0  0  0
   -2.4282   -0.1191   -0.1028 N   0  0  0  1  0  0  0  0  0  0  0  0
   -1.5126   -1.1341   -0.0681 N   0  0  0  1  0  0  0  0  0  0  0  0
   -1.8396   -2.5099   -0.1011 C   0  0  0  1  0  0  0  0  0  0  0  0
   -2.5118   -3.0343   -1.1888 C   0  0  0  1  0  0  0  0  0  0  0  0
   -2.8276   -4.3837   -1.2236 C   0  0  0  1  0  0  0  0  0  0  0  0
   -2.4751   -5.2034   -0.1681 C   0  0  0  1  0  0  0  0  0  0  0  0
   -1.8009   -4.6772    0.9229 C   0  0  0  1  0  0  0  0  0  0  0  0
   -1.4859   -3.3319    0.9576 C   0  0  0  1  0  0  0  0  0  0  0  0
   -2.8568   -6.4823   -0.3512 O   0  0  0  1  0  0  0  0  0  0  0  0
   -2.4619   -7.3954    0.6990 C   0  0  0  1  0  0  0  0  0  0  0  0
    3.1214   -1.2603    0.1849 N   0  0  0  1  0  0  0  0  0  0  0  0
    3.3128   -2.7129    0.2011 C   0  0  0  1  0  0  0  0  0  0  0  0
    2.6835   -3.3745   -1.0279 C   0  0  0  1  0  0  0  0  0  0  0  0
    2.4057   -4.8262   -0.6066 C   0  0  0  1  0  0  0  0  0  0  0  0
    2.3956   -4.8327    0.9264 C   0  0  0  1  0  0  0  0  0  0  0  0
    2.5195   -3.3708    1.3376 C   0  0  0  1  0  0  0  0  0  0  0  0
    3.5481   -5.6231    1.4532 N   0  0  0  1  0  0  0  0  0  0  0  0
    0.9178    2.4773    0.0987 H   0  0  0  1  0  0  0  0  0  0  0  0
   -2.1491    1.9441   -0.0608 H   0  0  0  1  0  0  0  0  0  0  0  0
   -2.7806   -2.4168   -1.9813 H   0  0  0  1  0  0  0  0  0  0  0  0
   -3.3298   -4.7792   -2.0438 H   0  0  0  1  0  0  0  0  0  0  0  0
   -1.5321   -5.2947    1.7154 H   0  0  0  1  0  0  0  0  0  0  0  0
   -0.9837   -2.9363    1.7780 H   0  0  0  1  0  0  0  0  0  0  0  0
   -3.0826   -8.2664    0.6672 H   0  0  0  1  0  0  0  0  0  0  0  0
   -2.5706   -6.9147    1.6487 H   0  0  0  1  0  0  0  0  0  0  0  0
   -1.4403   -7.6805    0.5579 H   0  0  0  1  0  0  0  0  0  0  0  0
    3.9300   -0.7078    0.2208 H   0  0  0  1  0  0  0  0  0  0  0  0
    4.3571   -2.9347    0.2734 H   0  0  0  1  0  0  0  0  0  0  0  0
    1.7726   -2.8805   -1.2945 H   0  0  0  1  0  0  0  0  0  0  0  0
    3.3603   -3.3474   -1.8562 H   0  0  0  1  0  0  0  0  0  0  0  0
    3.1746   -5.4727   -0.9751 H   0  0  0  1  0  0  0  0  0  0  0  0
    1.4576   -5.1470   -0.9849 H   0  0  0  1  0  0  0  0  0  0  0  0
    1.4802   -5.2483    1.2930 H   0  0  0  1  0  0  0  0  0  0  0  0
    1.5527   -2.9222    1.4317 H   0  0  0  1  0  0  0  0  0  0  0  0
    3.0458   -3.2831    2.2650 H   0  0  0  1  0  0  0  0  0  0  0  0
    3.4490   -5.7410    2.4210 H   0  0  0  1  0  0  0  0  0  0  0  0
    4.3837   -5.1461    1.2664 H   0  0  0  1  0  0  0  0  0  0  0  0
  1  2  4  0  0  0  0
  1  6  4  0  0  0  0
  1 18  1  0  0  0  0
  2  3  4  0  0  0  0
  3  4  4  0  0  0  0
  3 25  1  0  0  0  0
  4  5  4  0  0  0  0
  4  7  4  0  0  0  0
  5  6  4  0  0  0  0
  5  9  4  0  0  0  0
  7  8  4  0  0  0  0
  7 26  1  0  0  0  0
  8  9  4  0  0  0  0
  9 10  1  0  0  0  0
 10 11  4  0  0  0  0
 10 15  4  0  0  0  0
 11 12  4  0  0  0  0
 11 27  1  0  0  0  0
 12 13  4  0  0  0  0
 12 28  1  0  0  0  0
 13 14  4  0  0  0  0
 13 16  1  0  0  0  0
 14 15  4  0  0  0  0
 14 29  1  0  0  0  0
 15 30  1  0  0  0  0
 16 17  1  0  0  0  0
 17 31  1  0  0  0  0
 17 32  1  0  0  0  0
 17 33  1  0  0  0  0
 18 19  1  0  0  0  0
 18 34  1  0  0  0  0
 19 20  1  0  0  0  0
 19 23  1  0  0  0  0
 19 35  1  0  0  0  0
 20 21  1  0  0  0  0
 20 36  1  0  0  0  0
 20 37  1  0  0  0  0
 21 22  1  0  0  0  0
 21 38  1  0  0  0  0
 21 39  1  0  0  0  0
 22 23  1  0  0  0  0
 22 24  1  0  0  0  0
 22 40  1  0  0  0  0
 23 41  1  0  0  0  0
 23 42  1  0  0  0  0
 24 43  1  0  0  0  0
 24 44  1  0  0  0  0
M  END
> <ConfClashScore>
0 

> <ConfOneFourInteractionScore>
-0.980204 

> <ConfScore>
0.050461 

> <ConfScorePBest>
0.0018739 

> <ConfTolerance>
0.359163 

$$$$
c22.sdf
 OpenBabel04162418103D

 44 47  0  0  0  0  0  0  0  0999 V2000
    1.9453   -0.6102    0.1254 C   0  0  0  1  0  0  0  0  0  0  0  0
    2.0363    0.7233    0.1480 N   0  0  0  1  0  0  0  0  0  0  0  0
    0.8946    1.4376    0.0881 C   0  0  0  1  0  0  0  0  0  0  0  0
   -0.3453    0.7386    0.0096 C   0  0  0  1  0  0  0  0  0  0  0  0
   -0.2528   -0.6478    0.0019 C   0  0  0  1  0  0  0  0  0  0  0  0
    0.8779   -1.3913    0.0538 N   0  0  0  1  0  0  0  0  0  0  0  0
   -1.7303    0.9921   -0.0538 C   0  0  0  1  0  0  0  0  0  0  0  0
   -2.4282   -0.1192   -0.1028 N   0  0  0  1  0  0  0  0  0  0  0  0
   -1.5125   -1.1341   -0.0681 N   0  0  0  1  0  0  0  0  0  0  0  0
   -1.8397   -2.5100   -0.1012 C   0  0  0  1  0  0  0  0  0  0  0  0
   -2.6002   -3.0145   -1.1390 C   0  0  0  1  0  0  0  0  0  0  0  0
   -2.9163   -4.3637   -1.1741 C   0  0  0  1  0  0  0  0  0  0  0  0
   -2.4754   -5.2034   -0.1686 C   0  0  0  1  0  0  0  0  0  0  0  0
   -1.7126   -4.6970    0.8722 C   0  0  0  1  0  0  0  0  0  0  0  0
   -1.3973   -3.3518    0.9073 C   0  0  0  1  0  0  0  0  0  0  0  0
   -2.8499   -6.4973   -0.3068 O   0  0  0  1  0  0  0  0  0  0  0  0
   -2.3302   -7.4365    0.6473 C   0  0  0  1  0  0  0  0  0  0  0  0
    3.1148   -1.2568    0.1844 N   0  0  0  1  0  0  0  0  0  0  0  0
    4.4470   -0.6468    0.1924 C   0  0  0  1  0  0  0  0  0  0  0  0
    4.6333    0.2301    1.4353 C   0  0  0  1  0  0  0  0  0  0  0  0
    5.7718    1.1425    1.0096 C   0  0  0  1  0  0  0  0  0  0  0  0
    5.4747    1.4680   -0.4581 C   0  0  0  1  0  0  0  0  0  0  0  0
    4.6072    0.3176   -0.9862 C   0  0  0  1  0  0  0  0  0  0  0  0
    6.7466    1.5560   -1.2361 N   0  0  0  1  0  0  0  0  0  0  0  0
    0.9178    2.4772    0.0988 H   0  0  0  1  0  0  0  0  0  0  0  0
   -2.1490    1.9441   -0.0608 H   0  0  0  1  0  0  0  0  0  0  0  0
   -2.9354   -2.3820   -1.8934 H   0  0  0  1  0  0  0  0  0  0  0  0
   -3.4853   -4.7443   -1.9570 H   0  0  0  1  0  0  0  0  0  0  0  0
   -1.3773   -5.3295    1.6267 H   0  0  0  1  0  0  0  0  0  0  0  0
   -0.8283   -2.9712    1.6904 H   0  0  0  1  0  0  0  0  0  0  0  0
   -2.1997   -6.9508    1.5918 H   0  0  0  1  0  0  0  0  0  0  0  0
   -1.3872   -7.8081    0.3044 H   0  0  0  1  0  0  0  0  0  0  0  0
   -3.0164   -8.2501    0.7568 H   0  0  0  1  0  0  0  0  0  0  0  0
    3.0768   -2.2352    0.2264 H   0  0  0  1  0  0  0  0  0  0  0  0
    5.1915   -1.4145    0.1565 H   0  0  0  1  0  0  0  0  0  0  0  0
    3.7475    0.7895    1.6528 H   0  0  0  1  0  0  0  0  0  0  0  0
    4.9036   -0.3566    2.2882 H   0  0  0  1  0  0  0  0  0  0  0  0
    6.7127    0.6415    1.1027 H   0  0  0  1  0  0  0  0  0  0  0  0
    5.7823    2.0347    1.6000 H   0  0  0  1  0  0  0  0  0  0  0  0
    4.9458    2.3952   -0.5323 H   0  0  0  1  0  0  0  0  0  0  0  0
    5.0920   -0.1706   -1.8056 H   0  0  0  1  0  0  0  0  0  0  0  0
    3.6528    0.6836   -1.3024 H   0  0  0  1  0  0  0  0  0  0  0  0
    6.5449    1.5441   -2.1950 H   0  0  0  1  0  0  0  0  0  0  0  0
    7.3189    0.7924   -1.0133 H   0  0  0  1  0  0  0  0  0  0  0  0
  1  2  4  0  0  0  0
  1  6  4  0  0  0  0
  1 18  1  0  0  0  0
  2  3  4  0  0  0  0
  3  4  4  0  0  0  0
  3 25  1  0  0  0  0
  4  5  4  0  0  0  0
  4  7  4  0  0  0  0
  5  6  4  0  0  0  0
  5  9  4  0  0  0  0
  7  8  4  0  0  0  0
  7 26  1  0  0  0  0
  8  9  4  0  0  0  0
  9 10  1  0  0  0  0
 10 11  4  0  0  0  0
 10 15  4  0  0  0  0
 11 12  4  0  0  0  0
 11 27  1  0  0  0  0
 12 13  4  0  0  0  0
 12 28  1  0  0  0  0
 13 14  4  0  0  0  0
 13 16  1  0  0  0  0
 14 15  4  0  0  0  0
 14 29  1  0  0  0  0
 15 30  1  0  0  0  0
 16 17  1  0  0  0  0
 17 31  1  0  0  0  0
 17 32  1  0  0  0  0
 17 33  1  0  0  0  0
 18 19  1  0  0  0  0
 18 34  1  0  0  0  0
 19 20  1  0  0  0  0
 19 23  1  0  0  0  0
 19 35  1  0  0  0  0
 20 21  1  0  0  0  0
 20 36  1  0  0  0  0
 20 37  1  0  0  0  0
 21 22  1  0  0  0  0
 21 38  1  0  0  0  0
 21 39  1  0  0  0  0
 22 23  1  0  0  0  0
 22 24  1  0  0  0  0
 22 40  1  0  0  0  0
 23 41  1  0  0  0  0
 23 42  1  0  0  0  0
 24 43  1  0  0  0  0
 24 44  1  0  0  0  0
M  END
> <ConfClashScore>
0 

> <ConfOneFourInteractionScore>
-0.980204 

> <ConfScore>
0.050461 

> <ConfScorePBest>
0.00186057 

> <ConfTolerance>
0.278802 

$$$$
c22.sdf
 OpenBabel04162418103D

 44 47  0  0  0  0  0  0  0  0999 V2000
    1.9453   -0.6102    0.1256 C   0  0  0  1  0  0  0  0  0  0  0  0
    2.0363    0.7233    0.1482 N   0  0  0  1  0  0  0  0  0  0  0  0
    0.8946    1.4376    0.0881 C   0  0  0  1  0  0  0  0  0  0  0  0
   -0.3452    0.7386    0.0096 C   0  0  0  1  0  0  0  0  0  0  0  0
   -0.2529   -0.6477    0.0020 C   0  0  0  1  0  0  0  0  0  0  0  0
    0.8780   -1.3913    0.0539 N   0  0  0  1  0  0  0  0  0  0  0  0
   -1.7303    0.9921   -0.0538 C   0  0  0  1  0  0  0  0  0  0  0  0
   -2.4282   -0.1192   -0.1029 N   0  0  0  1  0  0  0  0  0  0  0  0
   -1.5125   -1.1341   -0.0681 N   0  0  0  1  0  0  0  0  0  0  0  0
   -1.8415   -2.5176   -0.1014 C   0  0  0  1  0  0  0  0  0  0  0  0
   -0.9839   -3.4455    0.4588 C   0  0  0  1  0  0  0  0  0  0  0  0
   -1.3071   -4.7931    0.4311 C   0  0  0  1  0  0  0  0  0  0  0  0
   -2.4844   -5.2096   -0.1612 C   0  0  0  1  0  0  0  0  0  0  0  0
   -3.3444   -4.2789   -0.7230 C   0  0  0  1  0  0  0  0  0  0  0  0
   -3.0223   -2.9351   -0.6955 C   0  0  0  1  0  0  0  0  0  0  0  0
   -2.6874   -6.5318   -0.1328 O   0  0  0  1  0  0  0  0  0  0  0  0
   -1.7173   -7.4479    0.4775 C   0  0  0  1  0  0  0  0  0  0  0  0
    3.1404   -1.2710    0.1859 N   0  0  0  1  0  0  0  0  0  0  0  0
    3.2093   -2.7261    0.2352 C   0  0  0  1  0  0  0  0  0  0  0  0
    3.2075   -3.2092    1.6902 C   0  0  0  1  0  0  0  0  0  0  0  0
    4.5807   -3.8312    1.9112 C   0  0  0  1  0  0  0  0  0  0  0  0
    4.9961   -4.3573    0.5313 C   0  0  0  1  0  0  0  0  0  0  0  0
    4.5298   -3.2177   -0.3786 C   0  0  0  1  0  0  0  0  0  0  0  0
    4.2936   -5.6517    0.1993 N   0  0  0  1  0  0  0  0  0  0  0  0
    0.9179    2.4772    0.0989 H   0  0  0  1  0  0  0  0  0  0  0  0
   -2.1489    1.9441   -0.0609 H   0  0  0  1  0  0  0  0  0  0  0  0
   -0.0961   -3.1325    0.9010 H   0  0  0  1  0  0  0  0  0  0  0  0
   -0.6637   -5.4909    0.8562 H   0  0  0  1  0  0  0  0  0  0  0  0
   -4.2323   -4.5919   -1.1652 H   0  0  0  1  0  0  0  0  0  0  0  0
   -3.6657   -2.2372   -1.1205 H   0  0  0  1  0  0  0  0  0  0  0  0
   -0.9369   -7.6604   -0.2230 H   0  0  0  1  0  0  0  0  0  0  0  0
   -2.2093   -8.3583    0.7499 H   0  0  0  1  0  0  0  0  0  0  0  0
   -1.2984   -6.9932    1.3508 H   0  0  0  1  0  0  0  0  0  0  0  0
    3.9722   -0.7530    0.1964 H   0  0  0  1  0  0  0  0  0  0  0  0
    2.3773   -3.1413   -0.2943 H   0  0  0  1  0  0  0  0  0  0  0  0
    3.0575   -2.3863    2.3575 H   0  0  0  1  0  0  0  0  0  0  0  0
    2.4380   -3.9370    1.8421 H   0  0  0  1  0  0  0  0  0  0  0  0
    5.2760   -3.0964    2.2598 H   0  0  0  1  0  0  0  0  0  0  0  0
    4.5227   -4.6321    2.6185 H   0  0  0  1  0  0  0  0  0  0  0  0
    6.0549   -4.4996    0.4691 H   0  0  0  1  0  0  0  0  0  0  0  0
    4.3705   -3.5744   -1.3747 H   0  0  0  1  0  0  0  0  0  0  0  0
    5.2531   -2.4293   -0.3928 H   0  0  0  1  0  0  0  0  0  0  0  0
    4.4909   -6.3177    0.8907 H   0  0  0  1  0  0  0  0  0  0  0  0
    4.6072   -5.9799   -0.6692 H   0  0  0  1  0  0  0  0  0  0  0  0
  1  2  4  0  0  0  0
  1  6  4  0  0  0  0
  1 18  1  0  0  0  0
  2  3  4  0  0  0  0
  3  4  4  0  0  0  0
  3 25  1  0  0  0  0
  4  5  4  0  0  0  0
  4  7  4  0  0  0  0
  5  6  4  0  0  0  0
  5  9  4  0  0  0  0
  7  8  4  0  0  0  0
  7 26  1  0  0  0  0
  8  9  4  0  0  0  0
  9 10  1  0  0  0  0
 10 11  4  0  0  0  0
 10 15  4  0  0  0  0
 11 12  4  0  0  0  0
 11 27  1  0  0  0  0
 12 13  4  0  0  0  0
 12 28  1  0  0  0  0
 13 14  4  0  0  0  0
 13 16  1  0  0  0  0
 14 15  4  0  0  0  0
 14 29  1  0  0  0  0
 15 30  1  0  0  0  0
 16 17  1  0  0  0  0
 17 31  1  0  0  0  0
 17 32  1  0  0  0  0
 17 33  1  0  0  0  0
 18 19  1  0  0  0  0
 18 34  1  0  0  0  0
 19 20  1  0  0  0  0
 19 23  1  0  0  0  0
 19 35  1  0  0  0  0
 20 21  1  0  0  0  0
 20 36  1  0  0  0  0
 20 37  1  0  0  0  0
 21 22  1  0  0  0  0
 21 38  1  0  0  0  0
 21 39  1  0  0  0  0
 22 23  1  0  0  0  0
 22 24  1  0  0  0  0
 22 40  1  0  0  0  0
 23 41  1  0  0  0  0
 23 42  1  0  0  0  0
 24 43  1  0  0  0  0
 24 44  1  0  0  0  0
M  END
> <ConfClashScore>
0.000347964 

> <ConfOneFourInteractionScore>
-0.984337 

> <ConfScore>
0.0556138 

> <ConfScorePBest>
0.00184724 

> <ConfTolerance>
0.570134 

$$$$
c22.sdf
 OpenBabel04162418103D

 44 47  0  0  0  0  0  0  0  0999 V2000
    1.9452   -0.6102    0.1256 C   0  0  0  1  0  0  0  0  0  0  0  0
    2.0363    0.7233    0.1482 N   0  0  0  1  0  0  0  0  0  0  0  0
    0.8946    1.4376    0.0881 C   0  0  0  1  0  0  0  0  0  0  0  0
   -0.3452    0.7386    0.0096 C   0  0  0  1  0  0  0  0  0  0  0  0
   -0.2529   -0.6478    0.0020 C   0  0  0  1  0  0  0  0  0  0  0  0
    0.8780   -1.3913    0.0539 N   0  0  0  1  0  0  0  0  0  0  0  0
   -1.7303    0.9921   -0.0538 C   0  0  0  1  0  0  0  0  0  0  0  0
   -2.4281   -0.1192   -0.1030 N   0  0  0  1  0  0  0  0  0  0  0  0
   -1.5125   -1.1341   -0.0681 N   0  0  0  1  0  0  0  0  0  0  0  0
   -1.8397   -2.5099   -0.1011 C   0  0  0  1  0  0  0  0  0  0  0  0
   -1.6885   -3.2834    1.0342 C   0  0  0  1  0  0  0  0  0  0  0  0
   -2.0142   -4.6304    1.0032 C   0  0  0  1  0  0  0  0  0  0  0  0
   -2.4849   -5.2012   -0.1643 C   0  0  0  1  0  0  0  0  0  0  0  0
   -2.6364   -4.4252   -1.3029 C   0  0  0  1  0  0  0  0  0  0  0  0
   -2.3117   -3.0821   -1.2721 C   0  0  0  1  0  0  0  0  0  0  0  0
   -2.7796   -6.5224   -0.1291 O   0  0  0  1  0  0  0  0  0  0  0  0
   -2.2884   -7.2748    0.9912 C   0  0  0  1  0  0  0  0  0  0  0  0
    3.1323   -1.2665    0.1855 N   0  0  0  1  0  0  0  0  0  0  0  0
    3.2594   -2.7275    0.1911 C   0  0  0  1  0  0  0  0  0  0  0  0
    2.6176   -3.3165   -1.0554 C   0  0  0  1  0  0  0  0  0  0  0  0
    2.0833   -4.6810   -0.5858 C   0  0  0  1  0  0  0  0  0  0  0  0
    1.6448   -4.4268    0.8481 C   0  0  0  1  0  0  0  0  0  0  0  0
    2.5162   -3.3112    1.3650 C   0  0  0  1  0  0  0  0  0  0  0  0
    1.8360   -5.6563    1.6725 N   0  0  0  1  0  0  0  0  0  0  0  0
    0.9179    2.4773    0.0988 H   0  0  0  1  0  0  0  0  0  0  0  0
   -2.1490    1.9440   -0.0609 H   0  0  0  1  0  0  0  0  0  0  0  0
   -1.3306   -2.8549    1.9116 H   0  0  0  1  0  0  0  0  0  0  0  0
   -1.9044   -5.2117    1.8586 H   0  0  0  1  0  0  0  0  0  0  0  0
   -2.9944   -4.8537   -2.1803 H   0  0  0  1  0  0  0  0  0  0  0  0
   -2.4215   -2.5008   -2.1275 H   0  0  0  1  0  0  0  0  0  0  0  0
   -2.8381   -7.0078    1.8694 H   0  0  0  1  0  0  0  0  0  0  0  0
   -1.2514   -7.0567    1.1398 H   0  0  0  1  0  0  0  0  0  0  0  0
   -2.4094   -8.3205    0.7990 H   0  0  0  1  0  0  0  0  0  0  0  0
    3.9528   -0.7322    0.2275 H   0  0  0  1  0  0  0  0  0  0  0  0
    4.2941   -2.9959    0.2372 H   0  0  0  1  0  0  0  0  0  0  0  0
    3.3408   -3.4386   -1.8345 H   0  0  0  1  0  0  0  0  0  0  0  0
    1.8196   -2.6943   -1.4031 H   0  0  0  1  0  0  0  0  0  0  0  0
    2.8521   -5.4242   -0.6227 H   0  0  0  1  0  0  0  0  0  0  0  0
    1.2554   -4.9932   -1.1875 H   0  0  0  1  0  0  0  0  0  0  0  0
    0.6155   -4.1355    0.8745 H   0  0  0  1  0  0  0  0  0  0  0  0
    3.2116   -3.6949    2.0820 H   0  0  0  1  0  0  0  0  0  0  0  0
    1.9098   -2.5581    1.8233 H   0  0  0  1  0  0  0  0  0  0  0  0
    1.2062   -6.3477    1.3798 H   0  0  0  1  0  0  0  0  0  0  0  0
    1.6739   -5.4454    2.6157 H   0  0  0  1  0  0  0  0  0  0  0  0
  1  2  4  0  0  0  0
  1  6  4  0  0  0  0
  1 18  1  0  0  0  0
  2  3  4  0  0  0  0
  3  4  4  0  0  0  0
  3 25  1  0  0  0  0
  4  5  4  0  0  0  0
  4  7  4  0  0  0  0
  5  6  4  0  0  0  0
  5  9  4  0  0  0  0
  7  8  4  0  0  0  0
  7 26  1  0  0  0  0
  8  9  4  0  0  0  0
  9 10  1  0  0  0  0
 10 11  4  0  0  0  0
 10 15  4  0  0  0  0
 11 12  4  0  0  0  0
 11 27  1  0  0  0  0
 12 13  4  0  0  0  0
 12 28  1  0  0  0  0
 13 14  4  0  0  0  0
 13 16  1  0  0  0  0
 14 15  4  0  0  0  0
 14 29  1  0  0  0  0
 15 30  1  0  0  0  0
 16 17  1  0  0  0  0
 17 31  1  0  0  0  0
 17 32  1  0  0  0  0
 17 33  1  0  0  0  0
 18 19  1  0  0  0  0
 18 34  1  0  0  0  0
 19 20  1  0  0  0  0
 19 23  1  0  0  0  0
 19 35  1  0  0  0  0
 20 21  1  0  0  0  0
 20 36  1  0  0  0  0
 20 37  1  0  0  0  0
 21 22  1  0  0  0  0
 21 38  1  0  0  0  0
 21 39  1  0  0  0  0
 22 23  1  0  0  0  0
 22 24  1  0  0  0  0
 22 40  1  0  0  0  0
 23 41  1  0  0  0  0
 23 42  1  0  0  0  0
 24 43  1  0  0  0  0
 24 44  1  0  0  0  0
M  END
> <ConfClashScore>
0 

> <ConfOneFourInteractionScore>
-0.980204 

> <ConfScore>
0.0615792 

> <ConfScorePBest>
0.00183391 

> <ConfTolerance>
0.478639 

$$$$
c22.sdf
 OpenBabel04162418103D

 44 47  0  0  0  0  0  0  0  0999 V2000
    1.9452   -0.6102    0.1257 C   0  0  0  1  0  0  0  0  0  0  0  0
    2.0363    0.7233    0.1482 N   0  0  0  1  0  0  0  0  0  0  0  0
    0.8946    1.4376    0.0881 C   0  0  0  1  0  0  0  0  0  0  0  0
   -0.3452    0.7386    0.0096 C   0  0  0  1  0  0  0  0  0  0  0  0
   -0.2528   -0.6477    0.0020 C   0  0  0  1  0  0  0  0  0  0  0  0
    0.8779   -1.3912    0.0540 N   0  0  0  1  0  0  0  0  0  0  0  0
   -1.7304    0.9921   -0.0538 C   0  0  0  1  0  0  0  0  0  0  0  0
   -2.4281   -0.1191   -0.1029 N   0  0  0  1  0  0  0  0  0  0  0  0
   -1.5125   -1.1341   -0.0681 N   0  0  0  1  0  0  0  0  0  0  0  0
   -1.8385   -2.5051   -0.1010 C   0  0  0  1  0  0  0  0  0  0  0  0
   -0.9901   -3.3809    0.5498 C   0  0  0  1  0  0  0  0  0  0  0  0
   -1.2663   -4.7393    0.5534 C   0  0  0  1  0  0  0  0  0  0  0  0
   -2.3871   -5.2185   -0.0982 C   0  0  0  1  0  0  0  0  0  0  0  0
   -3.2379   -4.3400   -0.7508 C   0  0  0  1  0  0  0  0  0  0  0  0
   -2.9627   -2.9856   -0.7545 C   0  0  0  1  0  0  0  0  0  0  0  0
   -2.6299   -6.5437   -0.2349 O   0  0  0  1  0  0  0  0  0  0  0  0
   -1.6568   -7.4488    0.3094 C   0  0  0  1  0  0  0  0  0  0  0  0
    3.1213   -1.2604    0.1851 N   0  0  0  1  0  0  0  0  0  0  0  0
    4.4723   -0.7050    0.3152 C   0  0  0  1  0  0  0  0  0  0  0  0
    4.8318    0.1360   -0.9420 C   0  0  0  1  0  0  0  0  0  0  0  0
    5.9643   -0.6139   -1.6654 C   0  0  0  1  0  0  0  0  0  0  0  0
    5.9480   -2.0503   -1.1078 C   0  0  0  1  0  0  0  0  0  0  0  0
    5.5279   -1.8593    0.3890 C   0  0  0  1  0  0  0  0  0  0  0  0
    7.2887   -2.6702   -1.2054 N   0  0  0  1  0  0  0  0  0  0  0  0
    0.9179    2.4773    0.0987 H   0  0  0  1  0  0  0  0  0  0  0  0
   -2.1490    1.9441   -0.0608 H   0  0  0  1  0  0  0  0  0  0  0  0
   -0.1446   -3.0208    1.0365 H   0  0  0  1  0  0  0  0  0  0  0  0
   -0.6301   -5.3979    1.0464 H   0  0  0  1  0  0  0  0  0  0  0  0
   -4.0834   -4.7001   -1.2375 H   0  0  0  1  0  0  0  0  0  0  0  0
   -3.5988   -2.3269   -1.2474 H   0  0  0  1  0  0  0  0  0  0  0  0
   -1.5746   -8.3077   -0.3233 H   0  0  0  1  0  0  0  0  0  0  0  0
   -1.9629   -7.7550    1.2880 H   0  0  0  1  0  0  0  0  0  0  0  0
   -0.7079   -6.9581    0.3692 H   0  0  0  1  0  0  0  0  0  0  0  0
    3.0681   -2.2376    0.1345 H   0  0  0  1  0  0  0  0  0  0  0  0
    4.5256   -0.0978    1.1946 H   0  0  0  1  0  0  0  0  0  0  0  0
    3.9795    0.2239   -1.5830 H   0  0  0  1  0  0  0  0  0  0  0  0
    5.1622    1.1113   -0.6513 H   0  0  0  1  0  0  0  0  0  0  0  0
    6.9062   -0.1479   -1.4640 H   0  0  0  1  0  0  0  0  0  0  0  0
    5.7888   -0.6231   -2.7209 H   0  0  0  1  0  0  0  0  0  0  0  0
    5.2362   -2.6548   -1.6302 H   0  0  0  1  0  0  0  0  0  0  0  0
    5.0924   -2.7537    0.7830 H   0  0  0  1  0  0  0  0  0  0  0  0
    6.3663   -1.5754    0.9902 H   0  0  0  1  0  0  0  0  0  0  0  0
    7.9325   -2.1399   -0.6910 H   0  0  0  1  0  0  0  0  0  0  0  0
    7.5668   -2.7003   -2.1446 H   0  0  0  1  0  0  0  0  0  0  0  0
  1  2  4  0  0  0  0
  1  6  4  0  0  0  0
  1 18  1  0  0  0  0
  2  3  4  0  0  0  0
  3  4  4  0  0  0  0
  3 25  1  0  0  0  0
  4  5  4  0  0  0  0
  4  7  4  0  0  0  0
  5  6  4  0  0  0  0
  5  9  4  0  0  0  0
  7  8  4  0  0  0  0
  7 26  1  0  0  0  0
  8  9  4  0  0  0  0
  9 10  1  0  0  0  0
 10 11  4  0  0  0  0
 10 15  4  0  0  0  0
 11 12  4  0  0  0  0
 11 27  1  0  0  0  0
 12 13  4  0  0  0  0
 12 28  1  0  0  0  0
 13 14  4  0  0  0  0
 13 16  1  0  0  0  0
 14 15  4  0  0  0  0
 14 29  1  0  0  0  0
 15 30  1  0  0  0  0
 16 17  1  0  0  0  0
 17 31  1  0  0  0  0
 17 32  1  0  0  0  0
 17 33  1  0  0  0  0
 18 19  1  0  0  0  0
 18 34  1  0  0  0  0
 19 20  1  0  0  0  0
 19 23  1  0  0  0  0
 19 35  1  0  0  0  0
 20 21  1  0  0  0  0
 20 36  1  0  0  0  0
 20 37  1  0  0  0  0
 21 22  1  0  0  0  0
 21 38  1  0  0  0  0
 21 39  1  0  0  0  0
 22 23  1  0  0  0  0
 22 24  1  0  0  0  0
 22 40  1  0  0  0  0
 23 41  1  0  0  0  0
 23 42  1  0  0  0  0
 24 43  1  0  0  0  0
 24 44  1  0  0  0  0
M  END
> <ConfClashScore>
0 

> <ConfOneFourInteractionScore>
-0.987888 

> <ConfScore>
0.0639523 

> <ConfScorePBest>
0.00182058 

> <ConfTolerance>
0.545497 

$$$$
c22.sdf
 OpenBabel04162418103D

 44 47  0  0  0  0  0  0  0  0999 V2000
    1.9452   -0.6103    0.1256 C   0  0  0  1  0  0  0  0  0  0  0  0
    2.0363    0.7233    0.1482 N   0  0  0  1  0  0  0  0  0  0  0  0
    0.8946    1.4376    0.0881 C   0  0  0  1  0  0  0  0  0  0  0  0
   -0.3452    0.7386    0.0096 C   0  0  0  1  0  0  0  0  0  0  0  0
   -0.2528   -0.6478    0.0020 C   0  0  0  1  0  0  0  0  0  0  0  0
    0.8779   -1.3912    0.0539 N   0  0  0  1  0  0  0  0  0  0  0  0
   -1.7303    0.9921   -0.0538 C   0  0  0  1  0  0  0  0  0  0  0  0
   -2.4281   -0.1191   -0.1028 N   0  0  0  1  0  0  0  0  0  0  0  0
   -1.5125   -1.1341   -0.0681 N   0  0  0  1  0  0  0  0  0  0  0  0
   -1.8385   -2.5051   -0.1011 C   0  0  0  1  0  0  0  0  0  0  0  0
   -0.9789   -3.4817    0.3651 C   0  0  0  1  0  0  0  0  0  0  0  0
   -1.3524   -4.8156    0.3137 C   0  0  0  1  0  0  0  0  0  0  0  0
   -2.5822   -5.1694   -0.2085 C   0  0  0  1  0  0  0  0  0  0  0  0
   -3.4443   -4.1897   -0.6760 C   0  0  0  1  0  0  0  0  0  0  0  0
   -3.0720   -2.8597   -0.6248 C   0  0  0  1  0  0  0  0  0  0  0  0
   -3.0525   -6.4349   -0.3148 O   0  0  0  1  0  0  0  0  0  0  0  0
   -2.3090   -7.4691    0.3486 C   0  0  0  1  0  0  0  0  0  0  0  0
    3.1213   -1.2605    0.1849 N   0  0  0  1  0  0  0  0  0  0  0  0
    4.4541   -0.6509    0.1816 C   0  0  0  1  0  0  0  0  0  0  0  0
    5.3001   -1.1578   -0.9936 C   0  0  0  1  0  0  0  0  0  0  0  0
    5.7654   -2.5440   -0.5653 C   0  0  0  1  0  0  0  0  0  0  0  0
    5.8490   -2.4900    0.9646 C   0  0  0  1  0  0  0  0  0  0  0  0
    5.2875   -1.1201    1.3772 C   0  0  0  1  0  0  0  0  0  0  0  0
    7.2605   -2.6223    1.4079 N   0  0  0  1  0  0  0  0  0  0  0  0
    0.9179    2.4772    0.0988 H   0  0  0  1  0  0  0  0  0  0  0  0
   -2.1490    1.9441   -0.0608 H   0  0  0  1  0  0  0  0  0  0  0  0
   -0.0518   -3.2159    0.7543 H   0  0  0  1  0  0  0  0  0  0  0  0
   -0.7073   -5.5503    0.6681 H   0  0  0  1  0  0  0  0  0  0  0  0
   -4.3714   -4.4555   -1.0652 H   0  0  0  1  0  0  0  0  0  0  0  0
   -3.7172   -2.1250   -0.9793 H   0  0  0  1  0  0  0  0  0  0  0  0
   -2.6073   -7.5213    1.3748 H   0  0  0  1  0  0  0  0  0  0  0  0
   -1.2635   -7.2487    0.2921 H   0  0  0  1  0  0  0  0  0  0  0  0
   -2.5023   -8.4080   -0.1269 H   0  0  0  1  0  0  0  0  0  0  0  0
    3.0832   -2.2384    0.2354 H   0  0  0  1  0  0  0  0  0  0  0  0
    4.3594    0.4148    0.1647 H   0  0  0  1  0  0  0  0  0  0  0  0
    4.7110   -1.2164   -1.8849 H   0  0  0  1  0  0  0  0  0  0  0  0
    6.1379   -0.5135   -1.1609 H   0  0  0  1  0  0  0  0  0  0  0  0
    5.0615   -3.2876   -0.8757 H   0  0  0  1  0  0  0  0  0  0  0  0
    6.7249   -2.7631   -0.9851 H   0  0  0  1  0  0  0  0  0  0  0  0
    5.2642   -3.2755    1.3958 H   0  0  0  1  0  0  0  0  0  0  0  0
    6.0833   -0.4322    1.5726 H   0  0  0  1  0  0  0  0  0  0  0  0
    4.6738   -1.2134    2.2487 H   0  0  0  1  0  0  0  0  0  0  0  0
    7.3261   -2.4025    2.3606 H   0  0  0  1  0  0  0  0  0  0  0  0
    7.8236   -2.0085    0.8916 H   0  0  0  1  0  0  0  0  0  0  0  0
  1  2  4  0  0  0  0
  1  6  4  0  0  0  0
  1 18  1  0  0  0  0
  2  3  4  0  0  0  0
  3  4  4  0  0  0  0
  3 25  1  0  0  0  0
  4  5  4  0  0  0  0
  4  7  4  0  0  0  0
  5  6  4  0  0  0  0
  5  9  4  0  0  0  0
  7  8  4  0  0  0  0
  7 26  1  0  0  0  0
  8  9  4  0  0  0  0
  9 10  1  0  0  0  0
 10 11  4  0  0  0  0
 10 15  4  0  0  0  0
 11 12  4  0  0  0  0
 11 27  1  0  0  0  0
 12 13  4  0  0  0  0
 12 28  1  0  0  0  0
 13 14  4  0  0  0  0
 13 16  1  0  0  0  0
 14 15  4  0  0  0  0
 14 29  1  0  0  0  0
 15 30  1  0  0  0  0
 16 17  1  0  0  0  0
 17 31  1  0  0  0  0
 17 32  1  0  0  0  0
 17 33  1  0  0  0  0
 18 19  1  0  0  0  0
 18 34  1  0  0  0  0
 19 20  1  0  0  0  0
 19 23  1  0  0  0  0
 19 35  1  0  0  0  0
 20 21  1  0  0  0  0
 20 36  1  0  0  0  0
 20 37  1  0  0  0  0
 21 22  1  0  0  0  0
 21 38  1  0  0  0  0
 21 39  1  0  0  0  0
 22 23  1  0  0  0  0
 22 24  1  0  0  0  0
 22 40  1  0  0  0  0
 23 41  1  0  0  0  0
 23 42  1  0  0  0  0
 24 43  1  0  0  0  0
 24 44  1  0  0  0  0
M  END
> <ConfClashScore>
0 

> <ConfOneFourInteractionScore>
-0.984337 

> <ConfScore>
0.0645056 

> <ConfScorePBest>
0.00180726 

> <ConfTolerance>
0.546545 

$$$$
c22.sdf
 OpenBabel04162418103D

 44 47  0  0  0  0  0  0  0  0999 V2000
    1.9452   -0.6102    0.1256 C   0  0  0  1  0  0  0  0  0  0  0  0
    2.0363    0.7232    0.1482 N   0  0  0  1  0  0  0  0  0  0  0  0
    0.8946    1.4376    0.0881 C   0  0  0  1  0  0  0  0  0  0  0  0
   -0.3452    0.7386    0.0096 C   0  0  0  1  0  0  0  0  0  0  0  0
   -0.2528   -0.6478    0.0021 C   0  0  0  1  0  0  0  0  0  0  0  0
    0.8780   -1.3913    0.0539 N   0  0  0  1  0  0  0  0  0  0  0  0
   -1.7304    0.9921   -0.0538 C   0  0  0  1  0  0  0  0  0  0  0  0
   -2.4281   -0.1191   -0.1028 N   0  0  0  1  0  0  0  0  0  0  0  0
   -1.5125   -1.1342   -0.0681 N   0  0  0  1  0  0  0  0  0  0  0  0
   -1.8419   -2.5193   -0.1012 C   0  0  0  1  0  0  0  0  0  0  0  0
   -1.6026   -3.3130    1.0045 C   0  0  0  1  0  0  0  0  0  0  0  0
   -1.9281   -4.6601    0.9740 C   0  0  0  1  0  0  0  0  0  0  0  0
   -2.4871   -5.2106   -0.1640 C   0  0  0  1  0  0  0  0  0  0  0  0
   -2.7270   -4.4143   -1.2729 C   0  0  0  1  0  0  0  0  0  0  0  0
   -2.4025   -3.0711   -1.2427 C   0  0  0  1  0  0  0  0  0  0  0  0
   -2.7566   -6.5316   -0.0784 O   0  0  0  1  0  0  0  0  0  0  0  0
   -3.3387   -7.2087   -1.2032 C   0  0  0  1  0  0  0  0  0  0  0  0
    3.1542   -1.2787    0.1867 N   0  0  0  1  0  0  0  0  0  0  0  0
    4.4036   -0.5202    0.2950 C   0  0  0  1  0  0  0  0  0  0  0  0
    4.3773    0.3045    1.5962 C   0  0  0  1  0  0  0  0  0  0  0  0
    5.3486    1.3665    1.0560 C   0  0  0  1  0  0  0  0  0  0  0  0
    4.8420    1.7640   -0.3536 C   0  0  0  1  0  0  0  0  0  0  0  0
    4.5489    0.3860   -0.9442 C   0  0  0  1  0  0  0  0  0  0  0  0
    5.8968    2.4889   -1.1368 N   0  0  0  1  0  0  0  0  0  0  0  0
    0.9179    2.4772    0.0988 H   0  0  0  1  0  0  0  0  0  0  0  0
   -2.1490    1.9441   -0.0608 H   0  0  0  1  0  0  0  0  0  0  0  0
   -1.1783   -2.8998    1.8594 H   0  0  0  1  0  0  0  0  0  0  0  0
   -1.7518   -5.2567    1.8075 H   0  0  0  1  0  0  0  0  0  0  0  0
   -3.1512   -4.8275   -2.1278 H   0  0  0  1  0  0  0  0  0  0  0  0
   -2.5787   -2.4746   -2.0761 H   0  0  0  1  0  0  0  0  0  0  0  0
   -2.7191   -7.0688   -2.0642 H   0  0  0  1  0  0  0  0  0  0  0  0
   -4.3121   -6.8082   -1.3956 H   0  0  0  1  0  0  0  0  0  0  0  0
   -3.4188   -8.2537   -0.9876 H   0  0  0  1  0  0  0  0  0  0  0  0
    3.1757   -2.2580    0.1575 H   0  0  0  1  0  0  0  0  0  0  0  0
    5.2310   -1.1977    0.3294 H   0  0  0  1  0  0  0  0  0  0  0  0
    3.4093    0.6961    1.8292 H   0  0  0  1  0  0  0  0  0  0  0  0
    4.7604   -0.2276    2.4419 H   0  0  0  1  0  0  0  0  0  0  0  0
    5.3540    2.2213    1.6995 H   0  0  0  1  0  0  0  0  0  0  0  0
    6.3370    0.9620    0.9911 H   0  0  0  1  0  0  0  0  0  0  0  0
    3.9593    2.3665   -0.3005 H   0  0  0  1  0  0  0  0  0  0  0  0
    3.6436    0.4002   -1.5144 H   0  0  0  1  0  0  0  0  0  0  0  0
    5.3565    0.0573   -1.5643 H   0  0  0  1  0  0  0  0  0  0  0  0
    6.6478    1.8841   -1.3119 H   0  0  0  1  0  0  0  0  0  0  0  0
    6.2125    3.2609   -0.6224 H   0  0  0  1  0  0  0  0  0  0  0  0
  1  2  4  0  0  0  0
  1  6  4  0  0  0  0
  1 18  1  0  0  0  0
  2  3  4  0  0  0  0
  3  4  4  0  0  0  0
  3 25  1  0  0  0  0
  4  5  4  0  0  0  0
  4  7  4  0  0  0  0
  5  6  4  0  0  0  0
  5  9  4  0  0  0  0
  7  8  4  0  0  0  0
  7 26  1  0  0  0  0
  8  9  4  0  0  0  0
  9 10  1  0  0  0  0
 10 11  4  0  0  0  0
 10 15  4  0  0  0  0
 11 12  4  0  0  0  0
 11 27  1  0  0  0  0
 12 13  4  0  0  0  0
 12 28  1  0  0  0  0
 13 14  4  0  0  0  0
 13 16  1  0  0  0  0
 14 15  4  0  0  0  0
 14 29  1  0  0  0  0
 15 30  1  0  0  0  0
 16 17  1  0  0  0  0
 17 31  1  0  0  0  0
 17 32  1  0  0  0  0
 17 33  1  0  0  0  0
 18 19  1  0  0  0  0
 18 34  1  0  0  0  0
 19 20  1  0  0  0  0
 19 23  1  0  0  0  0
 19 35  1  0  0  0  0
 20 21  1  0  0  0  0
 20 36  1  0  0  0  0
 20 37  1  0  0  0  0
 21 22  1  0  0  0  0
 21 38  1  0  0  0  0
 21 39  1  0  0  0  0
 22 23  1  0  0  0  0
 22 24  1  0  0  0  0
 22 40  1  0  0  0  0
 23 41  1  0  0  0  0
 23 42  1  0  0  0  0
 24 43  1  0  0  0  0
 24 44  1  0  0  0  0
M  END
> <ConfClashScore>
0 

> <ConfOneFourInteractionScore>
-0.980204 

> <ConfScore>
0.0682155 

> <ConfScorePBest>
0.00179393 

> <ConfTolerance>
0.285401 

$$$$
c22.sdf
 OpenBabel04162418103D

 44 47  0  0  0  0  0  0  0  0999 V2000
    1.9452   -0.6102    0.1256 C   0  0  0  1  0  0  0  0  0  0  0  0
    2.0363    0.7233    0.1482 N   0  0  0  1  0  0  0  0  0  0  0  0
    0.8946    1.4376    0.0881 C   0  0  0  1  0  0  0  0  0  0  0  0
   -0.3453    0.7386    0.0096 C   0  0  0  1  0  0  0  0  0  0  0  0
   -0.2528   -0.6477    0.0020 C   0  0  0  1  0  0  0  0  0  0  0  0
    0.8780   -1.3912    0.0539 N   0  0  0  1  0  0  0  0  0  0  0  0
   -1.7303    0.9920   -0.0538 C   0  0  0  1  0  0  0  0  0  0  0  0
   -2.4281   -0.1191   -0.1029 N   0  0  0  1  0  0  0  0  0  0  0  0
   -1.5126   -1.1341   -0.0681 N   0  0  0  1  0  0  0  0  0  0  0  0
   -1.8420   -2.5200   -0.1014 C   0  0  0  1  0  0  0  0  0  0  0  0
   -2.6427   -3.0648    0.8847 C   0  0  0  1  0  0  0  0  0  0  0  0
   -2.8911   -4.4284    0.9009 C   0  0  0  1  0  0  0  0  0  0  0  0
   -2.3338   -5.2441   -0.0657 C   0  0  0  1  0  0  0  0  0  0  0  0
   -1.5306   -4.6976   -1.0545 C   0  0  0  1  0  0  0  0  0  0  0  0
   -1.2829   -3.3379   -1.0709 C   0  0  0  1  0  0  0  0  0  0  0  0
   -2.7038   -6.5467   -0.0754 O   0  0  0  1  0  0  0  0  0  0  0  0
   -3.3865   -7.0436    1.0862 C   0  0  0  1  0  0  0  0  0  0  0  0
    3.1149   -1.2568    0.1847 N   0  0  0  1  0  0  0  0  0  0  0  0
    3.3352   -2.6834   -0.0726 C   0  0  0  1  0  0  0  0  0  0  0  0
    2.8441   -3.0581   -1.4735 C   0  0  0  1  0  0  0  0  0  0  0  0
    2.5929   -4.5630   -1.3128 C   0  0  0  1  0  0  0  0  0  0  0  0
    1.9439   -4.7023    0.0586 C   0  0  0  1  0  0  0  0  0  0  0  0
    2.4984   -3.5400    0.8907 C   0  0  0  1  0  0  0  0  0  0  0  0
    2.3066   -5.9996    0.6744 N   0  0  0  1  0  0  0  0  0  0  0  0
    0.9179    2.4773    0.0988 H   0  0  0  1  0  0  0  0  0  0  0  0
   -2.1490    1.9440   -0.0609 H   0  0  0  1  0  0  0  0  0  0  0  0
   -3.0590   -2.4516    1.6144 H   0  0  0  1  0  0  0  0  0  0  0  0
   -3.4970   -4.8377    1.6406 H   0  0  0  1  0  0  0  0  0  0  0  0
   -1.1144   -5.3107   -1.7843 H   0  0  0  1  0  0  0  0  0  0  0  0
   -0.6771   -2.9285   -1.8104 H   0  0  0  1  0  0  0  0  0  0  0  0
   -3.1220   -8.0682    1.2449 H   0  0  0  1  0  0  0  0  0  0  0  0
   -4.4435   -6.9673    0.9384 H   0  0  0  1  0  0  0  0  0  0  0  0
   -3.1027   -6.4658    1.9409 H   0  0  0  1  0  0  0  0  0  0  0  0
    3.9022   -0.7243    0.4234 H   0  0  0  1  0  0  0  0  0  0  0  0
    4.3758   -2.9088    0.0327 H   0  0  0  1  0  0  0  0  0  0  0  0
    3.5904   -2.8629   -2.2150 H   0  0  0  1  0  0  0  0  0  0  0  0
    1.9449   -2.5360   -1.7257 H   0  0  0  1  0  0  0  0  0  0  0  0
    3.5145   -5.1056   -1.3509 H   0  0  0  1  0  0  0  0  0  0  0  0
    1.9365   -4.9198   -2.0788 H   0  0  0  1  0  0  0  0  0  0  0  0
    0.8793   -4.6303   -0.0220 H   0  0  0  1  0  0  0  0  0  0  0  0
    1.6967   -2.9616    1.3000 H   0  0  0  1  0  0  0  0  0  0  0  0
    3.1120   -3.9120    1.6844 H   0  0  0  1  0  0  0  0  0  0  0  0
    1.9646   -6.0332    1.5921 H   0  0  0  1  0  0  0  0  0  0  0  0
    3.2819   -6.0941    0.6858 H   0  0  0  1  0  0  0  0  0  0  0  0
  1  2  4  0  0  0  0
  1  6  4  0  0  0  0
  1 18  1  0  0  0  0
  2  3  4  0  0  0  0
  3  4  4  0  0  0  0
  3 25  1  0  0  0  0
  4  5  4  0  0  0  0
  4  7  4  0  0  0  0
  5  6  4  0  0  0  0
  5  9  4  0  0  0  0
  7  8  4  0  0  0  0
  7 26  1  0  0  0  0
  8  9  4  0  0  0  0
  9 10  1  0  0  0  0
 10 11  4  0  0  0  0
 10 15  4  0  0  0  0
 11 12  4  0  0  0  0
 11 27  1  0  0  0  0
 12 13  4  0  0  0  0
 12 28  1  0  0  0  0
 13 14  4  0  0  0  0
 13 16  1  0  0  0  0
 14 15  4  0  0  0  0
 14 29  1  0  0  0  0
 15 30  1  0  0  0  0
 16 17  1  0  0  0  0
 17 31  1  0  0  0  0
 17 32  1  0  0  0  0
 17 33  1  0  0  0  0
 18 19  1  0  0  0  0
 18 34  1  0  0  0  0
 19 20  1  0  0  0  0
 19 23  1  0  0  0  0
 19 35  1  0  0  0  0
 20 21  1  0  0  0  0
 20 36  1  0  0  0  0
 20 37  1  0  0  0  0
 21 22  1  0  0  0  0
 21 38  1  0  0  0  0
 21 39  1  0  0  0  0
 22 23  1  0  0  0  0
 22 24  1  0  0  0  0
 22 40  1  0  0  0  0
 23 41  1  0  0  0  0
 23 42  1  0  0  0  0
 24 43  1  0  0  0  0
 24 44  1  0  0  0  0
M  END
> <ConfClashScore>
0 

> <ConfOneFourInteractionScore>
-0.980204 

> <ConfScore>
0.0711264 

> <ConfScorePBest>
0.0017806 

> <ConfTolerance>
0.426879 

$$$$
c22.sdf
 OpenBabel04162418103D

 44 47  0  0  0  0  0  0  0  0999 V2000
    1.9452   -0.6103    0.1255 C   0  0  0  1  0  0  0  0  0  0  0  0
    2.0363    0.7233    0.1481 N   0  0  0  1  0  0  0  0  0  0  0  0
    0.8946    1.4376    0.0881 C   0  0  0  1  0  0  0  0  0  0  0  0
   -0.3452    0.7386    0.0096 C   0  0  0  1  0  0  0  0  0  0  0  0
   -0.2528   -0.6478    0.0020 C   0  0  0  1  0  0  0  0  0  0  0  0
    0.8780   -1.3913    0.0539 N   0  0  0  1  0  0  0  0  0  0  0  0
   -1.7303    0.9921   -0.0538 C   0  0  0  1  0  0  0  0  0  0  0  0
   -2.4281   -0.1192   -0.1028 N   0  0  0  1  0  0  0  0  0  0  0  0
   -1.5125   -1.1341   -0.0681 N   0  0  0  1  0  0  0  0  0  0  0  0
   -1.8397   -2.5099   -0.1012 C   0  0  0  1  0  0  0  0  0  0  0  0
   -3.0751   -2.8624   -0.6104 C   0  0  0  1  0  0  0  0  0  0  0  0
   -3.4446   -4.1970   -0.6710 C   0  0  0  1  0  0  0  0  0  0  0  0
   -2.5797   -5.1749   -0.2172 C   0  0  0  1  0  0  0  0  0  0  0  0
   -1.3405   -4.8213    0.2935 C   0  0  0  1  0  0  0  0  0  0  0  0
   -0.9720   -3.4905    0.3540 C   0  0  0  1  0  0  0  0  0  0  0  0
   -2.8302   -6.4986   -0.2211 O   0  0  0  1  0  0  0  0  0  0  0  0
   -4.1070   -6.8784   -0.7852 C   0  0  0  1  0  0  0  0  0  0  0  0
    3.1257   -1.2629    0.1851 N   0  0  0  1  0  0  0  0  0  0  0  0
    4.4105   -0.6048    0.4275 C   0  0  0  1  0  0  0  0  0  0  0  0
    5.5061   -1.6224    0.7713 C   0  0  0  1  0  0  0  0  0  0  0  0
    5.2459   -1.9937    2.2259 C   0  0  0  1  0  0  0  0  0  0  0  0
    4.6002   -0.7528    2.8532 C   0  0  0  1  0  0  0  0  0  0  0  0
    4.3744    0.2413    1.7030 C   0  0  0  1  0  0  0  0  0  0  0  0
    5.5186   -0.1529    3.8903 N   0  0  0  1  0  0  0  0  0  0  0  0
    0.9179    2.4772    0.0989 H   0  0  0  1  0  0  0  0  0  0  0  0
   -2.1489    1.9440   -0.0608 H   0  0  0  1  0  0  0  0  0  0  0  0
   -3.7276   -2.1263   -0.9481 H   0  0  0  1  0  0  0  0  0  0  0  0
   -4.3727   -4.4626   -1.0580 H   0  0  0  1  0  0  0  0  0  0  0  0
   -0.6880   -5.5573    0.6313 H   0  0  0  1  0  0  0  0  0  0  0  0
   -0.0440   -3.2249    0.7409 H   0  0  0  1  0  0  0  0  0  0  0  0
   -4.3483   -6.2232   -1.5961 H   0  0  0  1  0  0  0  0  0  0  0  0
   -4.8643   -6.8078   -0.0326 H   0  0  0  1  0  0  0  0  0  0  0  0
   -4.0528   -7.8849   -1.1442 H   0  0  0  1  0  0  0  0  0  0  0  0
    3.1221   -2.2346    0.0585 H   0  0  0  1  0  0  0  0  0  0  0  0
    4.6769   -0.0161   -0.4253 H   0  0  0  1  0  0  0  0  0  0  0  0
    6.4760   -1.1840    0.6615 H   0  0  0  1  0  0  0  0  0  0  0  0
    5.4306   -2.4848    0.1425 H   0  0  0  1  0  0  0  0  0  0  0  0
    6.1642   -2.2292    2.7221 H   0  0  0  1  0  0  0  0  0  0  0  0
    4.5828   -2.8314    2.2856 H   0  0  0  1  0  0  0  0  0  0  0  0
    3.6670   -1.0106    3.3089 H   0  0  0  1  0  0  0  0  0  0  0  0
    3.4252    0.7245    1.8058 H   0  0  0  1  0  0  0  0  0  0  0  0
    5.1503    0.9780    1.6864 H   0  0  0  1  0  0  0  0  0  0  0  0
    6.3263    0.1892    3.4533 H   0  0  0  1  0  0  0  0  0  0  0  0
    5.7670   -0.8403    4.5432 H   0  0  0  1  0  0  0  0  0  0  0  0
  1  2  4  0  0  0  0
  1  6  4  0  0  0  0
  1 18  1  0  0  0  0
  2  3  4  0  0  0  0
  3  4  4  0  0  0  0
  3 25  1  0  0  0  0
  4  5  4  0  0  0  0
  4  7  4  0  0  0  0
  5  6  4  0  0  0  0
  5  9  4  0  0  0  0
  7  8  4  0  0  0  0
  7 26  1  0  0  0  0
  8  9  4  0  0  0  0
  9 10  1  0  0  0  0
 10 11  4  0  0  0  0
 10 15  4  0  0  0  0
 11 12  4  0  0  0  0
 11 27  1  0  0  0  0
 12 13  4  0  0  0  0
 12 28  1  0  0  0  0
 13 14  4  0  0  0  0
 13 16  1  0  0  0  0
 14 15  4  0  0  0  0
 14 29  1  0  0  0  0
 15 30  1  0  0  0  0
 16 17  1  0  0  0  0
 17 31  1  0  0  0  0
 17 32  1  0  0  0  0
 17 33  1  0  0  0  0
 18 19  1  0  0  0  0
 18 34  1  0  0  0  0
 19 20  1  0  0  0  0
 19 23  1  0  0  0  0
 19 35  1  0  0  0  0
 20 21  1  0  0  0  0
 20 36  1  0  0  0  0
 20 37  1  0  0  0  0
 21 22  1  0  0  0  0
 21 38  1  0  0  0  0
 21 39  1  0  0  0  0
 22 23  1  0  0  0  0
 22 24  1  0  0  0  0
 22 40  1  0  0  0  0
 23 41  1  0  0  0  0
 23 42  1  0  0  0  0
 24 43  1  0  0  0  0
 24 44  1  0  0  0  0
M  END
> <ConfClashScore>
0 

> <ConfOneFourInteractionScore>
-0.985399 

> <ConfScore>
0.0724434 

> <ConfScorePBest>
0.00176727 

> <ConfTolerance>
0.678184 

$$$$
c22.sdf
 OpenBabel04162418103D

 44 47  0  0  0  0  0  0  0  0999 V2000
    1.9452   -0.6102    0.1256 C   0  0  0  1  0  0  0  0  0  0  0  0
    2.0363    0.7233    0.1481 N   0  0  0  1  0  0  0  0  0  0  0  0
    0.8945    1.4375    0.0881 C   0  0  0  1  0  0  0  0  0  0  0  0
   -0.3452    0.7386    0.0096 C   0  0  0  1  0  0  0  0  0  0  0  0
   -0.2528   -0.6477    0.0021 C   0  0  0  1  0  0  0  0  0  0  0  0
    0.8779   -1.3913    0.0539 N   0  0  0  1  0  0  0  0  0  0  0  0
   -1.7303    0.9921   -0.0538 C   0  0  0  1  0  0  0  0  0  0  0  0
   -2.4281   -0.1191   -0.1029 N   0  0  0  1  0  0  0  0  0  0  0  0
   -1.5125   -1.1342   -0.0681 N   0  0  0  1  0  0  0  0  0  0  0  0
   -1.8397   -2.5099   -0.1011 C   0  0  0  1  0  0  0  0  0  0  0  0
   -0.9440   -3.4206   -0.6286 C   0  0  0  1  0  0  0  0  0  0  0  0
   -1.2623   -4.7694   -0.6561 C   0  0  0  1  0  0  0  0  0  0  0  0
   -2.4777   -5.2030   -0.1607 C   0  0  0  1  0  0  0  0  0  0  0  0
   -3.3760   -4.2894    0.3684 C   0  0  0  1  0  0  0  0  0  0  0  0
   -3.0586   -2.9444    0.3958 C   0  0  0  1  0  0  0  0  0  0  0  0
   -2.8324   -6.5046   -0.2779 O   0  0  0  1  0  0  0  0  0  0  0  0
   -4.0710   -6.9043    0.3292 C   0  0  0  1  0  0  0  0  0  0  0  0
    3.1148   -1.2568    0.1846 N   0  0  0  1  0  0  0  0  0  0  0  0
    4.4464   -0.6521    0.1253 C   0  0  0  1  0  0  0  0  0  0  0  0
    5.2353   -1.1706   -1.1272 C   0  0  0  1  0  0  0  0  0  0  0  0
    6.4045   -2.0270   -0.6067 C   0  0  0  1  0  0  0  0  0  0  0  0
    6.7013   -1.3931    0.7938 C   0  0  0  1  0  0  0  0  0  0  0  0
    5.2915   -1.0913    1.3167 C   0  0  0  1  0  0  0  0  0  0  0  0
    7.5019   -0.1548    0.6638 N   0  0  0  1  0  0  0  0  0  0  0  0
    0.9179    2.4773    0.0988 H   0  0  0  1  0  0  0  0  0  0  0  0
   -2.1490    1.9441   -0.0609 H   0  0  0  1  0  0  0  0  0  0  0  0
   -0.0311   -3.0939   -1.0051 H   0  0  0  1  0  0  0  0  0  0  0  0
   -0.5867   -5.4552   -1.0494 H   0  0  0  1  0  0  0  0  0  0  0  0
   -4.2888   -4.6160    0.7448 H   0  0  0  1  0  0  0  0  0  0  0  0
   -3.7342   -2.2586    0.7891 H   0  0  0  1  0  0  0  0  0  0  0  0
   -4.0711   -6.6206    1.3609 H   0  0  0  1  0  0  0  0  0  0  0  0
   -4.1798   -7.9660    0.2515 H   0  0  0  1  0  0  0  0  0  0  0  0
   -4.8851   -6.4242   -0.1725 H   0  0  0  1  0  0  0  0  0  0  0  0
    3.0762   -2.2317    0.2767 H   0  0  0  1  0  0  0  0  0  0  0  0
    4.3540    0.4136    0.0996 H   0  0  0  1  0  0  0  0  0  0  0  0
    5.6105   -0.3430   -1.6922 H   0  0  0  1  0  0  0  0  0  0  0  0
    4.5936   -1.7633   -1.7449 H   0  0  0  1  0  0  0  0  0  0  0  0
    6.1181   -3.0536   -0.5122 H   0  0  0  1  0  0  0  0  0  0  0  0
    7.2548   -1.9513   -1.2519 H   0  0  0  1  0  0  0  0  0  0  0  0
    7.2123   -2.0834    1.4317 H   0  0  0  1  0  0  0  0  0  0  0  0
    4.8703   -1.9696    1.7596 H   0  0  0  1  0  0  0  0  0  0  0  0
    5.3317   -0.3082    2.0448 H   0  0  0  1  0  0  0  0  0  0  0  0
    7.8945    0.0735    1.5321 H   0  0  0  1  0  0  0  0  0  0  0  0
    6.9240    0.5777    0.3640 H   0  0  0  1  0  0  0  0  0  0  0  0
  1  2  4  0  0  0  0
  1  6  4  0  0  0  0
  1 18  1  0  0  0  0
  2  3  4  0  0  0  0
  3  4  4  0  0  0  0
  3 25  1  0  0  0  0
  4  5  4  0  0  0  0
  4  7  4  0  0  0  0
  5  6  4  0  0  0  0
  5  9  4  0  0  0  0
  7  8  4  0  0  0  0
  7 26  1  0  0  0  0
  8  9  4  0  0  0  0
  9 10  1  0  0  0  0
 10 11  4  0  0  0  0
 10 15  4  0  0  0  0
 11 12  4  0  0  0  0
 11 27  1  0  0  0  0
 12 13  4  0  0  0  0
 12 28  1  0  0  0  0
 13 14  4  0  0  0  0
 13 16  1  0  0  0  0
 14 15  4  0  0  0  0
 14 29  1  0  0  0  0
 15 30  1  0  0  0  0
 16 17  1  0  0  0  0
 17 31  1  0  0  0  0
 17 32  1  0  0  0  0
 17 33  1  0  0  0  0
 18 19  1  0  0  0  0
 18 34  1  0  0  0  0
 19 20  1  0  0  0  0
 19 23  1  0  0  0  0
 19 35  1  0  0  0  0
 20 21  1  0  0  0  0
 20 36  1  0  0  0  0
 20 37  1  0  0  0  0
 21 22  1  0  0  0  0
 21 38  1  0  0  0  0
 21 39  1  0  0  0  0
 22 23  1  0  0  0  0
 22 24  1  0  0  0  0
 22 40  1  0  0  0  0
 23 41  1  0  0  0  0
 23 42  1  0  0  0  0
 24 43  1  0  0  0  0
 24 44  1  0  0  0  0
M  END
> <ConfClashScore>
0 

> <ConfOneFourInteractionScore>
-0.984337 

> <ConfScore>
0.0748009 

> <ConfScorePBest>
0.00175394 

> <ConfTolerance>
0.659495 

$$$$
c22.sdf
 OpenBabel04162418103D

 44 47  0  0  0  0  0  0  0  0999 V2000
    1.9452   -0.6103    0.1256 C   0  0  0  1  0  0  0  0  0  0  0  0
    2.0363    0.7232    0.1481 N   0  0  0  1  0  0  0  0  0  0  0  0
    0.8945    1.4376    0.0881 C   0  0  0  1  0  0  0  0  0  0  0  0
   -0.3453    0.7386    0.0096 C   0  0  0  1  0  0  0  0  0  0  0  0
   -0.2529   -0.6478    0.0020 C   0  0  0  1  0  0  0  0  0  0  0  0
    0.8779   -1.3913    0.0539 N   0  0  0  1  0  0  0  0  0  0  0  0
   -1.7303    0.9921   -0.0538 C   0  0  0  1  0  0  0  0  0  0  0  0
   -2.4281   -0.1191   -0.1028 N   0  0  0  1  0  0  0  0  0  0  0  0
   -1.5125   -1.1341   -0.0681 N   0  0  0  1  0  0  0  0  0  0  0  0
   -1.8386   -2.5051   -0.1009 C   0  0  0  1  0  0  0  0  0  0  0  0
   -2.8676   -2.9384    0.7136 C   0  0  0  1  0  0  0  0  0  0  0  0
   -3.2330   -4.2755    0.7164 C   0  0  0  1  0  0  0  0  0  0  0  0
   -2.5648   -5.1764   -0.0913 C   0  0  0  1  0  0  0  0  0  0  0  0
   -1.5327   -4.7416   -0.9083 C   0  0  0  1  0  0  0  0  0  0  0  0
   -1.1683   -3.4084   -0.9111 C   0  0  0  1  0  0  0  0  0  0  0  0
   -2.7946   -6.5065   -0.2002 O   0  0  0  1  0  0  0  0  0  0  0  0
   -3.8307   -7.0631    0.6241 C   0  0  0  1  0  0  0  0  0  0  0  0
    3.1542   -1.2786    0.1866 N   0  0  0  1  0  0  0  0  0  0  0  0
    4.4058   -0.5195    0.2575 C   0  0  0  1  0  0  0  0  0  0  0  0
    4.5317    0.4465   -0.9364 C   0  0  0  1  0  0  0  0  0  0  0  0
    6.0402    0.6583   -1.1549 C   0  0  0  1  0  0  0  0  0  0  0  0
    6.7652   -0.4980   -0.4101 C   0  0  0  1  0  0  0  0  0  0  0  0
    5.6437   -1.4658    0.0973 C   0  0  0  1  0  0  0  0  0  0  0  0
    7.5513    0.0441    0.7537 N   0  0  0  1  0  0  0  0  0  0  0  0
    0.9179    2.4773    0.0988 H   0  0  0  1  0  0  0  0  0  0  0  0
   -2.1490    1.9440   -0.0608 H   0  0  0  1  0  0  0  0  0  0  0  0
   -3.3678   -2.2613    1.3244 H   0  0  0  1  0  0  0  0  0  0  0  0
   -4.0099   -4.6009    1.3263 H   0  0  0  1  0  0  0  0  0  0  0  0
   -1.0326   -5.4188   -1.5190 H   0  0  0  1  0  0  0  0  0  0  0  0
   -0.3914   -3.0829   -1.5211 H   0  0  0  1  0  0  0  0  0  0  0  0
   -4.7310   -6.4994    0.4954 H   0  0  0  1  0  0  0  0  0  0  0  0
   -3.5294   -7.0242    1.6500 H   0  0  0  1  0  0  0  0  0  0  0  0
   -4.0035   -8.0803    0.3409 H   0  0  0  1  0  0  0  0  0  0  0  0
    3.1741   -2.2585    0.1823 H   0  0  0  1  0  0  0  0  0  0  0  0
    4.4490    0.0122    1.1851 H   0  0  0  1  0  0  0  0  0  0  0  0
    4.0543    1.3776   -0.7129 H   0  0  0  1  0  0  0  0  0  0  0  0
    4.0866    0.0175   -1.8098 H   0  0  0  1  0  0  0  0  0  0  0  0
    6.2698    0.6254   -2.1995 H   0  0  0  1  0  0  0  0  0  0  0  0
    6.3420    1.6028   -0.7524 H   0  0  0  1  0  0  0  0  0  0  0  0
    7.4243   -1.0125   -1.0777 H   0  0  0  1  0  0  0  0  0  0  0  0
    5.9127   -1.9084    1.0335 H   0  0  0  1  0  0  0  0  0  0  0  0
    5.4481   -2.2363   -0.6190 H   0  0  0  1  0  0  0  0  0  0  0  0
    7.0427   -0.0864    1.5812 H   0  0  0  1  0  0  0  0  0  0  0  0
    7.7160    1.0008    0.6191 H   0  0  0  1  0  0  0  0  0  0  0  0
  1  2  4  0  0  0  0
  1  6  4  0  0  0  0
  1 18  1  0  0  0  0
  2  3  4  0  0  0  0
  3  4  4  0  0  0  0
  3 25  1  0  0  0  0
  4  5  4  0  0  0  0
  4  7  4  0  0  0  0
  5  6  4  0  0  0  0
  5  9  4  0  0  0  0
  7  8  4  0  0  0  0
  7 26  1  0  0  0  0
  8  9  4  0  0  0  0
  9 10  1  0  0  0  0
 10 11  4  0  0  0  0
 10 15  4  0  0  0  0
 11 12  4  0  0  0  0
 11 27  1  0  0  0  0
 12 13  4  0  0  0  0
 12 28  1  0  0  0  0
 13 14  4  0  0  0  0
 13 16  1  0  0  0  0
 14 15  4  0  0  0  0
 14 29  1  0  0  0  0
 15 30  1  0  0  0  0
 16 17  1  0  0  0  0
 17 31  1  0  0  0  0
 17 32  1  0  0  0  0
 17 33  1  0  0  0  0
 18 19  1  0  0  0  0
 18 34  1  0  0  0  0
 19 20  1  0  0  0  0
 19 23  1  0  0  0  0
 19 35  1  0  0  0  0
 20 21  1  0  0  0  0
 20 36  1  0  0  0  0
 20 37  1  0  0  0  0
 21 22  1  0  0  0  0
 21 38  1  0  0  0  0
 21 39  1  0  0  0  0
 22 23  1  0  0  0  0
 22 24  1  0  0  0  0
 22 40  1  0  0  0  0
 23 41  1  0  0  0  0
 23 42  1  0  0  0  0
 24 43  1  0  0  0  0
 24 44  1  0  0  0  0
M  END
> <ConfClashScore>
0 

> <ConfOneFourInteractionScore>
-0.981848 

> <ConfScore>
0.0855698 

> <ConfScorePBest>
0.00174062 

> <ConfTolerance>
0.716391 

$$$$
c22.sdf
 OpenBabel04162418103D

 44 47  0  0  0  0  0  0  0  0999 V2000
    1.9452   -0.6102    0.1255 C   0  0  0  1  0  0  0  0  0  0  0  0
    2.0363    0.7233    0.1481 N   0  0  0  1  0  0  0  0  0  0  0  0
    0.8946    1.4375    0.0881 C   0  0  0  1  0  0  0  0  0  0  0  0
   -0.3453    0.7386    0.0096 C   0  0  0  1  0  0  0  0  0  0  0  0
   -0.2529   -0.6478    0.0020 C   0  0  0  1  0  0  0  0  0  0  0  0
    0.8780   -1.3913    0.0539 N   0  0  0  1  0  0  0  0  0  0  0  0
   -1.7304    0.9921   -0.0538 C   0  0  0  1  0  0  0  0  0  0  0  0
   -2.4282   -0.1192   -0.1029 N   0  0  0  1  0  0  0  0  0  0  0  0
   -1.5125   -1.1342   -0.0681 N   0  0  0  1  0  0  0  0  0  0  0  0
   -1.8419   -2.5193   -0.1013 C   0  0  0  1  0  0  0  0  0  0  0  0
   -3.0251   -2.9344   -0.6825 C   0  0  0  1  0  0  0  0  0  0  0  0
   -3.3431   -4.2831   -0.7197 C   0  0  0  1  0  0  0  0  0  0  0  0
   -2.4796   -5.2122   -0.1707 C   0  0  0  1  0  0  0  0  0  0  0  0
   -1.2929   -4.7957    0.4122 C   0  0  0  1  0  0  0  0  0  0  0  0
   -0.9757   -3.4509    0.4493 C   0  0  0  1  0  0  0  0  0  0  0  0
   -2.8983   -6.4969   -0.2612 O   0  0  0  1  0  0  0  0  0  0  0  0
   -2.0235   -7.5103    0.2583 C   0  0  0  1  0  0  0  0  0  0  0  0
    3.1162   -1.2576    0.1846 N   0  0  0  1  0  0  0  0  0  0  0  0
    4.4690   -0.7014    0.2705 C   0  0  0  1  0  0  0  0  0  0  0  0
    4.5977    0.1923    1.5086 C   0  0  0  1  0  0  0  0  0  0  0  0
    5.5080    1.3263    1.0668 C   0  0  0  1  0  0  0  0  0  0  0  0
    5.0165    1.5908   -0.3605 C   0  0  0  1  0  0  0  0  0  0  0  0
    4.7515    0.1985   -0.9401 C   0  0  0  1  0  0  0  0  0  0  0  0
    6.0701    2.3083   -1.1614 N   0  0  0  1  0  0  0  0  0  0  0  0
    0.9178    2.4772    0.0988 H   0  0  0  1  0  0  0  0  0  0  0  0
   -2.1490    1.9441   -0.0608 H   0  0  0  1  0  0  0  0  0  0  0  0
   -3.6768   -2.2350   -1.0921 H   0  0  0  1  0  0  0  0  0  0  0  0
   -4.2315   -4.5958   -1.1607 H   0  0  0  1  0  0  0  0  0  0  0  0
   -0.6412   -5.4951    0.8217 H   0  0  0  1  0  0  0  0  0  0  0  0
   -0.0872   -3.1382    0.8902 H   0  0  0  1  0  0  0  0  0  0  0  0
   -1.0546   -7.4069   -0.1838 H   0  0  0  1  0  0  0  0  0  0  0  0
   -2.4199   -8.4766    0.0261 H   0  0  0  1  0  0  0  0  0  0  0  0
   -1.9441   -7.4026    1.3199 H   0  0  0  1  0  0  0  0  0  0  0  0
    3.0607   -2.2359    0.1681 H   0  0  0  1  0  0  0  0  0  0  0  0
    5.1811   -1.4989    0.3136 H   0  0  0  1  0  0  0  0  0  0  0  0
    5.0351   -0.3487    2.3216 H   0  0  0  1  0  0  0  0  0  0  0  0
    3.6407    0.5690    1.8040 H   0  0  0  1  0  0  0  0  0  0  0  0
    5.3832    2.1893    1.6871 H   0  0  0  1  0  0  0  0  0  0  0  0
    6.5350    1.0261    1.0749 H   0  0  0  1  0  0  0  0  0  0  0  0
    4.1185    2.1726   -0.3492 H   0  0  0  1  0  0  0  0  0  0  0  0
    5.6086   -0.1531   -1.4755 H   0  0  0  1  0  0  0  0  0  0  0  0
    3.9057    0.2207   -1.5950 H   0  0  0  1  0  0  0  0  0  0  0  0
    6.3582    3.1108   -0.6782 H   0  0  0  1  0  0  0  0  0  0  0  0
    5.6997    2.5664   -2.0311 H   0  0  0  1  0  0  0  0  0  0  0  0
  1  2  4  0  0  0  0
  1  6  4  0  0  0  0
  1 18  1  0  0  0  0
  2  3  4  0  0  0  0
  3  4  4  0  0  0  0
  3 25  1  0  0  0  0
  4  5  4  0  0  0  0
  4  7  4  0  0  0  0
  5  6  4  0  0  0  0
  5  9  4  0  0  0  0
  7  8  4  0  0  0  0
  7 26  1  0  0  0  0
  8  9  4  0  0  0  0
  9 10  1  0  0  0  0
 10 11  4  0  0  0  0
 10 15  4  0  0  0  0
 11 12  4  0  0  0  0
 11 27  1  0  0  0  0
 12 13  4  0  0  0  0
 12 28  1  0  0  0  0
 13 14  4  0  0  0  0
 13 16  1  0  0  0  0
 14 15  4  0  0  0  0
 14 29  1  0  0  0  0
 15 30  1  0  0  0  0
 16 17  1  0  0  0  0
 17 31  1  0  0  0  0
 17 32  1  0  0  0  0
 17 33  1  0  0  0  0
 18 19  1  0  0  0  0
 18 34  1  0  0  0  0
 19 20  1  0  0  0  0
 19 23  1  0  0  0  0
 19 35  1  0  0  0  0
 20 21  1  0  0  0  0
 20 36  1  0  0  0  0
 20 37  1  0  0  0  0
 21 22  1  0  0  0  0
 21 38  1  0  0  0  0
 21 39  1  0  0  0  0
 22 23  1  0  0  0  0
 22 24  1  0  0  0  0
 22 40  1  0  0  0  0
 23 41  1  0  0  0  0
 23 42  1  0  0  0  0
 24 43  1  0  0  0  0
 24 44  1  0  0  0  0
M  END
> <ConfClashScore>
0 

> <ConfOneFourInteractionScore>
-0.980204 

> <ConfScore>
0.0895098 

> <ConfScorePBest>
0.00172729 

> <ConfTolerance>
0.357274 

$$$$
c22.sdf
 OpenBabel04162418103D

 44 47  0  0  0  0  0  0  0  0999 V2000
    1.9452   -0.6103    0.1255 C   0  0  0  1  0  0  0  0  0  0  0  0
    2.0363    0.7233    0.1481 N   0  0  0  1  0  0  0  0  0  0  0  0
    0.8946    1.4376    0.0881 C   0  0  0  1  0  0  0  0  0  0  0  0
   -0.3453    0.7386    0.0096 C   0  0  0  1  0  0  0  0  0  0  0  0
   -0.2528   -0.6477    0.0019 C   0  0  0  1  0  0  0  0  0  0  0  0
    0.8779   -1.3913    0.0539 N   0  0  0  1  0  0  0  0  0  0  0  0
   -1.7304    0.9921   -0.0538 C   0  0  0  1  0  0  0  0  0  0  0  0
   -2.4282   -0.1191   -0.1028 N   0  0  0  1  0  0  0  0  0  0  0  0
   -1.5125   -1.1342   -0.0681 N   0  0  0  1  0  0  0  0  0  0  0  0
   -1.8426   -2.5220   -0.1014 C   0  0  0  1  0  0  0  0  0  0  0  0
   -1.0808   -3.4316    0.6072 C   0  0  0  1  0  0  0  0  0  0  0  0
   -1.3479   -4.7879    0.5050 C   0  0  0  1  0  0  0  0  0  0  0  0
   -2.3727   -5.2310   -0.3098 C   0  0  0  1  0  0  0  0  0  0  0  0
   -3.1369   -4.3185   -1.0204 C   0  0  0  1  0  0  0  0  0  0  0  0
   -2.8705   -2.9661   -0.9186 C   0  0  0  1  0  0  0  0  0  0  0  0
   -2.6290   -6.5496   -0.4132 O   0  0  0  1  0  0  0  0  0  0  0  0
   -3.8230   -6.8845   -1.1580 C   0  0  0  1  0  0  0  0  0  0  0  0
    3.1257   -1.2629    0.1851 N   0  0  0  1  0  0  0  0  0  0  0  0
    4.4173   -0.5991    0.2158 C   0  0  0  1  0  0  0  0  0  0  0  0
    5.0378   -0.5789   -1.1876 C   0  0  0  1  0  0  0  0  0  0  0  0
    6.3646   -1.3322   -1.0580 C   0  0  0  1  0  0  0  0  0  0  0  0
    6.1616   -2.2655    0.1406 C   0  0  0  1  0  0  0  0  0  0  0  0
    5.3929   -1.3772    1.1050 C   0  0  0  1  0  0  0  0  0  0  0  0
    7.4572   -2.6903    0.7169 N   0  0  0  1  0  0  0  0  0  0  0  0
    0.9180    2.4772    0.0987 H   0  0  0  1  0  0  0  0  0  0  0  0
   -2.1489    1.9441   -0.0608 H   0  0  0  1  0  0  0  0  0  0  0  0
   -0.3070   -3.0985    1.2171 H   0  0  0  1  0  0  0  0  0  0  0  0
   -0.7772   -5.4722    1.0413 H   0  0  0  1  0  0  0  0  0  0  0  0
   -3.9105   -4.6516   -1.6304 H   0  0  0  1  0  0  0  0  0  0  0  0
   -3.4412   -2.2818   -1.4549 H   0  0  0  1  0  0  0  0  0  0  0  0
   -4.6860   -6.5653   -0.6119 H   0  0  0  1  0  0  0  0  0  0  0  0
   -3.8660   -7.9435   -1.3051 H   0  0  0  1  0  0  0  0  0  0  0  0
   -3.8002   -6.3926   -2.1079 H   0  0  0  1  0  0  0  0  0  0  0  0
    3.1101   -2.2426    0.2091 H   0  0  0  1  0  0  0  0  0  0  0  0
    4.2973    0.3990    0.5823 H   0  0  0  1  0  0  0  0  0  0  0  0
    5.2091    0.4281   -1.5062 H   0  0  0  1  0  0  0  0  0  0  0  0
    4.3954   -1.0706   -1.8878 H   0  0  0  1  0  0  0  0  0  0  0  0
    7.1695   -0.6515   -0.8748 H   0  0  0  1  0  0  0  0  0  0  0  0
    6.5677   -1.8952   -1.9451 H   0  0  0  1  0  0  0  0  0  0  0  0
    5.5914   -3.1291   -0.1312 H   0  0  0  1  0  0  0  0  0  0  0  0
    4.8620   -1.9682    1.8217 H   0  0  0  1  0  0  0  0  0  0  0  0
    6.0559   -0.7091    1.6138 H   0  0  0  1  0  0  0  0  0  0  0  0
    8.1058   -2.8306   -0.0042 H   0  0  0  1  0  0  0  0  0  0  0  0
    7.3352   -3.5264    1.2135 H   0  0  0  1  0  0  0  0  0  0  0  0
  1  2  4  0  0  0  0
  1  6  4  0  0  0  0
  1 18  1  0  0  0  0
  2  3  4  0  0  0  0
  3  4  4  0  0  0  0
  3 25  1  0  0  0  0
  4  5  4  0  0  0  0
  4  7  4  0  0  0  0
  5  6  4  0  0  0  0
  5  9  4  0  0  0  0
  7  8  4  0  0  0  0
  7 26  1  0  0  0  0
  8  9  4  0  0  0  0
  9 10  1  0  0  0  0
 10 11  4  0  0  0  0
 10 15  4  0  0  0  0
 11 12  4  0  0  0  0
 11 27  1  0  0  0  0
 12 13  4  0  0  0  0
 12 28  1  0  0  0  0
 13 14  4  0  0  0  0
 13 16  1  0  0  0  0
 14 15  4  0  0  0  0
 14 29  1  0  0  0  0
 15 30  1  0  0  0  0
 16 17  1  0  0  0  0
 17 31  1  0  0  0  0
 17 32  1  0  0  0  0
 17 33  1  0  0  0  0
 18 19  1  0  0  0  0
 18 34  1  0  0  0  0
 19 20  1  0  0  0  0
 19 23  1  0  0  0  0
 19 35  1  0  0  0  0
 20 21  1  0  0  0  0
 20 36  1  0  0  0  0
 20 37  1  0  0  0  0
 21 22  1  0  0  0  0
 21 38  1  0  0  0  0
 21 39  1  0  0  0  0
 22 23  1  0  0  0  0
 22 24  1  0  0  0  0
 22 40  1  0  0  0  0
 23 41  1  0  0  0  0
 23 42  1  0  0  0  0
 24 43  1  0  0  0  0
 24 44  1  0  0  0  0
M  END
> <ConfClashScore>
0 

> <ConfOneFourInteractionScore>
-0.984337 

> <ConfScore>
0.0908129 

> <ConfScorePBest>
0.00171396 

> <ConfTolerance>
0.742556 

$$$$
c22.sdf
 OpenBabel04162418103D

 44 47  0  0  0  0  0  0  0  0999 V2000
    1.9452   -0.6102    0.1256 C   0  0  0  1  0  0  0  0  0  0  0  0
    2.0363    0.7233    0.1483 N   0  0  0  1  0  0  0  0  0  0  0  0
    0.8946    1.4376    0.0881 C   0  0  0  1  0  0  0  0  0  0  0  0
   -0.3452    0.7386    0.0096 C   0  0  0  1  0  0  0  0  0  0  0  0
   -0.2528   -0.6477    0.0021 C   0  0  0  1  0  0  0  0  0  0  0  0
    0.8780   -1.3913    0.0540 N   0  0  0  1  0  0  0  0  0  0  0  0
   -1.7304    0.9921   -0.0538 C   0  0  0  1  0  0  0  0  0  0  0  0
   -2.4281   -0.1191   -0.1029 N   0  0  0  1  0  0  0  0  0  0  0  0
   -1.5125   -1.1342   -0.0681 N   0  0  0  1  0  0  0  0  0  0  0  0
   -1.8419   -2.5193   -0.1013 C   0  0  0  1  0  0  0  0  0  0  0  0
   -1.3112   -3.3784    0.8423 C   0  0  0  1  0  0  0  0  0  0  0  0
   -1.6361   -4.7257    0.8131 C   0  0  0  1  0  0  0  0  0  0  0  0
   -2.4863   -5.2108   -0.1626 C   0  0  0  1  0  0  0  0  0  0  0  0
   -3.0185   -4.3489   -1.1088 C   0  0  0  1  0  0  0  0  0  0  0  0
   -2.6947   -3.0055   -1.0800 C   0  0  0  1  0  0  0  0  0  0  0  0
   -2.8693   -6.4996   -0.2939 O   0  0  0  1  0  0  0  0  0  0  0  0
   -2.3759   -7.4816    0.6307 C   0  0  0  1  0  0  0  0  0  0  0  0
    3.1213   -1.2605    0.1851 N   0  0  0  1  0  0  0  0  0  0  0  0
    3.3893   -2.6810    0.0003 C   0  0  0  1  0  0  0  0  0  0  0  0
    2.4064   -3.5233    0.8180 C   0  0  0  1  0  0  0  0  0  0  0  0
    3.1924   -4.8308    0.9811 C   0  0  0  1  0  0  0  0  0  0  0  0
    4.6236   -4.3890    1.2604 C   0  0  0  1  0  0  0  0  0  0  0  0
    4.7803   -3.0421    0.5450 C   0  0  0  1  0  0  0  0  0  0  0  0
    5.5848   -5.3766    0.7209 N   0  0  0  1  0  0  0  0  0  0  0  0
    0.9179    2.4772    0.0988 H   0  0  0  1  0  0  0  0  0  0  0  0
   -2.1490    1.9441   -0.0609 H   0  0  0  1  0  0  0  0  0  0  0  0
   -0.6682   -3.0143    1.5741 H   0  0  0  1  0  0  0  0  0  0  0  0
   -1.2399   -5.3715    1.5256 H   0  0  0  1  0  0  0  0  0  0  0  0
   -3.6615   -4.7131   -1.8407 H   0  0  0  1  0  0  0  0  0  0  0  0
   -3.0908   -2.3596   -1.7924 H   0  0  0  1  0  0  0  0  0  0  0  0
   -2.8905   -8.4070    0.4772 H   0  0  0  1  0  0  0  0  0  0  0  0
   -2.5416   -7.1433    1.6322 H   0  0  0  1  0  0  0  0  0  0  0  0
   -1.3277   -7.6260    0.4713 H   0  0  0  1  0  0  0  0  0  0  0  0
    3.9039   -0.7034    0.3789 H   0  0  0  1  0  0  0  0  0  0  0  0
    3.3184   -2.9256   -1.0390 H   0  0  0  1  0  0  0  0  0  0  0  0
    2.1976   -3.0715    1.7652 H   0  0  0  1  0  0  0  0  0  0  0  0
    1.4906   -3.6808    0.2877 H   0  0  0  1  0  0  0  0  0  0  0  0
    2.8076   -5.4027    1.7995 H   0  0  0  1  0  0  0  0  0  0  0  0
    3.1454   -5.4134    0.0849 H   0  0  0  1  0  0  0  0  0  0  0  0
    4.7816   -4.2748    2.3124 H   0  0  0  1  0  0  0  0  0  0  0  0
    5.1148   -2.2938    1.2328 H   0  0  0  1  0  0  0  0  0  0  0  0
    5.4820   -3.1283   -0.2581 H   0  0  0  1  0  0  0  0  0  0  0  0
    5.1084   -6.1979    0.4780 H   0  0  0  1  0  0  0  0  0  0  0  0
    6.2602   -5.5801    1.4012 H   0  0  0  1  0  0  0  0  0  0  0  0
  1  2  4  0  0  0  0
  1  6  4  0  0  0  0
  1 18  1  0  0  0  0
  2  3  4  0  0  0  0
  3  4  4  0  0  0  0
  3 25  1  0  0  0  0
  4  5  4  0  0  0  0
  4  7  4  0  0  0  0
  5  6  4  0  0  0  0
  5  9  4  0  0  0  0
  7  8  4  0  0  0  0
  7 26  1  0  0  0  0
  8  9  4  0  0  0  0
  9 10  1  0  0  0  0
 10 11  4  0  0  0  0
 10 15  4  0  0  0  0
 11 12  4  0  0  0  0
 11 27  1  0  0  0  0
 12 13  4  0  0  0  0
 12 28  1  0  0  0  0
 13 14  4  0  0  0  0
 13 16  1  0  0  0  0
 14 15  4  0  0  0  0
 14 29  1  0  0  0  0
 15 30  1  0  0  0  0
 16 17  1  0  0  0  0
 17 31  1  0  0  0  0
 17 32  1  0  0  0  0
 17 33  1  0  0  0  0
 18 19  1  0  0  0  0
 18 34  1  0  0  0  0
 19 20  1  0  0  0  0
 19 23  1  0  0  0  0
 19 35  1  0  0  0  0
 20 21  1  0  0  0  0
 20 36  1  0  0  0  0
 20 37  1  0  0  0  0
 21 22  1  0  0  0  0
 21 38  1  0  0  0  0
 21 39  1  0  0  0  0
 22 23  1  0  0  0  0
 22 24  1  0  0  0  0
 22 40  1  0  0  0  0
 23 41  1  0  0  0  0
 23 42  1  0  0  0  0
 24 43  1  0  0  0  0
 24 44  1  0  0  0  0
M  END
> <ConfClashScore>
0 

> <ConfOneFourInteractionScore>
-0.985399 

> <ConfScore>
0.0933106 

> <ConfScorePBest>
0.00170063 

> <ConfTolerance>
0.640744 

$$$$
c22.sdf
 OpenBabel04162418103D

 44 47  0  0  0  0  0  0  0  0999 V2000
    1.9453   -0.6102    0.1255 C   0  0  0  1  0  0  0  0  0  0  0  0
    2.0363    0.7233    0.1481 N   0  0  0  1  0  0  0  0  0  0  0  0
    0.8946    1.4375    0.0881 C   0  0  0  1  0  0  0  0  0  0  0  0
   -0.3452    0.7385    0.0096 C   0  0  0  1  0  0  0  0  0  0  0  0
   -0.2528   -0.6478    0.0019 C   0  0  0  1  0  0  0  0  0  0  0  0
    0.8780   -1.3913    0.0538 N   0  0  0  1  0  0  0  0  0  0  0  0
   -1.7304    0.9921   -0.0538 C   0  0  0  1  0  0  0  0  0  0  0  0
   -2.4281   -0.1191   -0.1029 N   0  0  0  1  0  0  0  0  0  0  0  0
   -1.5125   -1.1341   -0.0681 N   0  0  0  1  0  0  0  0  0  0  0  0
   -1.8385   -2.5051   -0.1010 C   0  0  0  1  0  0  0  0  0  0  0  0
   -2.3293   -3.1760    1.0031 C   0  0  0  1  0  0  0  0  0  0  0  0
   -2.6388   -4.5242    0.9137 C   0  0  0  1  0  0  0  0  0  0  0  0
   -2.4516   -5.1989   -0.2780 C   0  0  0  1  0  0  0  0  0  0  0  0
   -1.9594   -4.5259   -1.3853 C   0  0  0  1  0  0  0  0  0  0  0  0
   -1.6507   -3.1815   -1.2964 C   0  0  0  1  0  0  0  0  0  0  0  0
   -2.6592   -6.5206   -0.2925 O   0  0  0  1  0  0  0  0  0  0  0  0
   -3.0628   -7.2511    0.9143 C   0  0  0  1  0  0  0  0  0  0  0  0
    3.1163   -1.2577    0.1846 N   0  0  0  1  0  0  0  0  0  0  0  0
    4.4704   -0.7013    0.2441 C   0  0  0  1  0  0  0  0  0  0  0  0
    4.6744    0.1209    1.5093 C   0  0  0  1  0  0  0  0  0  0  0  0
    5.8044    1.0972    1.2126 C   0  0  0  1  0  0  0  0  0  0  0  0
    5.9113    1.1680   -0.3122 C   0  0  0  1  0  0  0  0  0  0  0  0
    4.6980    0.3692   -0.8877 C   0  0  0  1  0  0  0  0  0  0  0  0
    7.1826    0.5579   -0.7625 N   0  0  0  1  0  0  0  0  0  0  0  0
    0.9179    2.4772    0.0988 H   0  0  0  1  0  0  0  0  0  0  0  0
   -2.1490    1.9441   -0.0607 H   0  0  0  1  0  0  0  0  0  0  0  0
   -2.4664   -2.6694    1.9010 H   0  0  0  1  0  0  0  0  0  0  0  0
   -3.0119   -5.0281    1.7435 H   0  0  0  1  0  0  0  0  0  0  0  0
   -1.8223   -5.0324   -2.2832 H   0  0  0  1  0  0  0  0  0  0  0  0
   -1.2776   -2.6776   -2.1260 H   0  0  0  1  0  0  0  0  0  0  0  0
   -2.7609   -8.2742    0.8303 H   0  0  0  1  0  0  0  0  0  0  0  0
   -4.1262   -7.2009    1.0223 H   0  0  0  1  0  0  0  0  0  0  0  0
   -2.5956   -6.8108    1.7703 H   0  0  0  1  0  0  0  0  0  0  0  0
    3.0597   -2.2360    0.1885 H   0  0  0  1  0  0  0  0  0  0  0  0
    5.1856   -1.4944    0.1774 H   0  0  0  1  0  0  0  0  0  0  0  0
    4.9420   -0.5171    2.3255 H   0  0  0  1  0  0  0  0  0  0  0  0
    3.7791    0.6544    1.7516 H   0  0  0  1  0  0  0  0  0  0  0  0
    5.5767    2.0624    1.6144 H   0  0  0  1  0  0  0  0  0  0  0  0
    6.7220    0.7426    1.6333 H   0  0  0  1  0  0  0  0  0  0  0  0
    5.8692    2.1866   -0.6373 H   0  0  0  1  0  0  0  0  0  0  0  0
    3.8399    0.9961   -1.0123 H   0  0  0  1  0  0  0  0  0  0  0  0
    4.9410   -0.0935   -1.8215 H   0  0  0  1  0  0  0  0  0  0  0  0
    7.3012   -0.3112   -0.3255 H   0  0  0  1  0  0  0  0  0  0  0  0
    7.9292    1.1468   -0.5258 H   0  0  0  1  0  0  0  0  0  0  0  0
  1  2  4  0  0  0  0
  1  6  4  0  0  0  0
  1 18  1  0  0  0  0
  2  3  4  0  0  0  0
  3  4  4  0  0  0  0
  3 25  1  0  0  0  0
  4  5  4  0  0  0  0
  4  7  4  0  0  0  0
  5  6  4  0  0  0  0
  5  9  4  0  0  0  0
  7  8  4  0  0  0  0
  7 26  1  0  0  0  0
  8  9  4  0  0  0  0
  9 10  1  0  0  0  0
 10 11  4  0  0  0  0
 10 15  4  0  0  0  0
 11 12  4  0  0  0  0
 11 27  1  0  0  0  0
 12 13  4  0  0  0  0
 12 28  1  0  0  0  0
 13 14  4  0  0  0  0
 13 16  1  0  0  0  0
 14 15  4  0  0  0  0
 14 29  1  0  0  0  0
 15 30  1  0  0  0  0
 16 17  1  0  0  0  0
 17 31  1  0  0  0  0
 17 32  1  0  0  0  0
 17 33  1  0  0  0  0
 18 19  1  0  0  0  0
 18 34  1  0  0  0  0
 19 20  1  0  0  0  0
 19 23  1  0  0  0  0
 19 35  1  0  0  0  0
 20 21  1  0  0  0  0
 20 36  1  0  0  0  0
 20 37  1  0  0  0  0
 21 22  1  0  0  0  0
 21 38  1  0  0  0  0
 21 39  1  0  0  0  0
 22 23  1  0  0  0  0
 22 24  1  0  0  0  0
 22 40  1  0  0  0  0
 23 41  1  0  0  0  0
 23 42  1  0  0  0  0
 24 43  1  0  0  0  0
 24 44  1  0  0  0  0
M  END
> <ConfClashScore>
0 

> <ConfOneFourInteractionScore>
-0.980204 

> <ConfScore>
0.10093 

> <ConfScorePBest>
0.0016873 

> <ConfTolerance>
0.517201 

$$$$
c22.sdf
 OpenBabel04162418103D

 44 47  0  0  0  0  0  0  0  0999 V2000
    1.9452   -0.6103    0.1256 C   0  0  0  1  0  0  0  0  0  0  0  0
    2.0362    0.7232    0.1481 N   0  0  0  1  0  0  0  0  0  0  0  0
    0.8946    1.4376    0.0881 C   0  0  0  1  0  0  0  0  0  0  0  0
   -0.3452    0.7386    0.0096 C   0  0  0  1  0  0  0  0  0  0  0  0
   -0.2529   -0.6478    0.0019 C   0  0  0  1  0  0  0  0  0  0  0  0
    0.8779   -1.3914    0.0539 N   0  0  0  1  0  0  0  0  0  0  0  0
   -1.7304    0.9921   -0.0538 C   0  0  0  1  0  0  0  0  0  0  0  0
   -2.4281   -0.1191   -0.1028 N   0  0  0  1  0  0  0  0  0  0  0  0
   -1.5125   -1.1342   -0.0681 N   0  0  0  1  0  0  0  0  0  0  0  0
   -1.8419   -2.5192   -0.1013 C   0  0  0  1  0  0  0  0  0  0  0  0
   -3.0242   -2.9345   -0.6844 C   0  0  0  1  0  0  0  0  0  0  0  0
   -3.3423   -4.2832   -0.7215 C   0  0  0  1  0  0  0  0  0  0  0  0
   -2.4797   -5.2121   -0.1707 C   0  0  0  1  0  0  0  0  0  0  0  0
   -1.2939   -4.7955    0.4141 C   0  0  0  1  0  0  0  0  0  0  0  0
   -0.9767   -3.4508    0.4511 C   0  0  0  1  0  0  0  0  0  0  0  0
   -2.6844   -6.5472   -0.1431 O   0  0  0  1  0  0  0  0  0  0  0  0
   -3.9759   -7.0719   -0.4881 C   0  0  0  1  0  0  0  0  0  0  0  0
    3.1213   -1.2605    0.1848 N   0  0  0  1  0  0  0  0  0  0  0  0
    3.3680   -2.6929    0.2909 C   0  0  0  1  0  0  0  0  0  0  0  0
    4.8786   -2.9951    0.2549 C   0  0  0  1  0  0  0  0  0  0  0  0
    5.0133   -4.4245   -0.2989 C   0  0  0  1  0  0  0  0  0  0  0  0
    3.6611   -4.7655   -0.9862 C   0  0  0  1  0  0  0  0  0  0  0  0
    2.8112   -3.4505   -0.9619 C   0  0  0  1  0  0  0  0  0  0  0  0
    2.9683   -5.8338   -0.2461 N   0  0  0  1  0  0  0  0  0  0  0  0
    0.9180    2.4772    0.0988 H   0  0  0  1  0  0  0  0  0  0  0  0
   -2.1490    1.9440   -0.0608 H   0  0  0  1  0  0  0  0  0  0  0  0
   -3.6752   -2.2352   -1.0953 H   0  0  0  1  0  0  0  0  0  0  0  0
   -4.2300   -4.5960   -1.1638 H   0  0  0  1  0  0  0  0  0  0  0  0
   -0.6430   -5.4947    0.8249 H   0  0  0  1  0  0  0  0  0  0  0  0
   -0.0890   -3.1378    0.8934 H   0  0  0  1  0  0  0  0  0  0  0  0
   -4.7380   -6.4624   -0.0491 H   0  0  0  1  0  0  0  0  0  0  0  0
   -4.0640   -8.0727   -0.1201 H   0  0  0  1  0  0  0  0  0  0  0  0
   -4.0881   -7.0715   -1.5522 H   0  0  0  1  0  0  0  0  0  0  0  0
    3.9205   -0.6943    0.1523 H   0  0  0  1  0  0  0  0  0  0  0  0
    2.9252   -3.0660    1.1908 H   0  0  0  1  0  0  0  0  0  0  0  0
    5.2924   -2.9378    1.2400 H   0  0  0  1  0  0  0  0  0  0  0  0
    5.3812   -2.3001   -0.3847 H   0  0  0  1  0  0  0  0  0  0  0  0
    5.8109   -4.4706   -1.0108 H   0  0  0  1  0  0  0  0  0  0  0  0
    5.2058   -5.1121    0.4980 H   0  0  0  1  0  0  0  0  0  0  0  0
    3.8276   -5.0802   -1.9953 H   0  0  0  1  0  0  0  0  0  0  0  0
    1.7699   -3.6681   -0.8479 H   0  0  0  1  0  0  0  0  0  0  0  0
    2.9613   -2.8795   -1.8543 H   0  0  0  1  0  0  0  0  0  0  0  0
    2.6168   -5.4741    0.5950 H   0  0  0  1  0  0  0  0  0  0  0  0
    3.5988   -6.5588   -0.0529 H   0  0  0  1  0  0  0  0  0  0  0  0
  1  2  4  0  0  0  0
  1  6  4  0  0  0  0
  1 18  1  0  0  0  0
  2  3  4  0  0  0  0
  3  4  4  0  0  0  0
  3 25  1  0  0  0  0
  4  5  4  0  0  0  0
  4  7  4  0  0  0  0
  5  6  4  0  0  0  0
  5  9  4  0  0  0  0
  7  8  4  0  0  0  0
  7 26  1  0  0  0  0
  8  9  4  0  0  0  0
  9 10  1  0  0  0  0
 10 11  4  0  0  0  0
 10 15  4  0  0  0  0
 11 12  4  0  0  0  0
 11 27  1  0  0  0  0
 12 13  4  0  0  0  0
 12 28  1  0  0  0  0
 13 14  4  0  0  0  0
 13 16  1  0  0  0  0
 14 15  4  0  0  0  0
 14 29  1  0  0  0  0
 15 30  1  0  0  0  0
 16 17  1  0  0  0  0
 17 31  1  0  0  0  0
 17 32  1  0  0  0  0
 17 33  1  0  0  0  0
 18 19  1  0  0  0  0
 18 34  1  0  0  0  0
 19 20  1  0  0  0  0
 19 23  1  0  0  0  0
 19 35  1  0  0  0  0
 20 21  1  0  0  0  0
 20 36  1  0  0  0  0
 20 37  1  0  0  0  0
 21 22  1  0  0  0  0
 21 38  1  0  0  0  0
 21 39  1  0  0  0  0
 22 23  1  0  0  0  0
 22 24  1  0  0  0  0
 22 40  1  0  0  0  0
 23 41  1  0  0  0  0
 23 42  1  0  0  0  0
 24 43  1  0  0  0  0
 24 44  1  0  0  0  0
M  END
> <ConfClashScore>
0 

> <ConfOneFourInteractionScore>
-0.985399 

> <ConfScore>
0.110679 

> <ConfScorePBest>
0.00167397 

> <ConfTolerance>
0.392848 

$$$$
c22.sdf
 OpenBabel04162418103D

 44 47  0  0  0  0  0  0  0  0999 V2000
    1.9452   -0.6103    0.1255 C   0  0  0  1  0  0  0  0  0  0  0  0
    2.0363    0.7233    0.1481 N   0  0  0  1  0  0  0  0  0  0  0  0
    0.8946    1.4376    0.0881 C   0  0  0  1  0  0  0  0  0  0  0  0
   -0.3452    0.7386    0.0096 C   0  0  0  1  0  0  0  0  0  0  0  0
   -0.2529   -0.6478    0.0020 C   0  0  0  1  0  0  0  0  0  0  0  0
    0.8779   -1.3913    0.0539 N   0  0  0  1  0  0  0  0  0  0  0  0
   -1.7304    0.9920   -0.0538 C   0  0  0  1  0  0  0  0  0  0  0  0
   -2.4282   -0.1191   -0.1029 N   0  0  0  1  0  0  0  0  0  0  0  0
   -1.5126   -1.1341   -0.0681 N   0  0  0  1  0  0  0  0  0  0  0  0
   -1.8397   -2.5099   -0.1011 C   0  0  0  1  0  0  0  0  0  0  0  0
   -1.3496   -3.3602    0.8720 C   0  0  0  1  0  0  0  0  0  0  0  0
   -1.6745   -4.7074    0.8426 C   0  0  0  1  0  0  0  0  0  0  0  0
   -2.4843   -5.2014   -0.1626 C   0  0  0  1  0  0  0  0  0  0  0  0
   -2.9757   -4.3485   -1.1386 C   0  0  0  1  0  0  0  0  0  0  0  0
   -2.6518   -3.0051   -1.1095 C   0  0  0  1  0  0  0  0  0  0  0  0
   -2.6876   -6.5391   -0.2178 O   0  0  0  1  0  0  0  0  0  0  0  0
   -3.4026   -7.0478   -1.3545 C   0  0  0  1  0  0  0  0  0  0  0  0
    3.1322   -1.2665    0.1854 N   0  0  0  1  0  0  0  0  0  0  0  0
    3.2555   -2.7157    0.2829 C   0  0  0  1  0  0  0  0  0  0  0  0
    2.6214   -3.4268   -0.9393 C   0  0  0  1  0  0  0  0  0  0  0  0
    2.4376   -4.9027   -0.5511 C   0  0  0  1  0  0  0  0  0  0  0  0
    1.7946   -4.5651    0.8077 C   0  0  0  1  0  0  0  0  0  0  0  0
    2.3949   -3.2797    1.4120 C   0  0  0  1  0  0  0  0  0  0  0  0
    2.0263   -5.6913    1.7435 N   0  0  0  1  0  0  0  0  0  0  0  0
    0.9179    2.4772    0.0988 H   0  0  0  1  0  0  0  0  0  0  0  0
   -2.1490    1.9441   -0.0608 H   0  0  0  1  0  0  0  0  0  0  0  0
   -0.7370   -2.9892    1.6262 H   0  0  0  1  0  0  0  0  0  0  0  0
   -1.3090   -5.3465    1.5771 H   0  0  0  1  0  0  0  0  0  0  0  0
   -3.5884   -4.7193   -1.8928 H   0  0  0  1  0  0  0  0  0  0  0  0
   -3.0174   -2.3659   -1.8439 H   0  0  0  1  0  0  0  0  0  0  0  0
   -3.2045   -6.4314   -2.2064 H   0  0  0  1  0  0  0  0  0  0  0  0
   -4.4523   -7.0422   -1.1470 H   0  0  0  1  0  0  0  0  0  0  0  0
   -3.0840   -8.0490   -1.5572 H   0  0  0  1  0  0  0  0  0  0  0  0
    3.9549   -0.7344    0.1617 H   0  0  0  1  0  0  0  0  0  0  0  0
    4.2856   -2.9793    0.4023 H   0  0  0  1  0  0  0  0  0  0  0  0
    3.2686   -3.3474   -1.7877 H   0  0  0  1  0  0  0  0  0  0  0  0
    1.6740   -2.9865   -1.1704 H   0  0  0  1  0  0  0  0  0  0  0  0
    3.3617   -5.4346   -0.4611 H   0  0  0  1  0  0  0  0  0  0  0  0
    1.7821   -5.4344   -1.2087 H   0  0  0  1  0  0  0  0  0  0  0  0
    0.7427   -4.4261    0.6697 H   0  0  0  1  0  0  0  0  0  0  0  0
    1.6236   -2.5900    1.6845 H   0  0  0  1  0  0  0  0  0  0  0  0
    2.9924   -3.5050    2.2707 H   0  0  0  1  0  0  0  0  0  0  0  0
    1.5623   -5.5153    2.5885 H   0  0  0  1  0  0  0  0  0  0  0  0
    2.9873   -5.7834    1.9119 H   0  0  0  1  0  0  0  0  0  0  0  0
  1  2  4  0  0  0  0
  1  6  4  0  0  0  0
  1 18  1  0  0  0  0
  2  3  4  0  0  0  0
  3  4  4  0  0  0  0
  3 25  1  0  0  0  0
  4  5  4  0  0  0  0
  4  7  4  0  0  0  0
  5  6  4  0  0  0  0
  5  9  4  0  0  0  0
  7  8  4  0  0  0  0
  7 26  1  0  0  0  0
  8  9  4  0  0  0  0
  9 10  1  0  0  0  0
 10 11  4  0  0  0  0
 10 15  4  0  0  0  0
 11 12  4  0  0  0  0
 11 27  1  0  0  0  0
 12 13  4  0  0  0  0
 12 28  1  0  0  0  0
 13 14  4  0  0  0  0
 13 16  1  0  0  0  0
 14 15  4  0  0  0  0
 14 29  1  0  0  0  0
 15 30  1  0  0  0  0
 16 17  1  0  0  0  0
 17 31  1  0  0  0  0
 17 32  1  0  0  0  0
 17 33  1  0  0  0  0
 18 19  1  0  0  0  0
 18 34  1  0  0  0  0
 19 20  1  0  0  0  0
 19 23  1  0  0  0  0
 19 35  1  0  0  0  0
 20 21  1  0  0  0  0
 20 36  1  0  0  0  0
 20 37  1  0  0  0  0
 21 22  1  0  0  0  0
 21 38  1  0  0  0  0
 21 39  1  0  0  0  0
 22 23  1  0  0  0  0
 22 24  1  0  0  0  0
 22 40  1  0  0  0  0
 23 41  1  0  0  0  0
 23 42  1  0  0  0  0
 24 43  1  0  0  0  0
 24 44  1  0  0  0  0
M  END
> <ConfClashScore>
7.06781e-05 

> <ConfOneFourInteractionScore>
-0.980204 

> <ConfScore>
0.120476 

> <ConfScorePBest>
0.00166065 

> <ConfTolerance>
0.350316 

$$$$
c22.sdf
 OpenBabel04162418103D

 44 47  0  0  0  0  0  0  0  0999 V2000
    1.9453   -0.6102    0.1256 C   0  0  0  1  0  0  0  0  0  0  0  0
    2.0363    0.7233    0.1481 N   0  0  0  1  0  0  0  0  0  0  0  0
    0.8945    1.4376    0.0881 C   0  0  0  1  0  0  0  0  0  0  0  0
   -0.3452    0.7386    0.0096 C   0  0  0  1  0  0  0  0  0  0  0  0
   -0.2528   -0.6478    0.0020 C   0  0  0  1  0  0  0  0  0  0  0  0
    0.8780   -1.3912    0.0539 N   0  0  0  1  0  0  0  0  0  0  0  0
   -1.7303    0.9921   -0.0538 C   0  0  0  1  0  0  0  0  0  0  0  0
   -2.4281   -0.1192   -0.1028 N   0  0  0  1  0  0  0  0  0  0  0  0
   -1.5125   -1.1341   -0.0681 N   0  0  0  1  0  0  0  0  0  0  0  0
   -1.8418   -2.5192   -0.1013 C   0  0  0  1  0  0  0  0  0  0  0  0
   -1.3873   -3.3617    0.8956 C   0  0  0  1  0  0  0  0  0  0  0  0
   -1.7124   -4.7089    0.8661 C   0  0  0  1  0  0  0  0  0  0  0  0
   -2.4865   -5.2107   -0.1631 C   0  0  0  1  0  0  0  0  0  0  0  0
   -2.9423   -4.3657   -1.1630 C   0  0  0  1  0  0  0  0  0  0  0  0
   -2.6182   -3.0224   -1.1336 C   0  0  0  1  0  0  0  0  0  0  0  0
   -2.7341   -6.5400   -0.0888 O   0  0  0  1  0  0  0  0  0  0  0  0
   -3.5311   -7.1185   -1.1341 C   0  0  0  1  0  0  0  0  0  0  0  0
    3.1214   -1.2604    0.1849 N   0  0  0  1  0  0  0  0  0  0  0  0
    4.4399   -0.6540    0.3173 C   0  0  0  1  0  0  0  0  0  0  0  0
    4.4797    0.2987    1.5170 C   0  0  0  1  0  0  0  0  0  0  0  0
    5.3718    1.4760    1.1012 C   0  0  0  1  0  0  0  0  0  0  0  0
    5.8344    1.1545   -0.3226 C   0  0  0  1  0  0  0  0  0  0  0  0
    4.7475    0.2292   -0.8807 C   0  0  0  1  0  0  0  0  0  0  0  0
    7.1569    0.4627   -0.3036 N   0  0  0  1  0  0  0  0  0  0  0  0
    0.9179    2.4773    0.0988 H   0  0  0  1  0  0  0  0  0  0  0  0
   -2.1490    1.9441   -0.0608 H   0  0  0  1  0  0  0  0  0  0  0  0
   -0.8014   -2.9849    1.6678 H   0  0  0  1  0  0  0  0  0  0  0  0
   -1.3737   -5.3420    1.6184 H   0  0  0  1  0  0  0  0  0  0  0  0
   -3.5282   -4.7425   -1.9352 H   0  0  0  1  0  0  0  0  0  0  0  0
   -2.9569   -2.3892   -1.8859 H   0  0  0  1  0  0  0  0  0  0  0  0
   -3.0122   -7.0358   -2.0662 H   0  0  0  1  0  0  0  0  0  0  0  0
   -4.4649   -6.6001   -1.1988 H   0  0  0  1  0  0  0  0  0  0  0  0
   -3.7099   -8.1507   -0.9163 H   0  0  0  1  0  0  0  0  0  0  0  0
    3.0882   -2.2385    0.1340 H   0  0  0  1  0  0  0  0  0  0  0  0
    5.1777   -1.4222    0.4200 H   0  0  0  1  0  0  0  0  0  0  0  0
    4.8939   -0.1969    2.3701 H   0  0  0  1  0  0  0  0  0  0  0  0
    3.4939    0.6444    1.7484 H   0  0  0  1  0  0  0  0  0  0  0  0
    4.8158    2.3900    1.1163 H   0  0  0  1  0  0  0  0  0  0  0  0
    6.2124    1.5584    1.7580 H   0  0  0  1  0  0  0  0  0  0  0  0
    5.9070    2.0477   -0.9072 H   0  0  0  1  0  0  0  0  0  0  0  0
    5.1132   -0.3471   -1.7048 H   0  0  0  1  0  0  0  0  0  0  0  0
    3.8850    0.7832   -1.1870 H   0  0  0  1  0  0  0  0  0  0  0  0
    7.8733    1.1282   -0.2375 H   0  0  0  1  0  0  0  0  0  0  0  0
    7.2668   -0.0543   -1.1289 H   0  0  0  1  0  0  0  0  0  0  0  0
  1  2  4  0  0  0  0
  1  6  4  0  0  0  0
  1 18  1  0  0  0  0
  2  3  4  0  0  0  0
  3  4  4  0  0  0  0
  3 25  1  0  0  0  0
  4  5  4  0  0  0  0
  4  7  4  0  0  0  0
  5  6  4  0  0  0  0
  5  9  4  0  0  0  0
  7  8  4  0  0  0  0
  7 26  1  0  0  0  0
  8  9  4  0  0  0  0
  9 10  1  0  0  0  0
 10 11  4  0  0  0  0
 10 15  4  0  0  0  0
 11 12  4  0  0  0  0
 11 27  1  0  0  0  0
 12 13  4  0  0  0  0
 12 28  1  0  0  0  0
 13 14  4  0  0  0  0
 13 16  1  0  0  0  0
 14 15  4  0  0  0  0
 14 29  1  0  0  0  0
 15 30  1  0  0  0  0
 16 17  1  0  0  0  0
 17 31  1  0  0  0  0
 17 32  1  0  0  0  0
 17 33  1  0  0  0  0
 18 19  1  0  0  0  0
 18 34  1  0  0  0  0
 19 20  1  0  0  0  0
 19 23  1  0  0  0  0
 19 35  1  0  0  0  0
 20 21  1  0  0  0  0
 20 36  1  0  0  0  0
 20 37  1  0  0  0  0
 21 22  1  0  0  0  0
 21 38  1  0  0  0  0
 21 39  1  0  0  0  0
 22 23  1  0  0  0  0
 22 24  1  0  0  0  0
 22 40  1  0  0  0  0
 23 41  1  0  0  0  0
 23 42  1  0  0  0  0
 24 43  1  0  0  0  0
 24 44  1  0  0  0  0
M  END
> <ConfClashScore>
0 

> <ConfOneFourInteractionScore>
-0.980204 

> <ConfScore>
0.127204 

> <ConfScorePBest>
0.00164732 

> <ConfTolerance>
0.328884 

$$$$
c22.sdf
 OpenBabel04162418103D

 44 47  0  0  0  0  0  0  0  0999 V2000
    1.9452   -0.6102    0.1256 C   0  0  0  1  0  0  0  0  0  0  0  0
    2.0363    0.7232    0.1481 N   0  0  0  1  0  0  0  0  0  0  0  0
    0.8945    1.4376    0.0881 C   0  0  0  1  0  0  0  0  0  0  0  0
   -0.3452    0.7386    0.0096 C   0  0  0  1  0  0  0  0  0  0  0  0
   -0.2529   -0.6477    0.0020 C   0  0  0  1  0  0  0  0  0  0  0  0
    0.8779   -1.3913    0.0539 N   0  0  0  1  0  0  0  0  0  0  0  0
   -1.7303    0.9921   -0.0538 C   0  0  0  1  0  0  0  0  0  0  0  0
   -2.4282   -0.1191   -0.1029 N   0  0  0  1  0  0  0  0  0  0  0  0
   -1.5125   -1.1342   -0.0681 N   0  0  0  1  0  0  0  0  0  0  0  0
   -1.8371   -2.4986   -0.1009 C   0  0  0  1  0  0  0  0  0  0  0  0
   -2.9628   -3.0512    0.4800 C   0  0  0  1  0  0  0  0  0  0  0  0
   -3.1933   -4.4147    0.3849 C   0  0  0  1  0  0  0  0  0  0  0  0
   -2.2947   -5.2225   -0.2862 C   0  0  0  1  0  0  0  0  0  0  0  0
   -1.1656   -4.6681   -0.8687 C   0  0  0  1  0  0  0  0  0  0  0  0
   -0.9356   -3.3085   -0.7739 C   0  0  0  1  0  0  0  0  0  0  0  0
   -2.6219   -6.5364   -0.3088 O   0  0  0  1  0  0  0  0  0  0  0  0
   -1.7076   -7.4292   -0.9641 C   0  0  0  1  0  0  0  0  0  0  0  0
    3.1148   -1.2569    0.1846 N   0  0  0  1  0  0  0  0  0  0  0  0
    3.3042   -2.7013    0.2245 C   0  0  0  1  0  0  0  0  0  0  0  0
    4.7788   -3.0794    0.0337 C   0  0  0  1  0  0  0  0  0  0  0  0
    5.0249   -2.9326   -1.4628 C   0  0  0  1  0  0  0  0  0  0  0  0
    3.6744   -3.2239   -2.1274 C   0  0  0  1  0  0  0  0  0  0  0  0
    2.6593   -3.3843   -0.9846 C   0  0  0  1  0  0  0  0  0  0  0  0
    3.7526   -4.4760   -2.9266 N   0  0  0  1  0  0  0  0  0  0  0  0
    0.9179    2.4772    0.0988 H   0  0  0  1  0  0  0  0  0  0  0  0
   -2.1489    1.9441   -0.0608 H   0  0  0  1  0  0  0  0  0  0  0  0
   -3.6370   -2.4441    0.9884 H   0  0  0  1  0  0  0  0  0  0  0  0
   -4.0424   -4.8301    0.8185 H   0  0  0  1  0  0  0  0  0  0  0  0
   -0.4913   -5.2752   -1.3771 H   0  0  0  1  0  0  0  0  0  0  0  0
   -0.0864   -2.8932   -1.2075 H   0  0  0  1  0  0  0  0  0  0  0  0
   -1.8071   -7.3272   -2.0246 H   0  0  0  1  0  0  0  0  0  0  0  0
   -1.9286   -8.4370   -0.6806 H   0  0  0  1  0  0  0  0  0  0  0  0
   -0.7058   -7.1884   -0.6753 H   0  0  0  1  0  0  0  0  0  0  0  0
    3.9242   -0.7047    0.2029 H   0  0  0  1  0  0  0  0  0  0  0  0
    2.9171   -3.0870    1.1443 H   0  0  0  1  0  0  0  0  0  0  0  0
    4.9534   -4.0872    0.3477 H   0  0  0  1  0  0  0  0  0  0  0  0
    5.4124   -2.4180    0.5869 H   0  0  0  1  0  0  0  0  0  0  0  0
    5.7628   -3.6343   -1.7913 H   0  0  0  1  0  0  0  0  0  0  0  0
    5.3490   -1.9393   -1.6932 H   0  0  0  1  0  0  0  0  0  0  0  0
    3.3913   -2.4114   -2.7635 H   0  0  0  1  0  0  0  0  0  0  0  0
    2.4843   -4.4200   -0.7811 H   0  0  0  1  0  0  0  0  0  0  0  0
    1.7344   -2.9082   -1.2351 H   0  0  0  1  0  0  0  0  0  0  0  0
    3.2564   -5.1871   -2.4701 H   0  0  0  1  0  0  0  0  0  0  0  0
    4.6905   -4.7431   -3.0238 H   0  0  0  1  0  0  0  0  0  0  0  0
  1  2  4  0  0  0  0
  1  6  4  0  0  0  0
  1 18  1  0  0  0  0
  2  3  4  0  0  0  0
  3  4  4  0  0  0  0
  3 25  1  0  0  0  0
  4  5  4  0  0  0  0
  4  7  4  0  0  0  0
  5  6  4  0  0  0  0
  5  9  4  0  0  0  0
  7  8  4  0  0  0  0
  7 26  1  0  0  0  0
  8  9  4  0  0  0  0
  9 10  1  0  0  0  0
 10 11  4  0  0  0  0
 10 15  4  0  0  0  0
 11 12  4  0  0  0  0
 11 27  1  0  0  0  0
 12 13  4  0  0  0  0
 12 28  1  0  0  0  0
 13 14  4  0  0  0  0
 13 16  1  0  0  0  0
 14 15  4  0  0  0  0
 14 29  1  0  0  0  0
 15 30  1  0  0  0  0
 16 17  1  0  0  0  0
 17 31  1  0  0  0  0
 17 32  1  0  0  0  0
 17 33  1  0  0  0  0
 18 19  1  0  0  0  0
 18 34  1  0  0  0  0
 19 20  1  0  0  0  0
 19 23  1  0  0  0  0
 19 35  1  0  0  0  0
 20 21  1  0  0  0  0
 20 36  1  0  0  0  0
 20 37  1  0  0  0  0
 21 22  1  0  0  0  0
 21 38  1  0  0  0  0
 21 39  1  0  0  0  0
 22 23  1  0  0  0  0
 22 24  1  0  0  0  0
 22 40  1  0  0  0  0
 23 41  1  0  0  0  0
 23 42  1  0  0  0  0
 24 43  1  0  0  0  0
 24 44  1  0  0  0  0
M  END
> <ConfClashScore>
0 

> <ConfOneFourInteractionScore>
-0.985399 

> <ConfScore>
0.13802 

> <ConfScorePBest>
0.00163399 

> <ConfTolerance>
0.604132 

$$$$
c22.sdf
 OpenBabel04162418103D

 44 47  0  0  0  0  0  0  0  0999 V2000
    1.9452   -0.6102    0.1255 C   0  0  0  1  0  0  0  0  0  0  0  0
    2.0363    0.7233    0.1481 N   0  0  0  1  0  0  0  0  0  0  0  0
    0.8946    1.4376    0.0881 C   0  0  0  1  0  0  0  0  0  0  0  0
   -0.3453    0.7386    0.0096 C   0  0  0  1  0  0  0  0  0  0  0  0
   -0.2529   -0.6477    0.0020 C   0  0  0  1  0  0  0  0  0  0  0  0
    0.8780   -1.3913    0.0539 N   0  0  0  1  0  0  0  0  0  0  0  0
   -1.7304    0.9920   -0.0538 C   0  0  0  1  0  0  0  0  0  0  0  0
   -2.4281   -0.1192   -0.1029 N   0  0  0  1  0  0  0  0  0  0  0  0
   -1.5125   -1.1341   -0.0681 N   0  0  0  1  0  0  0  0  0  0  0  0
   -1.8419   -2.5192   -0.1013 C   0  0  0  1  0  0  0  0  0  0  0  0
   -1.1619   -3.4107    0.7068 C   0  0  0  1  0  0  0  0  0  0  0  0
   -1.4861   -4.7581    0.6784 C   0  0  0  1  0  0  0  0  0  0  0  0
   -2.4857   -5.2110   -0.1619 C   0  0  0  1  0  0  0  0  0  0  0  0
   -3.1677   -4.3167   -0.9723 C   0  0  0  1  0  0  0  0  0  0  0  0
   -2.8444   -2.9732   -0.9441 C   0  0  0  1  0  0  0  0  0  0  0  0
   -2.7087   -6.5384   -0.1075 O   0  0  0  1  0  0  0  0  0  0  0  0
   -3.7279   -7.0255   -1.0111 C   0  0  0  1  0  0  0  0  0  0  0  0
    3.1213   -1.2605    0.1849 N   0  0  0  1  0  0  0  0  0  0  0  0
    4.4533   -0.6481    0.2552 C   0  0  0  1  0  0  0  0  0  0  0  0
    4.5596    0.2891    1.4455 C   0  0  0  1  0  0  0  0  0  0  0  0
    5.6245    1.3143    1.0652 C   0  0  0  1  0  0  0  0  0  0  0  0
    5.3346    1.5605   -0.4278 C   0  0  0  1  0  0  0  0  0  0  0  0
    4.6971    0.2807   -0.9455 C   0  0  0  1  0  0  0  0  0  0  0  0
    6.5926    1.8407   -1.1570 N   0  0  0  1  0  0  0  0  0  0  0  0
    0.9178    2.4773    0.0987 H   0  0  0  1  0  0  0  0  0  0  0  0
   -2.1490    1.9441   -0.0609 H   0  0  0  1  0  0  0  0  0  0  0  0
   -0.4069   -3.0706    1.3361 H   0  0  0  1  0  0  0  0  0  0  0  0
   -0.9772   -5.4284    1.2893 H   0  0  0  1  0  0  0  0  0  0  0  0
   -3.9226   -4.6567   -1.6016 H   0  0  0  1  0  0  0  0  0  0  0  0
   -3.3534   -2.3029   -1.5551 H   0  0  0  1  0  0  0  0  0  0  0  0
   -4.4214   -6.2392   -1.2246 H   0  0  0  1  0  0  0  0  0  0  0  0
   -4.2460   -7.8438   -0.5562 H   0  0  0  1  0  0  0  0  0  0  0  0
   -3.2703   -7.3539   -1.9209 H   0  0  0  1  0  0  0  0  0  0  0  0
    3.0852   -2.2397    0.1808 H   0  0  0  1  0  0  0  0  0  0  0  0
    5.1972   -1.4157    0.3038 H   0  0  0  1  0  0  0  0  0  0  0  0
    3.6222    0.7730    1.6249 H   0  0  0  1  0  0  0  0  0  0  0  0
    4.8562   -0.2506    2.3207 H   0  0  0  1  0  0  0  0  0  0  0  0
    6.6089    0.9197    1.2076 H   0  0  0  1  0  0  0  0  0  0  0  0
    5.5147    2.2141    1.6336 H   0  0  0  1  0  0  0  0  0  0  0  0
    4.6625    2.3847   -0.5452 H   0  0  0  1  0  0  0  0  0  0  0  0
    5.3532   -0.1945   -1.6447 H   0  0  0  1  0  0  0  0  0  0  0  0
    3.7674    0.5062   -1.4246 H   0  0  0  1  0  0  0  0  0  0  0  0
    6.9658    2.6931   -0.8499 H   0  0  0  1  0  0  0  0  0  0  0  0
    6.4081    1.8925   -2.1182 H   0  0  0  1  0  0  0  0  0  0  0  0
  1  2  4  0  0  0  0
  1  6  4  0  0  0  0
  1 18  1  0  0  0  0
  2  3  4  0  0  0  0
  3  4  4  0  0  0  0
  3 25  1  0  0  0  0
  4  5  4  0  0  0  0
  4  7  4  0  0  0  0
  5  6  4  0  0  0  0
  5  9  4  0  0  0  0
  7  8  4  0  0  0  0
  7 26  1  0  0  0  0
  8  9  4  0  0  0  0
  9 10  1  0  0  0  0
 10 11  4  0  0  0  0
 10 15  4  0  0  0  0
 11 12  4  0  0  0  0
 11 27  1  0  0  0  0
 12 13  4  0  0  0  0
 12 28  1  0  0  0  0
 13 14  4  0  0  0  0
 13 16  1  0  0  0  0
 14 15  4  0  0  0  0
 14 29  1  0  0  0  0
 15 30  1  0  0  0  0
 16 17  1  0  0  0  0
 17 31  1  0  0  0  0
 17 32  1  0  0  0  0
 17 33  1  0  0  0  0
 18 19  1  0  0  0  0
 18 34  1  0  0  0  0
 19 20  1  0  0  0  0
 19 23  1  0  0  0  0
 19 35  1  0  0  0  0
 20 21  1  0  0  0  0
 20 36  1  0  0  0  0
 20 37  1  0  0  0  0
 21 22  1  0  0  0  0
 21 38  1  0  0  0  0
 21 39  1  0  0  0  0
 22 23  1  0  0  0  0
 22 24  1  0  0  0  0
 22 40  1  0  0  0  0
 23 41  1  0  0  0  0
 23 42  1  0  0  0  0
 24 43  1  0  0  0  0
 24 44  1  0  0  0  0
M  END
> <ConfClashScore>
0 

> <ConfOneFourInteractionScore>
-0.980204 

> <ConfScore>
0.140526 

> <ConfScorePBest>
0.00162066 

> <ConfTolerance>
0.472177 

$$$$
c22.sdf
 OpenBabel04162418103D

 44 47  0  0  0  0  0  0  0  0999 V2000
    1.9452   -0.6102    0.1254 C   0  0  0  1  0  0  0  0  0  0  0  0
    2.0363    0.7233    0.1480 N   0  0  0  1  0  0  0  0  0  0  0  0
    0.8946    1.4376    0.0881 C   0  0  0  1  0  0  0  0  0  0  0  0
   -0.3452    0.7386    0.0096 C   0  0  0  1  0  0  0  0  0  0  0  0
   -0.2528   -0.6477    0.0020 C   0  0  0  1  0  0  0  0  0  0  0  0
    0.8780   -1.3913    0.0539 N   0  0  0  1  0  0  0  0  0  0  0  0
   -1.7303    0.9921   -0.0538 C   0  0  0  1  0  0  0  0  0  0  0  0
   -2.4281   -0.1191   -0.1028 N   0  0  0  1  0  0  0  0  0  0  0  0
   -1.5125   -1.1341   -0.0681 N   0  0  0  1  0  0  0  0  0  0  0  0
   -1.8420   -2.5200   -0.1013 C   0  0  0  1  0  0  0  0  0  0  0  0
   -1.6068   -3.2546   -1.2482 C   0  0  0  1  0  0  0  0  0  0  0  0
   -1.8337   -4.6220   -1.2540 C   0  0  0  1  0  0  0  0  0  0  0  0
   -2.3003   -5.2501   -0.1146 C   0  0  0  1  0  0  0  0  0  0  0  0
   -2.5362   -4.5133    1.0355 C   0  0  0  1  0  0  0  0  0  0  0  0
   -2.3099   -3.1498    1.0414 C   0  0  0  1  0  0  0  0  0  0  0  0
   -2.6611   -6.5554   -0.1073 O   0  0  0  1  0  0  0  0  0  0  0  0
   -2.5156   -7.2831   -1.3368 C   0  0  0  1  0  0  0  0  0  0  0  0
    3.1214   -1.2604    0.1849 N   0  0  0  1  0  0  0  0  0  0  0  0
    4.4448   -0.6523    0.2412 C   0  0  0  1  0  0  0  0  0  0  0  0
    4.6480    0.0646    1.5897 C   0  0  0  1  0  0  0  0  0  0  0  0
    5.5386    1.2439    1.2080 C   0  0  0  1  0  0  0  0  0  0  0  0
    5.0251    1.7226   -0.1387 C   0  0  0  1  0  0  0  0  0  0  0  0
    4.5790    0.4219   -0.8266 C   0  0  0  1  0  0  0  0  0  0  0  0
    6.1095    2.3961   -0.9173 N   0  0  0  1  0  0  0  0  0  0  0  0
    0.9179    2.4773    0.0987 H   0  0  0  1  0  0  0  0  0  0  0  0
   -2.1490    1.9440   -0.0608 H   0  0  0  1  0  0  0  0  0  0  0  0
   -1.2595   -2.7814   -2.1068 H   0  0  0  1  0  0  0  0  0  0  0  0
   -1.6530   -5.1754   -2.1158 H   0  0  0  1  0  0  0  0  0  0  0  0
   -2.8835   -4.9864    1.8942 H   0  0  0  1  0  0  0  0  0  0  0  0
   -2.4908   -2.5963    1.9032 H   0  0  0  1  0  0  0  0  0  0  0  0
   -1.5359   -7.1201   -1.7347 H   0  0  0  1  0  0  0  0  0  0  0  0
   -3.2470   -6.9441   -2.0405 H   0  0  0  1  0  0  0  0  0  0  0  0
   -2.6557   -8.3277   -1.1514 H   0  0  0  1  0  0  0  0  0  0  0  0
    3.0847   -2.2397    0.1907 H   0  0  0  1  0  0  0  0  0  0  0  0
    5.1909   -1.4072    0.1052 H   0  0  0  1  0  0  0  0  0  0  0  0
    5.1346   -0.5739    2.2972 H   0  0  0  1  0  0  0  0  0  0  0  0
    3.7154    0.3997    1.9933 H   0  0  0  1  0  0  0  0  0  0  0  0
    5.4591    2.0233    1.9367 H   0  0  0  1  0  0  0  0  0  0  0  0
    6.5589    0.9314    1.1292 H   0  0  0  1  0  0  0  0  0  0  0  0
    4.2014    2.3949   -0.0183 H   0  0  0  1  0  0  0  0  0  0  0  0
    5.3092    0.1252   -1.5503 H   0  0  0  1  0  0  0  0  0  0  0  0
    3.6367    0.5721   -1.3109 H   0  0  0  1  0  0  0  0  0  0  0  0
    6.6909    1.7188   -1.3217 H   0  0  0  1  0  0  0  0  0  0  0  0
    6.6375    2.9638   -0.3177 H   0  0  0  1  0  0  0  0  0  0  0  0
  1  2  4  0  0  0  0
  1  6  4  0  0  0  0
  1 18  1  0  0  0  0
  2  3  4  0  0  0  0
  3  4  4  0  0  0  0
  3 25  1  0  0  0  0
  4  5  4  0  0  0  0
  4  7  4  0  0  0  0
  5  6  4  0  0  0  0
  5  9  4  0  0  0  0
  7  8  4  0  0  0  0
  7 26  1  0  0  0  0
  8  9  4  0  0  0  0
  9 10  1  0  0  0  0
 10 11  4  0  0  0  0
 10 15  4  0  0  0  0
 11 12  4  0  0  0  0
 11 27  1  0  0  0  0
 12 13  4  0  0  0  0
 12 28  1  0  0  0  0
 13 14  4  0  0  0  0
 13 16  1  0  0  0  0
 14 15  4  0  0  0  0
 14 29  1  0  0  0  0
 15 30  1  0  0  0  0
 16 17  1  0  0  0  0
 17 31  1  0  0  0  0
 17 32  1  0  0  0  0
 17 33  1  0  0  0  0
 18 19  1  0  0  0  0
 18 34  1  0  0  0  0
 19 20  1  0  0  0  0
 19 23  1  0  0  0  0
 19 35  1  0  0  0  0
 20 21  1  0  0  0  0
 20 36  1  0  0  0  0
 20 37  1  0  0  0  0
 21 22  1  0  0  0  0
 21 38  1  0  0  0  0
 21 39  1  0  0  0  0
 22 23  1  0  0  0  0
 22 24  1  0  0  0  0
 22 40  1  0  0  0  0
 23 41  1  0  0  0  0
 23 42  1  0  0  0  0
 24 43  1  0  0  0  0
 24 44  1  0  0  0  0
M  END
> <ConfClashScore>
0 

> <ConfOneFourInteractionScore>
-0.982693 

> <ConfScore>
0.143049 

> <ConfScorePBest>
0.00160733 

> <ConfTolerance>
0.550747 

$$$$
c22.sdf
 OpenBabel04162418103D

 44 47  0  0  0  0  0  0  0  0999 V2000
    1.9453   -0.6102    0.1256 C   0  0  0  1  0  0  0  0  0  0  0  0
    2.0363    0.7233    0.1482 N   0  0  0  1  0  0  0  0  0  0  0  0
    0.8946    1.4375    0.0881 C   0  0  0  1  0  0  0  0  0  0  0  0
   -0.3453    0.7386    0.0096 C   0  0  0  1  0  0  0  0  0  0  0  0
   -0.2528   -0.6477    0.0020 C   0  0  0  1  0  0  0  0  0  0  0  0
    0.8780   -1.3913    0.0539 N   0  0  0  1  0  0  0  0  0  0  0  0
   -1.7303    0.9921   -0.0538 C   0  0  0  1  0  0  0  0  0  0  0  0
   -2.4281   -0.1192   -0.1028 N   0  0  0  1  0  0  0  0  0  0  0  0
   -1.5125   -1.1341   -0.0681 N   0  0  0  1  0  0  0  0  0  0  0  0
   -1.8425   -2.5221   -0.1013 C   0  0  0  1  0  0  0  0  0  0  0  0
   -1.3595   -3.4156    0.8358 C   0  0  0  1  0  0  0  0  0  0  0  0
   -1.7884   -4.7337    0.8220 C   0  0  0  1  0  0  0  0  0  0  0  0
   -2.6948   -5.1557   -0.1322 C   0  0  0  1  0  0  0  0  0  0  0  0
   -3.1791   -4.2593   -1.0722 C   0  0  0  1  0  0  0  0  0  0  0  0
   -2.7516   -2.9450   -1.0585 C   0  0  0  1  0  0  0  0  0  0  0  0
   -3.1806   -6.4145   -0.2476 O   0  0  0  1  0  0  0  0  0  0  0  0
   -3.9390   -6.7196   -1.4284 C   0  0  0  1  0  0  0  0  0  0  0  0
    3.1380   -1.2695    0.1858 N   0  0  0  1  0  0  0  0  0  0  0  0
    4.4093   -0.5608    0.1132 C   0  0  0  1  0  0  0  0  0  0  0  0
    5.5783   -1.5335    0.3187 C   0  0  0  1  0  0  0  0  0  0  0  0
    6.3365   -1.0380    1.5546 C   0  0  0  1  0  0  0  0  0  0  0  0
    6.0036    0.4427    1.6374 C   0  0  0  1  0  0  0  0  0  0  0  0
    4.5204    0.4570    1.2519 C   0  0  0  1  0  0  0  0  0  0  0  0
    6.8150    1.2304    0.6827 N   0  0  0  1  0  0  0  0  0  0  0  0
    0.9178    2.4772    0.0988 H   0  0  0  1  0  0  0  0  0  0  0  0
   -2.1490    1.9440   -0.0608 H   0  0  0  1  0  0  0  0  0  0  0  0
   -0.6744   -3.0991    1.5514 H   0  0  0  1  0  0  0  0  0  0  0  0
   -1.4281   -5.4052    1.5297 H   0  0  0  1  0  0  0  0  0  0  0  0
   -3.8642   -4.5758   -1.7878 H   0  0  0  1  0  0  0  0  0  0  0  0
   -3.1120   -2.2736   -1.7663 H   0  0  0  1  0  0  0  0  0  0  0  0
   -3.3026   -6.6617   -2.2866 H   0  0  0  1  0  0  0  0  0  0  0  0
   -4.7388   -6.0161   -1.5299 H   0  0  0  1  0  0  0  0  0  0  0  0
   -4.3407   -7.7081   -1.3484 H   0  0  0  1  0  0  0  0  0  0  0  0
    3.1400   -2.2450    0.2803 H   0  0  0  1  0  0  0  0  0  0  0  0
    4.4920   -0.0716   -0.8349 H   0  0  0  1  0  0  0  0  0  0  0  0
    6.2204   -1.5272   -0.5372 H   0  0  0  1  0  0  0  0  0  0  0  0
    5.2108   -2.5251    0.4822 H   0  0  0  1  0  0  0  0  0  0  0  0
    7.3899   -1.1825    1.4350 H   0  0  0  1  0  0  0  0  0  0  0  0
    6.0032   -1.5500    2.4331 H   0  0  0  1  0  0  0  0  0  0  0  0
    6.1516    0.8196    2.6278 H   0  0  0  1  0  0  0  0  0  0  0  0
    3.9115    0.1638    2.0815 H   0  0  0  1  0  0  0  0  0  0  0  0
    4.2259    1.4303    0.9189 H   0  0  0  1  0  0  0  0  0  0  0  0
    6.5258    2.1665    0.7022 H   0  0  0  1  0  0  0  0  0  0  0  0
    6.6962    0.8706   -0.2211 H   0  0  0  1  0  0  0  0  0  0  0  0
  1  2  4  0  0  0  0
  1  6  4  0  0  0  0
  1 18  1  0  0  0  0
  2  3  4  0  0  0  0
  3  4  4  0  0  0  0
  3 25  1  0  0  0  0
  4  5  4  0  0  0  0
  4  7  4  0  0  0  0
  5  6  4  0  0  0  0
  5  9  4  0  0  0  0
  7  8  4  0  0  0  0
  7 26  1  0  0  0  0
  8  9  4  0  0  0  0
  9 10  1  0  0  0  0
 10 11  4  0  0  0  0
 10 15  4  0  0  0  0
 11 12  4  0  0  0  0
 11 27  1  0  0  0  0
 12 13  4  0  0  0  0
 12 28  1  0  0  0  0
 13 14  4  0  0  0  0
 13 16  1  0  0  0  0
 14 15  4  0  0  0  0
 14 29  1  0  0  0  0
 15 30  1  0  0  0  0
 16 17  1  0  0  0  0
 17 31  1  0  0  0  0
 17 32  1  0  0  0  0
 17 33  1  0  0  0  0
 18 19  1  0  0  0  0
 18 34  1  0  0  0  0
 19 20  1  0  0  0  0
 19 23  1  0  0  0  0
 19 35  1  0  0  0  0
 20 21  1  0  0  0  0
 20 36  1  0  0  0  0
 20 37  1  0  0  0  0
 21 22  1  0  0  0  0
 21 38  1  0  0  0  0
 21 39  1  0  0  0  0
 22 23  1  0  0  0  0
 22 24  1  0  0  0  0
 22 40  1  0  0  0  0
 23 41  1  0  0  0  0
 23 42  1  0  0  0  0
 24 43  1  0  0  0  0
 24 44  1  0  0  0  0
M  END
> <ConfClashScore>
0.00215962 

> <ConfOneFourInteractionScore>
-0.981848 

> <ConfScore>
0.147024 

> <ConfScorePBest>
0.00159401 

> <ConfTolerance>
0.71798 

$$$$
c22.sdf
 OpenBabel04162418103D

 44 47  0  0  0  0  0  0  0  0999 V2000
    1.9452   -0.6102    0.1256 C   0  0  0  1  0  0  0  0  0  0  0  0
    2.0363    0.7233    0.1482 N   0  0  0  1  0  0  0  0  0  0  0  0
    0.8946    1.4376    0.0881 C   0  0  0  1  0  0  0  0  0  0  0  0
   -0.3453    0.7386    0.0095 C   0  0  0  1  0  0  0  0  0  0  0  0
   -0.2529   -0.6478    0.0020 C   0  0  0  1  0  0  0  0  0  0  0  0
    0.8779   -1.3913    0.0538 N   0  0  0  1  0  0  0  0  0  0  0  0
   -1.7303    0.9921   -0.0538 C   0  0  0  1  0  0  0  0  0  0  0  0
   -2.4282   -0.1191   -0.1029 N   0  0  0  1  0  0  0  0  0  0  0  0
   -1.5126   -1.1342   -0.0681 N   0  0  0  1  0  0  0  0  0  0  0  0
   -1.8397   -2.5098   -0.1011 C   0  0  0  1  0  0  0  0  0  0  0  0
   -2.4378   -3.0511   -1.2234 C   0  0  0  1  0  0  0  0  0  0  0  0
   -2.7534   -4.4004   -1.2578 C   0  0  0  1  0  0  0  0  0  0  0  0
   -2.4750   -5.2035   -0.1679 C   0  0  0  1  0  0  0  0  0  0  0  0
   -1.8751   -4.6604    0.9576 C   0  0  0  1  0  0  0  0  0  0  0  0
   -1.5603   -3.3151    0.9920 C   0  0  0  1  0  0  0  0  0  0  0  0
   -2.7397   -6.5217   -0.0844 O   0  0  0  1  0  0  0  0  0  0  0  0
   -3.3831   -7.0919   -1.2478 C   0  0  0  1  0  0  0  0  0  0  0  0
    3.1214   -1.2604    0.1849 N   0  0  0  1  0  0  0  0  0  0  0  0
    4.5104   -0.7912    0.1530 C   0  0  0  1  0  0  0  0  0  0  0  0
    4.6531    0.5229    0.9140 C   0  0  0  1  0  0  0  0  0  0  0  0
    4.6802    1.6533   -0.1221 C   0  0  0  1  0  0  0  0  0  0  0  0
    5.4774    1.0007   -1.3010 C   0  0  0  1  0  0  0  0  0  0  0  0
    4.9448   -0.4441   -1.3135 C   0  0  0  1  0  0  0  0  0  0  0  0
    6.9363    1.0296   -1.0395 N   0  0  0  1  0  0  0  0  0  0  0  0
    0.9179    2.4772    0.0988 H   0  0  0  1  0  0  0  0  0  0  0  0
   -2.1490    1.9441   -0.0608 H   0  0  0  1  0  0  0  0  0  0  0  0
   -2.6509   -2.4461   -2.0421 H   0  0  0  1  0  0  0  0  0  0  0  0
   -3.1999   -4.8085   -2.1039 H   0  0  0  1  0  0  0  0  0  0  0  0
   -1.6619   -5.2654    1.7762 H   0  0  0  1  0  0  0  0  0  0  0  0
   -1.1139   -2.9069    1.8380 H   0  0  0  1  0  0  0  0  0  0  0  0
   -3.0980   -6.5408   -2.1196 H   0  0  0  1  0  0  0  0  0  0  0  0
   -4.4452   -7.0436   -1.1273 H   0  0  0  1  0  0  0  0  0  0  0  0
   -3.0820   -8.1128   -1.3572 H   0  0  0  1  0  0  0  0  0  0  0  0
    3.0331   -2.2332    0.2646 H   0  0  0  1  0  0  0  0  0  0  0  0
    5.1502   -1.5410    0.5696 H   0  0  0  1  0  0  0  0  0  0  0  0
    5.5626    0.5220    1.4776 H   0  0  0  1  0  0  0  0  0  0  0  0
    3.8229    0.6540    1.5761 H   0  0  0  1  0  0  0  0  0  0  0  0
    5.1863    2.5160    0.2579 H   0  0  0  1  0  0  0  0  0  0  0  0
    3.6908    1.9246   -0.4262 H   0  0  0  1  0  0  0  0  0  0  0  0
    5.2706    1.4957   -2.2267 H   0  0  0  1  0  0  0  0  0  0  0  0
    5.7131   -1.1151   -1.6367 H   0  0  0  1  0  0  0  0  0  0  0  0
    4.1048   -0.5192   -1.9720 H   0  0  0  1  0  0  0  0  0  0  0  0
    7.2369    1.9594   -0.9649 H   0  0  0  1  0  0  0  0  0  0  0  0
    7.4090    0.5919   -1.7779 H   0  0  0  1  0  0  0  0  0  0  0  0
  1  2  4  0  0  0  0
  1  6  4  0  0  0  0
  1 18  1  0  0  0  0
  2  3  4  0  0  0  0
  3  4  4  0  0  0  0
  3 25  1  0  0  0  0
  4  5  4  0  0  0  0
  4  7  4  0  0  0  0
  5  6  4  0  0  0  0
  5  9  4  0  0  0  0
  7  8  4  0  0  0  0
  7 26  1  0  0  0  0
  8  9  4  0  0  0  0
  9 10  1  0  0  0  0
 10 11  4  0  0  0  0
 10 15  4  0  0  0  0
 11 12  4  0  0  0  0
 11 27  1  0  0  0  0
 12 13  4  0  0  0  0
 12 28  1  0  0  0  0
 13 14  4  0  0  0  0
 13 16  1  0  0  0  0
 14 15  4  0  0  0  0
 14 29  1  0  0  0  0
 15 30  1  0  0  0  0
 16 17  1  0  0  0  0
 17 31  1  0  0  0  0
 17 32  1  0  0  0  0
 17 33  1  0  0  0  0
 18 19  1  0  0  0  0
 18 34  1  0  0  0  0
 19 20  1  0  0  0  0
 19 23  1  0  0  0  0
 19 35  1  0  0  0  0
 20 21  1  0  0  0  0
 20 36  1  0  0  0  0
 20 37  1  0  0  0  0
 21 22  1  0  0  0  0
 21 38  1  0  0  0  0
 21 39  1  0  0  0  0
 22 23  1  0  0  0  0
 22 24  1  0  0  0  0
 22 40  1  0  0  0  0
 23 41  1  0  0  0  0
 23 42  1  0  0  0  0
 24 43  1  0  0  0  0
 24 44  1  0  0  0  0
M  END
> <ConfClashScore>
0.000822522 

> <ConfOneFourInteractionScore>
-0.982693 

> <ConfScore>
0.153521 

> <ConfScorePBest>
0.00158068 

> <ConfTolerance>
0.626429 

$$$$
c22.sdf
 OpenBabel04162418103D

 44 47  0  0  0  0  0  0  0  0999 V2000
    1.9452   -0.6103    0.1256 C   0  0  0  1  0  0  0  0  0  0  0  0
    2.0363    0.7232    0.1482 N   0  0  0  1  0  0  0  0  0  0  0  0
    0.8946    1.4376    0.0881 C   0  0  0  1  0  0  0  0  0  0  0  0
   -0.3453    0.7386    0.0096 C   0  0  0  1  0  0  0  0  0  0  0  0
   -0.2529   -0.6477    0.0021 C   0  0  0  1  0  0  0  0  0  0  0  0
    0.8779   -1.3913    0.0539 N   0  0  0  1  0  0  0  0  0  0  0  0
   -1.7304    0.9921   -0.0538 C   0  0  0  1  0  0  0  0  0  0  0  0
   -2.4281   -0.1191   -0.1029 N   0  0  0  1  0  0  0  0  0  0  0  0
   -1.5125   -1.1341   -0.0681 N   0  0  0  1  0  0  0  0  0  0  0  0
   -1.8419   -2.5193   -0.1013 C   0  0  0  1  0  0  0  0  0  0  0  0
   -0.9249   -3.4362   -0.5793 C   0  0  0  1  0  0  0  0  0  0  0  0
   -1.2435   -4.7850   -0.6067 C   0  0  0  1  0  0  0  0  0  0  0  0
   -2.4801   -5.2123   -0.1610 C   0  0  0  1  0  0  0  0  0  0  0  0
   -3.3998   -4.2925    0.3184 C   0  0  0  1  0  0  0  0  0  0  0  0
   -3.0822   -2.9476    0.3457 C   0  0  0  1  0  0  0  0  0  0  0  0
   -2.7525   -6.5305   -0.1054 O   0  0  0  1  0  0  0  0  0  0  0  0
   -1.8135   -7.3797   -0.8052 C   0  0  0  1  0  0  0  0  0  0  0  0
    3.1213   -1.2605    0.1850 N   0  0  0  1  0  0  0  0  0  0  0  0
    4.5050   -0.7883    0.2419 C   0  0  0  1  0  0  0  0  0  0  0  0
    4.6076    0.4318    1.1596 C   0  0  0  1  0  0  0  0  0  0  0  0
    4.9385    1.6109    0.2549 C   0  0  0  1  0  0  0  0  0  0  0  0
    4.5599    1.1905   -1.1587 C   0  0  0  1  0  0  0  0  0  0  0  0
    4.9748   -0.3282   -1.1755 C   0  0  0  1  0  0  0  0  0  0  0  0
    5.3231    1.9724   -2.1795 N   0  0  0  1  0  0  0  0  0  0  0  0
    0.9179    2.4772    0.0989 H   0  0  0  1  0  0  0  0  0  0  0  0
   -2.1490    1.9441   -0.0608 H   0  0  0  1  0  0  0  0  0  0  0  0
    0.0041   -3.1143   -0.9184 H   0  0  0  1  0  0  0  0  0  0  0  0
   -0.5521   -5.4755   -0.9626 H   0  0  0  1  0  0  0  0  0  0  0  0
   -4.3287   -4.6143    0.6575 H   0  0  0  1  0  0  0  0  0  0  0  0
   -3.7736   -2.2571    0.7016 H   0  0  0  1  0  0  0  0  0  0  0  0
   -2.3155   -8.2599   -1.1488 H   0  0  0  1  0  0  0  0  0  0  0  0
   -1.0210   -7.6572   -0.1420 H   0  0  0  1  0  0  0  0  0  0  0  0
   -1.4095   -6.8500   -1.6426 H   0  0  0  1  0  0  0  0  0  0  0  0
    3.0349   -2.2366    0.1913 H   0  0  0  1  0  0  0  0  0  0  0  0
    5.1360   -1.5739    0.6019 H   0  0  0  1  0  0  0  0  0  0  0  0
    5.3834    0.2888    1.8825 H   0  0  0  1  0  0  0  0  0  0  0  0
    3.6776    0.5983    1.6619 H   0  0  0  1  0  0  0  0  0  0  0  0
    5.9836    1.8345    0.3066 H   0  0  0  1  0  0  0  0  0  0  0  0
    4.3742    2.4714    0.5481 H   0  0  0  1  0  0  0  0  0  0  0  0
    3.5103    1.3079   -1.3303 H   0  0  0  1  0  0  0  0  0  0  0  0
    6.0318   -0.4444   -1.2948 H   0  0  0  1  0  0  0  0  0  0  0  0
    4.4670   -0.8645   -1.9498 H   0  0  0  1  0  0  0  0  0  0  0  0
    5.3147    1.4914   -3.0333 H   0  0  0  1  0  0  0  0  0  0  0  0
    6.2487    2.0866   -1.8782 H   0  0  0  1  0  0  0  0  0  0  0  0
  1  2  4  0  0  0  0
  1  6  4  0  0  0  0
  1 18  1  0  0  0  0
  2  3  4  0  0  0  0
  3  4  4  0  0  0  0
  3 25  1  0  0  0  0
  4  5  4  0  0  0  0
  4  7  4  0  0  0  0
  5  6  4  0  0  0  0
  5  9  4  0  0  0  0
  7  8  4  0  0  0  0
  7 26  1  0  0  0  0
  8  9  4  0  0  0  0
  9 10  1  0  0  0  0
 10 11  4  0  0  0  0
 10 15  4  0  0  0  0
 11 12  4  0  0  0  0
 11 27  1  0  0  0  0
 12 13  4  0  0  0  0
 12 28  1  0  0  0  0
 13 14  4  0  0  0  0
 13 16  1  0  0  0  0
 14 15  4  0  0  0  0
 14 29  1  0  0  0  0
 15 30  1  0  0  0  0
 16 17  1  0  0  0  0
 17 31  1  0  0  0  0
 17 32  1  0  0  0  0
 17 33  1  0  0  0  0
 18 19  1  0  0  0  0
 18 34  1  0  0  0  0
 19 20  1  0  0  0  0
 19 23  1  0  0  0  0
 19 35  1  0  0  0  0
 20 21  1  0  0  0  0
 20 36  1  0  0  0  0
 20 37  1  0  0  0  0
 21 22  1  0  0  0  0
 21 38  1  0  0  0  0
 21 39  1  0  0  0  0
 22 23  1  0  0  0  0
 22 24  1  0  0  0  0
 22 40  1  0  0  0  0
 23 41  1  0  0  0  0
 23 42  1  0  0  0  0
 24 43  1  0  0  0  0
 24 44  1  0  0  0  0
M  END
> <ConfClashScore>
0 

> <ConfOneFourInteractionScore>
-0.982693 

> <ConfScore>
0.159594 

> <ConfScorePBest>
0.00156735 

> <ConfTolerance>
0.600951 

$$$$
c22.sdf
 OpenBabel04162418103D

 44 47  0  0  0  0  0  0  0  0999 V2000
    1.9452   -0.6102    0.1256 C   0  0  0  1  0  0  0  0  0  0  0  0
    2.0363    0.7232    0.1481 N   0  0  0  1  0  0  0  0  0  0  0  0
    0.8946    1.4376    0.0881 C   0  0  0  1  0  0  0  0  0  0  0  0
   -0.3452    0.7386    0.0096 C   0  0  0  1  0  0  0  0  0  0  0  0
   -0.2529   -0.6477    0.0020 C   0  0  0  1  0  0  0  0  0  0  0  0
    0.8779   -1.3913    0.0539 N   0  0  0  1  0  0  0  0  0  0  0  0
   -1.7303    0.9920   -0.0538 C   0  0  0  1  0  0  0  0  0  0  0  0
   -2.4281   -0.1191   -0.1028 N   0  0  0  1  0  0  0  0  0  0  0  0
   -1.5125   -1.1341   -0.0681 N   0  0  0  1  0  0  0  0  0  0  0  0
   -1.8370   -2.4986   -0.1008 C   0  0  0  1  0  0  0  0  0  0  0  0
   -2.2125   -3.2421    1.0021 C   0  0  0  1  0  0  0  0  0  0  0  0
   -2.5184   -4.5866    0.8598 C   0  0  0  1  0  0  0  0  0  0  0  0
   -2.4427   -5.1850   -0.3837 C   0  0  0  1  0  0  0  0  0  0  0  0
   -2.0661   -4.4391   -1.4898 C   0  0  0  1  0  0  0  0  0  0  0  0
   -1.7610   -3.0985   -1.3482 C   0  0  0  1  0  0  0  0  0  0  0  0
   -2.7364   -6.4997   -0.5217 O   0  0  0  1  0  0  0  0  0  0  0  0
   -2.6271   -7.0619   -1.8387 C   0  0  0  1  0  0  0  0  0  0  0  0
    3.1322   -1.2665    0.1854 N   0  0  0  1  0  0  0  0  0  0  0  0
    3.2019   -2.7299    0.2262 C   0  0  0  1  0  0  0  0  0  0  0  0
    2.4914   -3.3297   -0.9927 C   0  0  0  1  0  0  0  0  0  0  0  0
    1.2808   -4.0663   -0.4329 C   0  0  0  1  0  0  0  0  0  0  0  0
    1.7088   -4.5058    0.9734 C   0  0  0  1  0  0  0  0  0  0  0  0
    2.4598   -3.2641    1.4615 C   0  0  0  1  0  0  0  0  0  0  0  0
    2.6104   -5.7103    0.9232 N   0  0  0  1  0  0  0  0  0  0  0  0
    0.9179    2.4772    0.0988 H   0  0  0  1  0  0  0  0  0  0  0  0
   -2.1490    1.9441   -0.0608 H   0  0  0  1  0  0  0  0  0  0  0  0
   -2.2656   -2.7929    1.9385 H   0  0  0  1  0  0  0  0  0  0  0  0
   -2.8048   -5.1452    1.6890 H   0  0  0  1  0  0  0  0  0  0  0  0
   -2.0129   -4.8883   -2.4263 H   0  0  0  1  0  0  0  0  0  0  0  0
   -1.4746   -2.5398   -2.1773 H   0  0  0  1  0  0  0  0  0  0  0  0
   -2.6998   -8.1277   -1.7792 H   0  0  0  1  0  0  0  0  0  0  0  0
   -1.6830   -6.7923   -2.2641 H   0  0  0  1  0  0  0  0  0  0  0  0
   -3.4170   -6.6845   -2.4540 H   0  0  0  1  0  0  0  0  0  0  0  0
    3.9639   -0.7484    0.2018 H   0  0  0  1  0  0  0  0  0  0  0  0
    4.2264   -3.0382    0.2471 H   0  0  0  1  0  0  0  0  0  0  0  0
    2.1816   -2.5559   -1.6636 H   0  0  0  1  0  0  0  0  0  0  0  0
    3.1387   -4.0096   -1.5062 H   0  0  0  1  0  0  0  0  0  0  0  0
    1.0433   -4.9163   -1.0379 H   0  0  0  1  0  0  0  0  0  0  0  0
    0.4331   -3.4153   -0.3830 H   0  0  0  1  0  0  0  0  0  0  0  0
    0.8618   -4.7190    1.5914 H   0  0  0  1  0  0  0  0  0  0  0  0
    1.7730   -2.5320    1.8321 H   0  0  0  1  0  0  0  0  0  0  0  0
    3.1542   -3.5249    2.2326 H   0  0  0  1  0  0  0  0  0  0  0  0
    2.2119   -6.3932    0.3441 H   0  0  0  1  0  0  0  0  0  0  0  0
    2.7214   -6.0727    1.8269 H   0  0  0  1  0  0  0  0  0  0  0  0
  1  2  4  0  0  0  0
  1  6  4  0  0  0  0
  1 18  1  0  0  0  0
  2  3  4  0  0  0  0
  3  4  4  0  0  0  0
  3 25  1  0  0  0  0
  4  5  4  0  0  0  0
  4  7  4  0  0  0  0
  5  6  4  0  0  0  0
  5  9  4  0  0  0  0
  7  8  4  0  0  0  0
  7 26  1  0  0  0  0
  8  9  4  0  0  0  0
  9 10  1  0  0  0  0
 10 11  4  0  0  0  0
 10 15  4  0  0  0  0
 11 12  4  0  0  0  0
 11 27  1  0  0  0  0
 12 13  4  0  0  0  0
 12 28  1  0  0  0  0
 13 14  4  0  0  0  0
 13 16  1  0  0  0  0
 14 15  4  0  0  0  0
 14 29  1  0  0  0  0
 15 30  1  0  0  0  0
 16 17  1  0  0  0  0
 17 31  1  0  0  0  0
 17 32  1  0  0  0  0
 17 33  1  0  0  0  0
 18 19  1  0  0  0  0
 18 34  1  0  0  0  0
 19 20  1  0  0  0  0
 19 23  1  0  0  0  0
 19 35  1  0  0  0  0
 20 21  1  0  0  0  0
 20 36  1  0  0  0  0
 20 37  1  0  0  0  0
 21 22  1  0  0  0  0
 21 38  1  0  0  0  0
 21 39  1  0  0  0  0
 22 23  1  0  0  0  0
 22 24  1  0  0  0  0
 22 40  1  0  0  0  0
 23 41  1  0  0  0  0
 23 42  1  0  0  0  0
 24 43  1  0  0  0  0
 24 44  1  0  0  0  0
M  END
> <ConfClashScore>
0.000956196 

> <ConfOneFourInteractionScore>
-0.980204 

> <ConfScore>
0.188899 

> <ConfScorePBest>
0.00155402 

> <ConfTolerance>
0.506752 

$$$$
c22.sdf
 OpenBabel04162418103D

 44 47  0  0  0  0  0  0  0  0999 V2000
    1.9452   -0.6102    0.1256 C   0  0  0  1  0  0  0  0  0  0  0  0
    2.0363    0.7233    0.1482 N   0  0  0  1  0  0  0  0  0  0  0  0
    0.8946    1.4376    0.0881 C   0  0  0  1  0  0  0  0  0  0  0  0
   -0.3453    0.7386    0.0096 C   0  0  0  1  0  0  0  0  0  0  0  0
   -0.2529   -0.6477    0.0021 C   0  0  0  1  0  0  0  0  0  0  0  0
    0.8779   -1.3913    0.0539 N   0  0  0  1  0  0  0  0  0  0  0  0
   -1.7303    0.9921   -0.0538 C   0  0  0  1  0  0  0  0  0  0  0  0
   -2.4281   -0.1191   -0.1028 N   0  0  0  1  0  0  0  0  0  0  0  0
   -1.5126   -1.1342   -0.0681 N   0  0  0  1  0  0  0  0  0  0  0  0
   -1.8420   -2.5198   -0.1013 C   0  0  0  1  0  0  0  0  0  0  0  0
   -1.9055   -3.1817   -1.3129 C   0  0  0  1  0  0  0  0  0  0  0  0
   -2.1289   -4.5494   -1.3444 C   0  0  0  1  0  0  0  0  0  0  0  0
   -2.2934   -5.2503   -0.1645 C   0  0  0  1  0  0  0  0  0  0  0  0
   -2.2297   -4.5862    1.0506 C   0  0  0  1  0  0  0  0  0  0  0  0
   -2.0070   -3.2225    1.0822 C   0  0  0  1  0  0  0  0  0  0  0  0
   -2.5106   -6.5779   -0.3203 O   0  0  0  1  0  0  0  0  0  0  0  0
   -2.8797   -7.3242    0.8499 C   0  0  0  1  0  0  0  0  0  0  0  0
    3.1403   -1.2710    0.1859 N   0  0  0  1  0  0  0  0  0  0  0  0
    3.2086   -2.7333    0.3123 C   0  0  0  1  0  0  0  0  0  0  0  0
    4.6657   -3.2050    0.2432 C   0  0  0  1  0  0  0  0  0  0  0  0
    4.7694   -4.0086   -1.0472 C   0  0  0  1  0  0  0  0  0  0  0  0
    3.3661   -4.5928   -1.2556 C   0  0  0  1  0  0  0  0  0  0  0  0
    2.4839   -3.4039   -0.8654 C   0  0  0  1  0  0  0  0  0  0  0  0
    3.1266   -5.7622   -0.3688 N   0  0  0  1  0  0  0  0  0  0  0  0
    0.9178    2.4773    0.0988 H   0  0  0  1  0  0  0  0  0  0  0  0
   -2.1490    1.9441   -0.0608 H   0  0  0  1  0  0  0  0  0  0  0  0
   -1.7858   -2.6538   -2.2008 H   0  0  0  1  0  0  0  0  0  0  0  0
   -2.1727   -5.0482   -2.2558 H   0  0  0  1  0  0  0  0  0  0  0  0
   -2.3495   -5.1142    1.9386 H   0  0  0  1  0  0  0  0  0  0  0  0
   -1.9632   -2.7236    1.9936 H   0  0  0  1  0  0  0  0  0  0  0  0
   -2.5742   -8.3431    0.7346 H   0  0  0  1  0  0  0  0  0  0  0  0
   -3.9411   -7.2827    0.9789 H   0  0  0  1  0  0  0  0  0  0  0  0
   -2.3989   -6.9027    1.7078 H   0  0  0  1  0  0  0  0  0  0  0  0
    3.9731   -0.7561    0.1437 H   0  0  0  1  0  0  0  0  0  0  0  0
    2.7656   -3.0326    1.2392 H   0  0  0  1  0  0  0  0  0  0  0  0
    5.3297   -2.3665    0.2164 H   0  0  0  1  0  0  0  0  0  0  0  0
    4.9005   -3.8198    1.0869 H   0  0  0  1  0  0  0  0  0  0  0  0
    5.0395   -3.3746   -1.8657 H   0  0  0  1  0  0  0  0  0  0  0  0
    5.4926   -4.7907   -0.9474 H   0  0  0  1  0  0  0  0  0  0  0  0
    3.2088   -4.8791   -2.2745 H   0  0  0  1  0  0  0  0  0  0  0  0
    2.3892   -2.7223   -1.6847 H   0  0  0  1  0  0  0  0  0  0  0  0
    1.5130   -3.7397   -0.5661 H   0  0  0  1  0  0  0  0  0  0  0  0
    3.2854   -6.5900   -0.8688 H   0  0  0  1  0  0  0  0  0  0  0  0
    2.1999   -5.7460   -0.0503 H   0  0  0  1  0  0  0  0  0  0  0  0
  1  2  4  0  0  0  0
  1  6  4  0  0  0  0
  1 18  1  0  0  0  0
  2  3  4  0  0  0  0
  3  4  4  0  0  0  0
  3 25  1  0  0  0  0
  4  5  4  0  0  0  0
  4  7  4  0  0  0  0
  5  6  4  0  0  0  0
  5  9  4  0  0  0  0
  7  8  4  0  0  0  0
  7 26  1  0  0  0  0
  8  9  4  0  0  0  0
  9 10  1  0  0  0  0
 10 11  4  0  0  0  0
 10 15  4  0  0  0  0
 11 12  4  0  0  0  0
 11 27  1  0  0  0  0
 12 13  4  0  0  0  0
 12 28  1  0  0  0  0
 13 14  4  0  0  0  0
 13 16  1  0  0  0  0
 14 15  4  0  0  0  0
 14 29  1  0  0  0  0
 15 30  1  0  0  0  0
 16 17  1  0  0  0  0
 17 31  1  0  0  0  0
 17 32  1  0  0  0  0
 17 33  1  0  0  0  0
 18 19  1  0  0  0  0
 18 34  1  0  0  0  0
 19 20  1  0  0  0  0
 19 23  1  0  0  0  0
 19 35  1  0  0  0  0
 20 21  1  0  0  0  0
 20 36  1  0  0  0  0
 20 37  1  0  0  0  0
 21 22  1  0  0  0  0
 21 38  1  0  0  0  0
 21 39  1  0  0  0  0
 22 23  1  0  0  0  0
 22 24  1  0  0  0  0
 22 40  1  0  0  0  0
 23 41  1  0  0  0  0
 23 42  1  0  0  0  0
 24 43  1  0  0  0  0
 24 44  1  0  0  0  0
M  END
> <ConfClashScore>
0 

> <ConfOneFourInteractionScore>
-0.97608 

> <ConfScore>
0.192268 

> <ConfScorePBest>
0.00154069 

> <ConfTolerance>
0.618484 

$$$$
c22.sdf
 OpenBabel04162418103D

 44 47  0  0  0  0  0  0  0  0999 V2000
    1.9453   -0.6102    0.1255 C   0  0  0  1  0  0  0  0  0  0  0  0
    2.0364    0.7234    0.1481 N   0  0  0  1  0  0  0  0  0  0  0  0
    0.8946    1.4376    0.0881 C   0  0  0  1  0  0  0  0  0  0  0  0
   -0.3452    0.7387    0.0096 C   0  0  0  1  0  0  0  0  0  0  0  0
   -0.2528   -0.6478    0.0020 C   0  0  0  1  0  0  0  0  0  0  0  0
    0.8780   -1.3913    0.0539 N   0  0  0  1  0  0  0  0  0  0  0  0
   -1.7303    0.9921   -0.0538 C   0  0  0  1  0  0  0  0  0  0  0  0
   -2.4281   -0.1191   -0.1028 N   0  0  0  1  0  0  0  0  0  0  0  0
   -1.5126   -1.1341   -0.0681 N   0  0  0  1  0  0  0  0  0  0  0  0
   -1.8416   -2.5184   -0.1013 C   0  0  0  1  0  0  0  0  0  0  0  0
   -2.6766   -3.0065   -1.0885 C   0  0  0  1  0  0  0  0  0  0  0  0
   -2.9929   -4.3557   -1.1240 C   0  0  0  1  0  0  0  0  0  0  0  0
   -2.4776   -5.2119   -0.1691 C   0  0  0  1  0  0  0  0  0  0  0  0
   -1.6401   -4.7220    0.8211 C   0  0  0  1  0  0  0  0  0  0  0  0
   -1.3247   -3.3769    0.8566 C   0  0  0  1  0  0  0  0  0  0  0  0
   -2.7189   -6.5425   -0.0991 O   0  0  0  1  0  0  0  0  0  0  0  0
   -3.3631   -7.1528   -1.2283 C   0  0  0  1  0  0  0  0  0  0  0  0
    3.1214   -1.2604    0.1849 N   0  0  0  1  0  0  0  0  0  0  0  0
    3.4675   -2.6821    0.0967 C   0  0  0  1  0  0  0  0  0  0  0  0
    2.5694   -3.3799   -0.9269 C   0  0  0  1  0  0  0  0  0  0  0  0
    1.6800   -4.3247   -0.1302 C   0  0  0  1  0  0  0  0  0  0  0  0
    1.7174   -3.8394    1.3126 C   0  0  0  1  0  0  0  0  0  0  0  0
    3.2161   -3.3829    1.4704 C   0  0  0  1  0  0  0  0  0  0  0  0
    1.3842   -4.9418    2.2634 N   0  0  0  1  0  0  0  0  0  0  0  0
    0.9179    2.4772    0.0988 H   0  0  0  1  0  0  0  0  0  0  0  0
   -2.1490    1.9441   -0.0608 H   0  0  0  1  0  0  0  0  0  0  0  0
   -3.0675   -2.3618   -1.8047 H   0  0  0  1  0  0  0  0  0  0  0  0
   -3.6179   -4.7238   -1.8693 H   0  0  0  1  0  0  0  0  0  0  0  0
   -1.2492   -5.3668    1.5373 H   0  0  0  1  0  0  0  0  0  0  0  0
   -0.6996   -3.0086    1.6018 H   0  0  0  1  0  0  0  0  0  0  0  0
   -4.0452   -7.9035   -0.8877 H   0  0  0  1  0  0  0  0  0  0  0  0
   -2.6252   -7.6018   -1.8599 H   0  0  0  1  0  0  0  0  0  0  0  0
   -3.8988   -6.4077   -1.7787 H   0  0  0  1  0  0  0  0  0  0  0  0
    3.8942   -0.6713    0.3114 H   0  0  0  1  0  0  0  0  0  0  0  0
    4.4947   -2.7828   -0.1855 H   0  0  0  1  0  0  0  0  0  0  0  0
    1.9738   -2.6612   -1.4499 H   0  0  0  1  0  0  0  0  0  0  0  0
    3.1622   -3.9300   -1.6275 H   0  0  0  1  0  0  0  0  0  0  0  0
    0.6782   -4.2931   -0.5048 H   0  0  0  1  0  0  0  0  0  0  0  0
    2.0537   -5.3252   -0.1933 H   0  0  0  1  0  0  0  0  0  0  0  0
    1.0447   -3.0213    1.4642 H   0  0  0  1  0  0  0  0  0  0  0  0
    3.8680   -4.2200    1.6083 H   0  0  0  1  0  0  0  0  0  0  0  0
    3.3337   -2.7002    2.2859 H   0  0  0  1  0  0  0  0  0  0  0  0
    0.8587   -5.6265    1.7992 H   0  0  0  1  0  0  0  0  0  0  0  0
    0.8630   -4.5817    3.0112 H   0  0  0  1  0  0  0  0  0  0  0  0
  1  2  4  0  0  0  0
  1  6  4  0  0  0  0
  1 18  1  0  0  0  0
  2  3  4  0  0  0  0
  3  4  4  0  0  0  0
  3 25  1  0  0  0  0
  4  5  4  0  0  0  0
  4  7  4  0  0  0  0
  5  6  4  0  0  0  0
  5  9  4  0  0  0  0
  7  8  4  0  0  0  0
  7 26  1  0  0  0  0
  8  9  4  0  0  0  0
  9 10  1  0  0  0  0
 10 11  4  0  0  0  0
 10 15  4  0  0  0  0
 11 12  4  0  0  0  0
 11 27  1  0  0  0  0
 12 13  4  0  0  0  0
 12 28  1  0  0  0  0
 13 14  4  0  0  0  0
 13 16  1  0  0  0  0
 14 15  4  0  0  0  0
 14 29  1  0  0  0  0
 15 30  1  0  0  0  0
 16 17  1  0  0  0  0
 17 31  1  0  0  0  0
 17 32  1  0  0  0  0
 17 33  1  0  0  0  0
 18 19  1  0  0  0  0
 18 34  1  0  0  0  0
 19 20  1  0  0  0  0
 19 23  1  0  0  0  0
 19 35  1  0  0  0  0
 20 21  1  0  0  0  0
 20 36  1  0  0  0  0
 20 37  1  0  0  0  0
 21 22  1  0  0  0  0
 21 38  1  0  0  0  0
 21 39  1  0  0  0  0
 22 23  1  0  0  0  0
 22 24  1  0  0  0  0
 22 40  1  0  0  0  0
 23 41  1  0  0  0  0
 23 42  1  0  0  0  0
 24 43  1  0  0  0  0
 24 44  1  0  0  0  0
M  END
> <ConfClashScore>
0 

> <ConfOneFourInteractionScore>
-0.982693 

> <ConfScore>
0.192281 

> <ConfScorePBest>
0.00152736 

> <ConfTolerance>
0.589833 

$$$$
c22.sdf
 OpenBabel04162418103D

 44 47  0  0  0  0  0  0  0  0999 V2000
    1.9452   -0.6102    0.1256 C   0  0  0  1  0  0  0  0  0  0  0  0
    2.0363    0.7233    0.1481 N   0  0  0  1  0  0  0  0  0  0  0  0
    0.8946    1.4376    0.0881 C   0  0  0  1  0  0  0  0  0  0  0  0
   -0.3452    0.7386    0.0096 C   0  0  0  1  0  0  0  0  0  0  0  0
   -0.2528   -0.6477    0.0020 C   0  0  0  1  0  0  0  0  0  0  0  0
    0.8779   -1.3913    0.0539 N   0  0  0  1  0  0  0  0  0  0  0  0
   -1.7304    0.9921   -0.0538 C   0  0  0  1  0  0  0  0  0  0  0  0
   -2.4281   -0.1192   -0.1028 N   0  0  0  1  0  0  0  0  0  0  0  0
   -1.5125   -1.1342   -0.0681 N   0  0  0  1  0  0  0  0  0  0  0  0
   -1.8419   -2.5192   -0.1013 C   0  0  0  1  0  0  0  0  0  0  0  0
   -1.0327   -3.4067   -0.7853 C   0  0  0  1  0  0  0  0  0  0  0  0
   -1.3999   -4.7391   -0.8910 C   0  0  0  1  0  0  0  0  0  0  0  0
   -2.5778   -5.1791   -0.3172 C   0  0  0  1  0  0  0  0  0  0  0  0
   -3.3893   -4.2889    0.3687 C   0  0  0  1  0  0  0  0  0  0  0  0
   -3.0232   -2.9603    0.4742 C   0  0  0  1  0  0  0  0  0  0  0  0
   -3.0401   -6.4478   -0.3588 O   0  0  0  1  0  0  0  0  0  0  0  0
   -2.3129   -7.4415   -1.0979 C   0  0  0  1  0  0  0  0  0  0  0  0
    3.1256   -1.2629    0.1852 N   0  0  0  1  0  0  0  0  0  0  0  0
    4.4221   -0.5970    0.2069 C   0  0  0  1  0  0  0  0  0  0  0  0
    4.5284    0.4172   -0.9355 C   0  0  0  1  0  0  0  0  0  0  0  0
    5.2040   -0.3361   -2.0893 C   0  0  0  1  0  0  0  0  0  0  0  0
    5.4827   -1.7516   -1.5726 C   0  0  0  1  0  0  0  0  0  0  0  0
    5.5499   -1.5992   -0.0619 C   0  0  0  1  0  0  0  0  0  0  0  0
    6.7851   -2.2659   -2.1120 N   0  0  0  1  0  0  0  0  0  0  0  0
    0.9179    2.4772    0.0988 H   0  0  0  1  0  0  0  0  0  0  0  0
   -2.1489    1.9441   -0.0608 H   0  0  0  1  0  0  0  0  0  0  0  0
   -0.1483   -3.0748   -1.2205 H   0  0  0  1  0  0  0  0  0  0  0  0
   -0.7890   -5.4078   -1.4022 H   0  0  0  1  0  0  0  0  0  0  0  0
   -4.2736   -4.6208    0.8039 H   0  0  0  1  0  0  0  0  0  0  0  0
   -3.6341   -2.2915    0.9854 H   0  0  0  1  0  0  0  0  0  0  0  0
   -1.3079   -7.4927   -0.7342 H   0  0  0  1  0  0  0  0  0  0  0  0
   -2.3037   -7.1784   -2.1350 H   0  0  0  1  0  0  0  0  0  0  0  0
   -2.7854   -8.3937   -0.9752 H   0  0  0  1  0  0  0  0  0  0  0  0
    3.1099   -2.2422    0.2155 H   0  0  0  1  0  0  0  0  0  0  0  0
    4.5610   -0.1164    1.1528 H   0  0  0  1  0  0  0  0  0  0  0  0
    3.5560    0.7547   -1.2277 H   0  0  0  1  0  0  0  0  0  0  0  0
    5.1229    1.2555   -0.6373 H   0  0  0  1  0  0  0  0  0  0  0  0
    4.5542   -0.3729   -2.9385 H   0  0  0  1  0  0  0  0  0  0  0  0
    6.1196    0.1462   -2.3609 H   0  0  0  1  0  0  0  0  0  0  0  0
    4.6930   -2.4178   -1.8505 H   0  0  0  1  0  0  0  0  0  0  0  0
    6.4976   -1.2103    0.2478 H   0  0  0  1  0  0  0  0  0  0  0  0
    5.3678   -2.5310    0.4314 H   0  0  0  1  0  0  0  0  0  0  0  0
    6.8548   -3.2276   -1.9369 H   0  0  0  1  0  0  0  0  0  0  0  0
    7.5271   -1.7997   -1.6732 H   0  0  0  1  0  0  0  0  0  0  0  0
  1  2  4  0  0  0  0
  1  6  4  0  0  0  0
  1 18  1  0  0  0  0
  2  3  4  0  0  0  0
  3  4  4  0  0  0  0
  3 25  1  0  0  0  0
  4  5  4  0  0  0  0
  4  7  4  0  0  0  0
  5  6  4  0  0  0  0
  5  9  4  0  0  0  0
  7  8  4  0  0  0  0
  7 26  1  0  0  0  0
  8  9  4  0  0  0  0
  9 10  1  0  0  0  0
 10 11  4  0  0  0  0
 10 15  4  0  0  0  0
 11 12  4  0  0  0  0
 11 27  1  0  0  0  0
 12 13  4  0  0  0  0
 12 28  1  0  0  0  0
 13 14  4  0  0  0  0
 13 16  1  0  0  0  0
 14 15  4  0  0  0  0
 14 29  1  0  0  0  0
 15 30  1  0  0  0  0
 16 17  1  0  0  0  0
 17 31  1  0  0  0  0
 17 32  1  0  0  0  0
 17 33  1  0  0  0  0
 18 19  1  0  0  0  0
 18 34  1  0  0  0  0
 19 20  1  0  0  0  0
 19 23  1  0  0  0  0
 19 35  1  0  0  0  0
 20 21  1  0  0  0  0
 20 36  1  0  0  0  0
 20 37  1  0  0  0  0
 21 22  1  0  0  0  0
 21 38  1  0  0  0  0
 21 39  1  0  0  0  0
 22 23  1  0  0  0  0
 22 24  1  0  0  0  0
 22 40  1  0  0  0  0
 23 41  1  0  0  0  0
 23 42  1  0  0  0  0
 24 43  1  0  0  0  0
 24 44  1  0  0  0  0
M  END
> <ConfClashScore>
0.00249356 

> <ConfOneFourInteractionScore>
-0.985399 

> <ConfScore>
0.212086 

> <ConfScorePBest>
0.00151404 

> <ConfTolerance>
0.810612 

$$$$
c22.sdf
 OpenBabel04162418103D

 44 47  0  0  0  0  0  0  0  0999 V2000
    1.9453   -0.6102    0.1256 C   0  0  0  1  0  0  0  0  0  0  0  0
    2.0363    0.7233    0.1482 N   0  0  0  1  0  0  0  0  0  0  0  0
    0.8946    1.4376    0.0881 C   0  0  0  1  0  0  0  0  0  0  0  0
   -0.3453    0.7386    0.0097 C   0  0  0  1  0  0  0  0  0  0  0  0
   -0.2528   -0.6477    0.0021 C   0  0  0  1  0  0  0  0  0  0  0  0
    0.8780   -1.3913    0.0539 N   0  0  0  1  0  0  0  0  0  0  0  0
   -1.7303    0.9921   -0.0538 C   0  0  0  1  0  0  0  0  0  0  0  0
   -2.4281   -0.1192   -0.1028 N   0  0  0  1  0  0  0  0  0  0  0  0
   -1.5125   -1.1341   -0.0681 N   0  0  0  1  0  0  0  0  0  0  0  0
   -1.8396   -2.5099   -0.1012 C   0  0  0  1  0  0  0  0  0  0  0  0
   -2.8719   -2.9555   -0.9047 C   0  0  0  1  0  0  0  0  0  0  0  0
   -3.1890   -4.3045   -0.9411 C   0  0  0  1  0  0  0  0  0  0  0  0
   -2.4763   -5.2031   -0.1698 C   0  0  0  1  0  0  0  0  0  0  0  0
   -1.4409   -4.7559    0.6361 C   0  0  0  1  0  0  0  0  0  0  0  0
   -1.1247   -3.4109    0.6725 C   0  0  0  1  0  0  0  0  0  0  0  0
   -2.8772   -6.4843   -0.2830 O   0  0  0  1  0  0  0  0  0  0  0  0
   -2.1426   -7.4296    0.5290 C   0  0  0  1  0  0  0  0  0  0  0  0
    3.1214   -1.2604    0.1849 N   0  0  0  1  0  0  0  0  0  0  0  0
    4.4240   -0.5889    0.2911 C   0  0  0  1  0  0  0  0  0  0  0  0
    4.5944    0.5034   -0.7949 C   0  0  0  1  0  0  0  0  0  0  0  0
    6.0929    0.8399   -0.8582 C   0  0  0  1  0  0  0  0  0  0  0  0
    6.5215   -0.6392   -0.9039 C   0  0  0  1  0  0  0  0  0  0  0  0
    5.5730   -1.5273   -0.0735 C   0  0  0  1  0  0  0  0  0  0  0  0
    7.9067   -0.7609   -0.3542 N   0  0  0  1  0  0  0  0  0  0  0  0
    0.9179    2.4773    0.0988 H   0  0  0  1  0  0  0  0  0  0  0  0
   -2.1490    1.9441   -0.0608 H   0  0  0  1  0  0  0  0  0  0  0  0
   -3.4109   -2.2789   -1.4820 H   0  0  0  1  0  0  0  0  0  0  0  0
   -3.9633   -4.6404   -1.5488 H   0  0  0  1  0  0  0  0  0  0  0  0
   -0.9020   -5.4325    1.2135 H   0  0  0  1  0  0  0  0  0  0  0  0
   -0.3505   -3.0749    1.2802 H   0  0  0  1  0  0  0  0  0  0  0  0
   -1.1225   -7.4598    0.2073 H   0  0  0  1  0  0  0  0  0  0  0  0
   -2.5777   -8.4016    0.4261 H   0  0  0  1  0  0  0  0  0  0  0  0
   -2.1840   -7.1264    1.5543 H   0  0  0  1  0  0  0  0  0  0  0  0
    3.1086   -2.2398    0.1556 H   0  0  0  1  0  0  0  0  0  0  0  0
    4.5397   -0.1876    1.2762 H   0  0  0  1  0  0  0  0  0  0  0  0
    4.0324    1.3749   -0.5313 H   0  0  0  1  0  0  0  0  0  0  0  0
    4.2596    0.1356   -1.7423 H   0  0  0  1  0  0  0  0  0  0  0  0
    6.4474    1.3564    0.0094 H   0  0  0  1  0  0  0  0  0  0  0  0
    6.3668    1.3869   -1.7362 H   0  0  0  1  0  0  0  0  0  0  0  0
    6.5100   -0.9733   -1.9203 H   0  0  0  1  0  0  0  0  0  0  0  0
    6.0627   -1.8902    0.8059 H   0  0  0  1  0  0  0  0  0  0  0  0
    5.2203   -2.3546   -0.6532 H   0  0  0  1  0  0  0  0  0  0  0  0
    8.4240    0.0371   -0.5910 H   0  0  0  1  0  0  0  0  0  0  0  0
    8.3396   -1.5546   -0.7326 H   0  0  0  1  0  0  0  0  0  0  0  0
  1  2  4  0  0  0  0
  1  6  4  0  0  0  0
  1 18  1  0  0  0  0
  2  3  4  0  0  0  0
  3  4  4  0  0  0  0
  3 25  1  0  0  0  0
  4  5  4  0  0  0  0
  4  7  4  0  0  0  0
  5  6  4  0  0  0  0
  5  9  4  0  0  0  0
  7  8  4  0  0  0  0
  7 26  1  0  0  0  0
  8  9  4  0  0  0  0
  9 10  1  0  0  0  0
 10 11  4  0  0  0  0
 10 15  4  0  0  0  0
 11 12  4  0  0  0  0
 11 27  1  0  0  0  0
 12 13  4  0  0  0  0
 12 28  1  0  0  0  0
 13 14  4  0  0  0  0
 13 16  1  0  0  0  0
 14 15  4  0  0  0  0
 14 29  1  0  0  0  0
 15 30  1  0  0  0  0
 16 17  1  0  0  0  0
 17 31  1  0  0  0  0
 17 32  1  0  0  0  0
 17 33  1  0  0  0  0
 18 19  1  0  0  0  0
 18 34  1  0  0  0  0
 19 20  1  0  0  0  0
 19 23  1  0  0  0  0
 19 35  1  0  0  0  0
 20 21  1  0  0  0  0
 20 36  1  0  0  0  0
 20 37  1  0  0  0  0
 21 22  1  0  0  0  0
 21 38  1  0  0  0  0
 21 39  1  0  0  0  0
 22 23  1  0  0  0  0
 22 24  1  0  0  0  0
 22 40  1  0  0  0  0
 23 41  1  0  0  0  0
 23 42  1  0  0  0  0
 24 43  1  0  0  0  0
 24 44  1  0  0  0  0
M  END
> <ConfClashScore>
0 

> <ConfOneFourInteractionScore>
-0.985399 

> <ConfScore>
0.229316 

> <ConfScorePBest>
0.00150071 

> <ConfTolerance>
0.949728 

$$$$
c22.sdf
 OpenBabel04162418103D

 44 47  0  0  0  0  0  0  0  0999 V2000
    1.9452   -0.6102    0.1255 C   0  0  0  1  0  0  0  0  0  0  0  0
    2.0363    0.7232    0.1481 N   0  0  0  1  0  0  0  0  0  0  0  0
    0.8946    1.4376    0.0881 C   0  0  0  1  0  0  0  0  0  0  0  0
   -0.3452    0.7386    0.0095 C   0  0  0  1  0  0  0  0  0  0  0  0
   -0.2528   -0.6477    0.0020 C   0  0  0  1  0  0  0  0  0  0  0  0
    0.8779   -1.3913    0.0539 N   0  0  0  1  0  0  0  0  0  0  0  0
   -1.7304    0.9921   -0.0538 C   0  0  0  1  0  0  0  0  0  0  0  0
   -2.4281   -0.1191   -0.1028 N   0  0  0  1  0  0  0  0  0  0  0  0
   -1.5125   -1.1342   -0.0681 N   0  0  0  1  0  0  0  0  0  0  0  0
   -1.8386   -2.5051   -0.1009 C   0  0  0  1  0  0  0  0  0  0  0  0
   -0.9765   -3.4822    0.3600 C   0  0  0  1  0  0  0  0  0  0  0  0
   -1.3503   -4.8161    0.3090 C   0  0  0  1  0  0  0  0  0  0  0  0
   -2.5825   -5.1694   -0.2077 C   0  0  0  1  0  0  0  0  0  0  0  0
   -3.4470   -4.1893   -0.6699 C   0  0  0  1  0  0  0  0  0  0  0  0
   -3.0744   -2.8593   -0.6191 C   0  0  0  1  0  0  0  0  0  0  0  0
   -3.0531   -6.4348   -0.3131 O   0  0  0  1  0  0  0  0  0  0  0  0
   -2.2004   -7.4929    0.1514 C   0  0  0  1  0  0  0  0  0  0  0  0
    3.1257   -1.2628    0.1851 N   0  0  0  1  0  0  0  0  0  0  0  0
    3.2508   -2.7252    0.2417 C   0  0  0  1  0  0  0  0  0  0  0  0
    2.5876   -3.3729   -0.9785 C   0  0  0  1  0  0  0  0  0  0  0  0
    1.9446   -4.6733   -0.4782 C   0  0  0  1  0  0  0  0  0  0  0  0
    2.2746   -4.7434    1.0155 C   0  0  0  1  0  0  0  0  0  0  0  0
    2.4875   -3.2837    1.4314 C   0  0  0  1  0  0  0  0  0  0  0  0
    3.5206   -5.5471    1.2458 N   0  0  0  1  0  0  0  0  0  0  0  0
    0.9179    2.4772    0.0987 H   0  0  0  1  0  0  0  0  0  0  0  0
   -2.1490    1.9441   -0.0608 H   0  0  0  1  0  0  0  0  0  0  0  0
   -0.0477   -3.2166    0.7451 H   0  0  0  1  0  0  0  0  0  0  0  0
   -0.7033   -5.5510    0.6596 H   0  0  0  1  0  0  0  0  0  0  0  0
   -4.3758   -4.4548   -1.0550 H   0  0  0  1  0  0  0  0  0  0  0  0
   -3.7214   -2.1243   -0.9696 H   0  0  0  1  0  0  0  0  0  0  0  0
   -1.5275   -7.7785   -0.6301 H   0  0  0  1  0  0  0  0  0  0  0  0
   -2.7979   -8.3348    0.4326 H   0  0  0  1  0  0  0  0  0  0  0  0
   -1.6404   -7.1538    0.9978 H   0  0  0  1  0  0  0  0  0  0  0  0
    3.9476   -0.7293    0.1910 H   0  0  0  1  0  0  0  0  0  0  0  0
    4.2852   -2.9933    0.2967 H   0  0  0  1  0  0  0  0  0  0  0  0
    3.3202   -3.5864   -1.7286 H   0  0  0  1  0  0  0  0  0  0  0  0
    1.8410   -2.7222   -1.3834 H   0  0  0  1  0  0  0  0  0  0  0  0
    0.8853   -4.6478   -0.6263 H   0  0  0  1  0  0  0  0  0  0  0  0
    2.3570   -5.5163   -0.9921 H   0  0  0  1  0  0  0  0  0  0  0  0
    1.4634   -5.1775    1.5618 H   0  0  0  1  0  0  0  0  0  0  0  0
    3.0643   -3.2157    2.3300 H   0  0  0  1  0  0  0  0  0  0  0  0
    1.5543   -2.7780    1.5668 H   0  0  0  1  0  0  0  0  0  0  0  0
    3.9795   -5.2172    2.0464 H   0  0  0  1  0  0  0  0  0  0  0  0
    4.1135   -5.4597    0.4704 H   0  0  0  1  0  0  0  0  0  0  0  0
  1  2  4  0  0  0  0
  1  6  4  0  0  0  0
  1 18  1  0  0  0  0
  2  3  4  0  0  0  0
  3  4  4  0  0  0  0
  3 25  1  0  0  0  0
  4  5  4  0  0  0  0
  4  7  4  0  0  0  0
  5  6  4  0  0  0  0
  5  9  4  0  0  0  0
  7  8  4  0  0  0  0
  7 26  1  0  0  0  0
  8  9  4  0  0  0  0
  9 10  1  0  0  0  0
 10 11  4  0  0  0  0
 10 15  4  0  0  0  0
 11 12  4  0  0  0  0
 11 27  1  0  0  0  0
 12 13  4  0  0  0  0
 12 28  1  0  0  0  0
 13 14  4  0  0  0  0
 13 16  1  0  0  0  0
 14 15  4  0  0  0  0
 14 29  1  0  0  0  0
 15 30  1  0  0  0  0
 16 17  1  0  0  0  0
 17 31  1  0  0  0  0
 17 32  1  0  0  0  0
 17 33  1  0  0  0  0
 18 19  1  0  0  0  0
 18 34  1  0  0  0  0
 19 20  1  0  0  0  0
 19 23  1  0  0  0  0
 19 35  1  0  0  0  0
 20 21  1  0  0  0  0
 20 36  1  0  0  0  0
 20 37  1  0  0  0  0
 21 22  1  0  0  0  0
 21 38  1  0  0  0  0
 21 39  1  0  0  0  0
 22 23  1  0  0  0  0
 22 24  1  0  0  0  0
 22 40  1  0  0  0  0
 23 41  1  0  0  0  0
 23 42  1  0  0  0  0
 24 43  1  0  0  0  0
 24 44  1  0  0  0  0
M  END
> <ConfClashScore>
0 

> <ConfOneFourInteractionScore>
-0.980204 

> <ConfScore>
0.26315 

> <ConfScorePBest>
0.00148738 

> <ConfTolerance>
0.649707 

$$$$
c22.sdf
 OpenBabel04162418103D

 44 47  0  0  0  0  0  0  0  0999 V2000
    1.9453   -0.6102    0.1257 C   0  0  0  1  0  0  0  0  0  0  0  0
    2.0363    0.7233    0.1482 N   0  0  0  1  0  0  0  0  0  0  0  0
    0.8946    1.4376    0.0881 C   0  0  0  1  0  0  0  0  0  0  0  0
   -0.3452    0.7387    0.0096 C   0  0  0  1  0  0  0  0  0  0  0  0
   -0.2528   -0.6477    0.0020 C   0  0  0  1  0  0  0  0  0  0  0  0
    0.8779   -1.3913    0.0540 N   0  0  0  1  0  0  0  0  0  0  0  0
   -1.7304    0.9921   -0.0538 C   0  0  0  1  0  0  0  0  0  0  0  0
   -2.4281   -0.1192   -0.1029 N   0  0  0  1  0  0  0  0  0  0  0  0
   -1.5125   -1.1341   -0.0681 N   0  0  0  1  0  0  0  0  0  0  0  0
   -1.8419   -2.5192   -0.1013 C   0  0  0  1  0  0  0  0  0  0  0  0
   -2.7382   -2.9940   -1.0400 C   0  0  0  1  0  0  0  0  0  0  0  0
   -3.0547   -4.3431   -1.0758 C   0  0  0  1  0  0  0  0  0  0  0  0
   -2.4780   -5.2126   -0.1694 C   0  0  0  1  0  0  0  0  0  0  0  0
   -1.5791   -4.7363    0.7722 C   0  0  0  1  0  0  0  0  0  0  0  0
   -1.2634   -3.3911    0.8079 C   0  0  0  1  0  0  0  0  0  0  0  0
   -2.7199   -6.5416   -0.2646 O   0  0  0  1  0  0  0  0  0  0  0  0
   -1.9219   -7.2887   -1.1960 C   0  0  0  1  0  0  0  0  0  0  0  0
    3.1257   -1.2629    0.1852 N   0  0  0  1  0  0  0  0  0  0  0  0
    3.2495   -2.7147    0.3427 C   0  0  0  1  0  0  0  0  0  0  0  0
    4.5743   -3.0898    1.0180 C   0  0  0  1  0  0  0  0  0  0  0  0
    4.9125   -4.5170    0.5995 C   0  0  0  1  0  0  0  0  0  0  0  0
    4.0432   -4.7660   -0.6820 C   0  0  0  1  0  0  0  0  0  0  0  0
    3.3738   -3.4278   -1.0455 C   0  0  0  1  0  0  0  0  0  0  0  0
    2.9971   -5.8040   -0.3997 N   0  0  0  1  0  0  0  0  0  0  0  0
    0.9178    2.4772    0.0988 H   0  0  0  1  0  0  0  0  0  0  0  0
   -2.1490    1.9440   -0.0609 H   0  0  0  1  0  0  0  0  0  0  0  0
   -3.1753   -2.3391   -1.7196 H   0  0  0  1  0  0  0  0  0  0  0  0
   -3.7262   -4.7010   -1.7849 H   0  0  0  1  0  0  0  0  0  0  0  0
   -1.1420   -5.3911    1.4518 H   0  0  0  1  0  0  0  0  0  0  0  0
   -0.5920   -3.0332    1.5169 H   0  0  0  1  0  0  0  0  0  0  0  0
   -1.1006   -7.7409   -0.6803 H   0  0  0  1  0  0  0  0  0  0  0  0
   -1.5488   -6.6312   -1.9532 H   0  0  0  1  0  0  0  0  0  0  0  0
   -2.5217   -8.0506   -1.6484 H   0  0  0  1  0  0  0  0  0  0  0  0
    3.9485   -0.7345    0.1193 H   0  0  0  1  0  0  0  0  0  0  0  0
    2.4128   -3.0866    0.8964 H   0  0  0  1  0  0  0  0  0  0  0  0
    4.4705   -3.0358    2.0817 H   0  0  0  1  0  0  0  0  0  0  0  0
    5.3481   -2.4227    0.7004 H   0  0  0  1  0  0  0  0  0  0  0  0
    5.9544   -4.6079    0.3733 H   0  0  0  1  0  0  0  0  0  0  0  0
    4.6532   -5.2095    1.3729 H   0  0  0  1  0  0  0  0  0  0  0  0
    4.6649   -5.0956   -1.4882 H   0  0  0  1  0  0  0  0  0  0  0  0
    3.9847   -2.8609   -1.7166 H   0  0  0  1  0  0  0  0  0  0  0  0
    2.4112   -3.5853   -1.4854 H   0  0  0  1  0  0  0  0  0  0  0  0
    2.4384   -5.9301   -1.1948 H   0  0  0  1  0  0  0  0  0  0  0  0
    2.4376   -5.5084    0.3488 H   0  0  0  1  0  0  0  0  0  0  0  0
  1  2  4  0  0  0  0
  1  6  4  0  0  0  0
  1 18  1  0  0  0  0
  2  3  4  0  0  0  0
  3  4  4  0  0  0  0
  3 25  1  0  0  0  0
  4  5  4  0  0  0  0
  4  7  4  0  0  0  0
  5  6  4  0  0  0  0
  5  9  4  0  0  0  0
  7  8  4  0  0  0  0
  7 26  1  0  0  0  0
  8  9  4  0  0  0  0
  9 10  1  0  0  0  0
 10 11  4  0  0  0  0
 10 15  4  0  0  0  0
 11 12  4  0  0  0  0
 11 27  1  0  0  0  0
 12 13  4  0  0  0  0
 12 28  1  0  0  0  0
 13 14  4  0  0  0  0
 13 16  1  0  0  0  0
 14 15  4  0  0  0  0
 14 29  1  0  0  0  0
 15 30  1  0  0  0  0
 16 17  1  0  0  0  0
 17 31  1  0  0  0  0
 17 32  1  0  0  0  0
 17 33  1  0  0  0  0
 18 19  1  0  0  0  0
 18 34  1  0  0  0  0
 19 20  1  0  0  0  0
 19 23  1  0  0  0  0
 19 35  1  0  0  0  0
 20 21  1  0  0  0  0
 20 36  1  0  0  0  0
 20 37  1  0  0  0  0
 21 22  1  0  0  0  0
 21 38  1  0  0  0  0
 21 39  1  0  0  0  0
 22 23  1  0  0  0  0
 22 24  1  0  0  0  0
 22 40  1  0  0  0  0
 23 41  1  0  0  0  0
 23 42  1  0  0  0  0
 24 43  1  0  0  0  0
 24 44  1  0  0  0  0
M  END
> <ConfClashScore>
0 

> <ConfOneFourInteractionScore>
-0.984337 

> <ConfScore>
0.319588 

> <ConfScorePBest>
0.00147405 

> <ConfTolerance>
0.979937 

$$$$
c22.sdf
 OpenBabel04162418103D

 44 47  0  0  0  0  0  0  0  0999 V2000
    1.9453   -0.6102    0.1256 C   0  0  0  1  0  0  0  0  0  0  0  0
    2.0363    0.7234    0.1482 N   0  0  0  1  0  0  0  0  0  0  0  0
    0.8946    1.4376    0.0881 C   0  0  0  1  0  0  0  0  0  0  0  0
   -0.3452    0.7387    0.0096 C   0  0  0  1  0  0  0  0  0  0  0  0
   -0.2528   -0.6477    0.0020 C   0  0  0  1  0  0  0  0  0  0  0  0
    0.8780   -1.3912    0.0539 N   0  0  0  1  0  0  0  0  0  0  0  0
   -1.7303    0.9921   -0.0538 C   0  0  0  1  0  0  0  0  0  0  0  0
   -2.4281   -0.1191   -0.1028 N   0  0  0  1  0  0  0  0  0  0  0  0
   -1.5126   -1.1342   -0.0681 N   0  0  0  1  0  0  0  0  0  0  0  0
   -1.8384   -2.5050   -0.1010 C   0  0  0  1  0  0  0  0  0  0  0  0
   -2.8993   -2.9299    0.6763 C   0  0  0  1  0  0  0  0  0  0  0  0
   -3.2660   -4.2667    0.6772 C   0  0  0  1  0  0  0  0  0  0  0  0
   -2.5676   -5.1757   -0.0949 C   0  0  0  1  0  0  0  0  0  0  0  0
   -1.5036   -4.7493   -0.8746 C   0  0  0  1  0  0  0  0  0  0  0  0
   -1.1378   -3.4165   -0.8756 C   0  0  0  1  0  0  0  0  0  0  0  0
   -2.8292   -6.5021   -0.1709 O   0  0  0  1  0  0  0  0  0  0  0  0
   -3.9533   -6.9930    0.5759 C   0  0  0  1  0  0  0  0  0  0  0  0
    3.1149   -1.2568    0.1846 N   0  0  0  1  0  0  0  0  0  0  0  0
    3.4757   -2.5455   -0.3931 C   0  0  0  1  0  0  0  0  0  0  0  0
    2.7322   -3.6938    0.3162 C   0  0  0  1  0  0  0  0  0  0  0  0
    3.6187   -4.9407    0.1508 C   0  0  0  1  0  0  0  0  0  0  0  0
    5.0347   -4.4320   -0.2412 C   0  0  0  1  0  0  0  0  0  0  0  0
    4.9861   -2.8705   -0.1352 C   0  0  0  1  0  0  0  0  0  0  0  0
    5.3622   -4.8430   -1.6304 N   0  0  0  1  0  0  0  0  0  0  0  0
    0.9179    2.4773    0.0988 H   0  0  0  1  0  0  0  0  0  0  0  0
   -2.1490    1.9441   -0.0608 H   0  0  0  1  0  0  0  0  0  0  0  0
   -3.4225   -2.2467    1.2605 H   0  0  0  1  0  0  0  0  0  0  0  0
   -4.0668   -4.5858    1.2590 H   0  0  0  1  0  0  0  0  0  0  0  0
   -0.9805   -5.4325   -1.4588 H   0  0  0  1  0  0  0  0  0  0  0  0
   -0.3370   -3.0974   -1.4574 H   0  0  0  1  0  0  0  0  0  0  0  0
   -3.6966   -7.9235    1.0376 H   0  0  0  1  0  0  0  0  0  0  0  0
   -4.7830   -7.1394   -0.0837 H   0  0  0  1  0  0  0  0  0  0  0  0
   -4.2181   -6.2819    1.3303 H   0  0  0  1  0  0  0  0  0  0  0  0
    3.8252   -0.8025    0.6839 H   0  0  0  1  0  0  0  0  0  0  0  0
    3.2596   -2.5402   -1.4410 H   0  0  0  1  0  0  0  0  0  0  0  0
    2.6007   -3.4664    1.3534 H   0  0  0  1  0  0  0  0  0  0  0  0
    1.7769   -3.8543   -0.1382 H   0  0  0  1  0  0  0  0  0  0  0  0
    3.2274   -5.5719   -0.6194 H   0  0  0  1  0  0  0  0  0  0  0  0
    3.6642   -5.4856    1.0706 H   0  0  0  1  0  0  0  0  0  0  0  0
    5.7687   -4.8261    0.4303 H   0  0  0  1  0  0  0  0  0  0  0  0
    5.2894   -2.5417    0.8367 H   0  0  0  1  0  0  0  0  0  0  0  0
    5.6091   -2.4155   -0.8768 H   0  0  0  1  0  0  0  0  0  0  0  0
    6.3101   -4.6694   -1.8081 H   0  0  0  1  0  0  0  0  0  0  0  0
    4.8127   -4.3313   -2.2603 H   0  0  0  1  0  0  0  0  0  0  0  0
  1  2  4  0  0  0  0
  1  6  4  0  0  0  0
  1 18  1  0  0  0  0
  2  3  4  0  0  0  0
  3  4  4  0  0  0  0
  3 25  1  0  0  0  0
  4  5  4  0  0  0  0
  4  7  4  0  0  0  0
  5  6  4  0  0  0  0
  5  9  4  0  0  0  0
  7  8  4  0  0  0  0
  7 26  1  0  0  0  0
  8  9  4  0  0  0  0
  9 10  1  0  0  0  0
 10 11  4  0  0  0  0
 10 15  4  0  0  0  0
 11 12  4  0  0  0  0
 11 27  1  0  0  0  0
 12 13  4  0  0  0  0
 12 28  1  0  0  0  0
 13 14  4  0  0  0  0
 13 16  1  0  0  0  0
 14 15  4  0  0  0  0
 14 29  1  0  0  0  0
 15 30  1  0  0  0  0
 16 17  1  0  0  0  0
 17 31  1  0  0  0  0
 17 32  1  0  0  0  0
 17 33  1  0  0  0  0
 18 19  1  0  0  0  0
 18 34  1  0  0  0  0
 19 20  1  0  0  0  0
 19 23  1  0  0  0  0
 19 35  1  0  0  0  0
 20 21  1  0  0  0  0
 20 36  1  0  0  0  0
 20 37  1  0  0  0  0
 21 22  1  0  0  0  0
 21 38  1  0  0  0  0
 21 39  1  0  0  0  0
 22 23  1  0  0  0  0
 22 24  1  0  0  0  0
 22 40  1  0  0  0  0
 23 41  1  0  0  0  0
 23 42  1  0  0  0  0
 24 43  1  0  0  0  0
 24 44  1  0  0  0  0
M  END
> <ConfClashScore>
0 

> <ConfOneFourInteractionScore>
-0.987888 

> <ConfScore>
0.347164 

> <ConfScorePBest>
0.00146072 

> <ConfTolerance>
1.04102 

$$$$
c22.sdf
 OpenBabel04162418103D

 44 47  0  0  0  0  0  0  0  0999 V2000
    1.9452   -0.6102    0.1257 C   0  0  0  1  0  0  0  0  0  0  0  0
    2.0363    0.7233    0.1482 N   0  0  0  1  0  0  0  0  0  0  0  0
    0.8946    1.4376    0.0881 C   0  0  0  1  0  0  0  0  0  0  0  0
   -0.3453    0.7386    0.0096 C   0  0  0  1  0  0  0  0  0  0  0  0
   -0.2528   -0.6478    0.0020 C   0  0  0  1  0  0  0  0  0  0  0  0
    0.8779   -1.3912    0.0540 N   0  0  0  1  0  0  0  0  0  0  0  0
   -1.7303    0.9921   -0.0538 C   0  0  0  1  0  0  0  0  0  0  0  0
   -2.4282   -0.1191   -0.1029 N   0  0  0  1  0  0  0  0  0  0  0  0
   -1.5126   -1.1342   -0.0681 N   0  0  0  1  0  0  0  0  0  0  0  0
   -1.8385   -2.5051   -0.1009 C   0  0  0  1  0  0  0  0  0  0  0  0
   -0.9268   -3.3665   -0.6816 C   0  0  0  1  0  0  0  0  0  0  0  0
   -1.1947   -4.7254   -0.7357 C   0  0  0  1  0  0  0  0  0  0  0  0
   -2.3758   -5.2184   -0.2139 C   0  0  0  1  0  0  0  0  0  0  0  0
   -3.2902   -4.3544    0.3683 C   0  0  0  1  0  0  0  0  0  0  0  0
   -3.0232   -2.9994    0.4224 C   0  0  0  1  0  0  0  0  0  0  0  0
   -2.5311   -6.5731   -0.3301 O   0  0  0  1  0  0  0  0  0  0  0  0
   -1.5666   -7.1711   -1.2102 C   0  0  0  1  0  0  0  0  0  0  0  0
    3.1135   -1.2561    0.1846 N   0  0  0  1  0  0  0  0  0  0  0  0
    4.4925   -0.7856    0.3236 C   0  0  0  1  0  0  0  0  0  0  0  0
    5.4228   -1.4676   -0.6879 C   0  0  0  1  0  0  0  0  0  0  0  0
    5.6737   -2.8542   -0.1083 C   0  0  0  1  0  0  0  0  0  0  0  0
    5.5638   -2.6856    1.4115 C   0  0  0  1  0  0  0  0  0  0  0  0
    5.1075   -1.2376    1.6508 C   0  0  0  1  0  0  0  0  0  0  0  0
    6.8864   -2.9226    2.0539 N   0  0  0  1  0  0  0  0  0  0  0  0
    0.9179    2.4773    0.0988 H   0  0  0  1  0  0  0  0  0  0  0  0
   -2.1490    1.9440   -0.0609 H   0  0  0  1  0  0  0  0  0  0  0  0
   -0.0399   -2.9950   -1.0776 H   0  0  0  1  0  0  0  0  0  0  0  0
   -0.5069   -5.3741   -1.1689 H   0  0  0  1  0  0  0  0  0  0  0  0
   -4.1772   -4.7257    0.7645 H   0  0  0  1  0  0  0  0  0  0  0  0
   -3.7110   -2.3506    0.8556 H   0  0  0  1  0  0  0  0  0  0  0  0
   -1.7729   -8.2164   -1.3089 H   0  0  0  1  0  0  0  0  0  0  0  0
   -0.5848   -7.0382   -0.8061 H   0  0  0  1  0  0  0  0  0  0  0  0
   -1.6234   -6.7042   -2.1713 H   0  0  0  1  0  0  0  0  0  0  0  0
    3.0313   -2.2307    0.1232 H   0  0  0  1  0  0  0  0  0  0  0  0
    4.5185    0.2794    0.2229 H   0  0  0  1  0  0  0  0  0  0  0  0
    6.3408   -0.9260   -0.7812 H   0  0  0  1  0  0  0  0  0  0  0  0
    4.9512   -1.5389   -1.6458 H   0  0  0  1  0  0  0  0  0  0  0  0
    4.9385   -3.5464   -0.4622 H   0  0  0  1  0  0  0  0  0  0  0  0
    6.6496   -3.2012   -0.3769 H   0  0  0  1  0  0  0  0  0  0  0  0
    4.8454   -3.3713    1.8097 H   0  0  0  1  0  0  0  0  0  0  0  0
    5.9419   -0.6191    1.9075 H   0  0  0  1  0  0  0  0  0  0  0  0
    4.3796   -1.1985    2.4340 H   0  0  0  1  0  0  0  0  0  0  0  0
    7.5276   -2.2513    1.7398 H   0  0  0  1  0  0  0  0  0  0  0  0
    7.2085   -3.8174    1.8174 H   0  0  0  1  0  0  0  0  0  0  0  0
  1  2  4  0  0  0  0
  1  6  4  0  0  0  0
  1 18  1  0  0  0  0
  2  3  4  0  0  0  0
  3  4  4  0  0  0  0
  3 25  1  0  0  0  0
  4  5  4  0  0  0  0
  4  7  4  0  0  0  0
  5  6  4  0  0  0  0
  5  9  4  0  0  0  0
  7  8  4  0  0  0  0
  7 26  1  0  0  0  0
  8  9  4  0  0  0  0
  9 10  1  0  0  0  0
 10 11  4  0  0  0  0
 10 15  4  0  0  0  0
 11 12  4  0  0  0  0
 11 27  1  0  0  0  0
 12 13  4  0  0  0  0
 12 28  1  0  0  0  0
 13 14  4  0  0  0  0
 13 16  1  0  0  0  0
 14 15  4  0  0  0  0
 14 29  1  0  0  0  0
 15 30  1  0  0  0  0
 16 17  1  0  0  0  0
 17 31  1  0  0  0  0
 17 32  1  0  0  0  0
 17 33  1  0  0  0  0
 18 19  1  0  0  0  0
 18 34  1  0  0  0  0
 19 20  1  0  0  0  0
 19 23  1  0  0  0  0
 19 35  1  0  0  0  0
 20 21  1  0  0  0  0
 20 36  1  0  0  0  0
 20 37  1  0  0  0  0
 21 22  1  0  0  0  0
 21 38  1  0  0  0  0
 21 39  1  0  0  0  0
 22 23  1  0  0  0  0
 22 24  1  0  0  0  0
 22 40  1  0  0  0  0
 23 41  1  0  0  0  0
 23 42  1  0  0  0  0
 24 43  1  0  0  0  0
 24 44  1  0  0  0  0
M  END
> <ConfClashScore>
0.00416815 

> <ConfOneFourInteractionScore>
-0.984337 

> <ConfScore>
0.347779 

> <ConfScorePBest>
0.0014474 

> <ConfTolerance>
1.26282 

$$$$
c22.sdf
 OpenBabel04162418103D

 44 47  0  0  0  0  0  0  0  0999 V2000
    1.9452   -0.6101    0.1256 C   0  0  0  1  0  0  0  0  0  0  0  0
    2.0362    0.7233    0.1482 N   0  0  0  1  0  0  0  0  0  0  0  0
    0.8946    1.4376    0.0881 C   0  0  0  1  0  0  0  0  0  0  0  0
   -0.3453    0.7386    0.0096 C   0  0  0  1  0  0  0  0  0  0  0  0
   -0.2528   -0.6478    0.0020 C   0  0  0  1  0  0  0  0  0  0  0  0
    0.8779   -1.3912    0.0539 N   0  0  0  1  0  0  0  0  0  0  0  0
   -1.7303    0.9921   -0.0538 C   0  0  0  1  0  0  0  0  0  0  0  0
   -2.4282   -0.1192   -0.1028 N   0  0  0  1  0  0  0  0  0  0  0  0
   -1.5125   -1.1341   -0.0681 N   0  0  0  1  0  0  0  0  0  0  0  0
   -1.8385   -2.5051   -0.1010 C   0  0  0  1  0  0  0  0  0  0  0  0
   -1.0916   -3.4267   -0.8100 C   0  0  0  1  0  0  0  0  0  0  0  0
   -1.4542   -4.7647   -0.8037 C   0  0  0  1  0  0  0  0  0  0  0  0
   -2.5658   -5.1761   -0.0929 C   0  0  0  1  0  0  0  0  0  0  0  0
   -3.3149   -4.2516    0.6181 C   0  0  0  1  0  0  0  0  0  0  0  0
   -2.9534   -2.9176    0.6120 C   0  0  0  1  0  0  0  0  0  0  0  0
   -3.0162   -6.4436   -0.0173 O   0  0  0  1  0  0  0  0  0  0  0  0
   -4.2819   -6.6038    0.6645 C   0  0  0  1  0  0  0  0  0  0  0  0
    3.1135   -1.2561    0.1845 N   0  0  0  1  0  0  0  0  0  0  0  0
    3.4489   -2.6788    0.2757 C   0  0  0  1  0  0  0  0  0  0  0  0
    2.7061   -3.4408   -0.8385 C   0  0  0  1  0  0  0  0  0  0  0  0
    2.7060   -4.7680   -0.0631 C   0  0  0  1  0  0  0  0  0  0  0  0
    2.2290   -4.4482    1.3763 C   0  0  0  1  0  0  0  0  0  0  0  0
    3.0552   -3.1981    1.6732 C   0  0  0  1  0  0  0  0  0  0  0  0
    2.5497   -5.5577    2.3219 N   0  0  0  1  0  0  0  0  0  0  0  0
    0.9179    2.4773    0.0988 H   0  0  0  1  0  0  0  0  0  0  0  0
   -2.1490    1.9440   -0.0608 H   0  0  0  1  0  0  0  0  0  0  0  0
   -0.2574   -3.1165   -1.3483 H   0  0  0  1  0  0  0  0  0  0  0  0
   -0.8898   -5.4588   -1.3340 H   0  0  0  1  0  0  0  0  0  0  0  0
   -4.1491   -4.5618    1.1564 H   0  0  0  1  0  0  0  0  0  0  0  0
   -3.5178   -2.2234    1.1423 H   0  0  0  1  0  0  0  0  0  0  0  0
   -5.0487   -6.0950    0.1185 H   0  0  0  1  0  0  0  0  0  0  0  0
   -4.2112   -6.1903    1.6489 H   0  0  0  1  0  0  0  0  0  0  0  0
   -4.5219   -7.6445    0.7305 H   0  0  0  1  0  0  0  0  0  0  0  0
    3.8949   -0.6650    0.1626 H   0  0  0  1  0  0  0  0  0  0  0  0
    4.5027   -2.8066    0.1414 H   0  0  0  1  0  0  0  0  0  0  0  0
    3.2538   -3.4874   -1.7565 H   0  0  0  1  0  0  0  0  0  0  0  0
    1.7236   -3.0614   -1.0277 H   0  0  0  1  0  0  0  0  0  0  0  0
    3.6928   -5.1808   -0.0403 H   0  0  0  1  0  0  0  0  0  0  0  0
    2.0381   -5.4643   -0.5258 H   0  0  0  1  0  0  0  0  0  0  0  0
    1.1792   -4.2442    1.4080 H   0  0  0  1  0  0  0  0  0  0  0  0
    3.9240   -3.4428    2.2479 H   0  0  0  1  0  0  0  0  0  0  0  0
    2.4719   -2.4717    2.1995 H   0  0  0  1  0  0  0  0  0  0  0  0
    2.3254   -5.2837    3.2358 H   0  0  0  1  0  0  0  0  0  0  0  0
    3.5060   -5.7656    2.2688 H   0  0  0  1  0  0  0  0  0  0  0  0
  1  2  4  0  0  0  0
  1  6  4  0  0  0  0
  1 18  1  0  0  0  0
  2  3  4  0  0  0  0
  3  4  4  0  0  0  0
  3 25  1  0  0  0  0
  4  5  4  0  0  0  0
  4  7  4  0  0  0  0
  5  6  4  0  0  0  0
  5  9  4  0  0  0  0
  7  8  4  0  0  0  0
  7 26  1  0  0  0  0
  8  9  4  0  0  0  0
  9 10  1  0  0  0  0
 10 11  4  0  0  0  0
 10 15  4  0  0  0  0
 11 12  4  0  0  0  0
 11 27  1  0  0  0  0
 12 13  4  0  0  0  0
 12 28  1  0  0  0  0
 13 14  4  0  0  0  0
 13 16  1  0  0  0  0
 14 15  4  0  0  0  0
 14 29  1  0  0  0  0
 15 30  1  0  0  0  0
 16 17  1  0  0  0  0
 17 31  1  0  0  0  0
 17 32  1  0  0  0  0
 17 33  1  0  0  0  0
 18 19  1  0  0  0  0
 18 34  1  0  0  0  0
 19 20  1  0  0  0  0
 19 23  1  0  0  0  0
 19 35  1  0  0  0  0
 20 21  1  0  0  0  0
 20 36  1  0  0  0  0
 20 37  1  0  0  0  0
 21 22  1  0  0  0  0
 21 38  1  0  0  0  0
 21 39  1  0  0  0  0
 22 23  1  0  0  0  0
 22 24  1  0  0  0  0
 22 40  1  0  0  0  0
 23 41  1  0  0  0  0
 23 42  1  0  0  0  0
 24 43  1  0  0  0  0
 24 44  1  0  0  0  0
M  END
> <ConfClashScore>
0.00375913 

> <ConfOneFourInteractionScore>
-0.982693 

> <ConfScore>
0.460494 

> <ConfScorePBest>
0.00143407 

> <ConfTolerance>
0.778292 

$$$$
c22.sdf
 OpenBabel04162418103D

 44 47  0  0  0  0  0  0  0  0999 V2000
    1.9452   -0.6102    0.1255 C   0  0  0  1  0  0  0  0  0  0  0  0
    2.0363    0.7233    0.1482 N   0  0  0  1  0  0  0  0  0  0  0  0
    0.8946    1.4375    0.0881 C   0  0  0  1  0  0  0  0  0  0  0  0
   -0.3453    0.7386    0.0095 C   0  0  0  1  0  0  0  0  0  0  0  0
   -0.2528   -0.6477    0.0020 C   0  0  0  1  0  0  0  0  0  0  0  0
    0.8779   -1.3912    0.0538 N   0  0  0  1  0  0  0  0  0  0  0  0
   -1.7304    0.9921   -0.0538 C   0  0  0  1  0  0  0  0  0  0  0  0
   -2.4282   -0.1191   -0.1028 N   0  0  0  1  0  0  0  0  0  0  0  0
   -1.5125   -1.1341   -0.0681 N   0  0  0  1  0  0  0  0  0  0  0  0
   -1.8369   -2.4984   -0.1009 C   0  0  0  1  0  0  0  0  0  0  0  0
   -2.6134   -2.8979   -1.1722 C   0  0  0  1  0  0  0  0  0  0  0  0
   -2.9852   -4.2270   -1.3011 C   0  0  0  1  0  0  0  0  0  0  0  0
   -2.5840   -5.1519   -0.3556 C   0  0  0  1  0  0  0  0  0  0  0  0
   -1.8052   -4.7510    0.7189 C   0  0  0  1  0  0  0  0  0  0  0  0
   -1.4344   -3.4258    0.8475 C   0  0  0  1  0  0  0  0  0  0  0  0
   -2.8885   -6.4713   -0.3729 O   0  0  0  1  0  0  0  0  0  0  0  0
   -3.6066   -6.9640   -1.5150 C   0  0  0  1  0  0  0  0  0  0  0  0
    3.1256   -1.2628    0.1851 N   0  0  0  1  0  0  0  0  0  0  0  0
    3.4302   -2.3111    1.1603 C   0  0  0  1  0  0  0  0  0  0  0  0
    3.1869   -1.7958    2.5803 C   0  0  0  1  0  0  0  0  0  0  0  0
    4.5585   -1.7071    3.2355 C   0  0  0  1  0  0  0  0  0  0  0  0
    5.5777   -1.6971    2.1044 C   0  0  0  1  0  0  0  0  0  0  0  0
    4.9404   -2.7030    1.0744 C   0  0  0  1  0  0  0  0  0  0  0  0
    6.9024   -2.1723    2.5704 N   0  0  0  1  0  0  0  0  0  0  0  0
    0.9178    2.4772    0.0987 H   0  0  0  1  0  0  0  0  0  0  0  0
   -2.1490    1.9440   -0.0608 H   0  0  0  1  0  0  0  0  0  0  0  0
   -2.9187   -2.2013   -1.8816 H   0  0  0  1  0  0  0  0  0  0  0  0
   -3.5660   -4.5284   -2.1094 H   0  0  0  1  0  0  0  0  0  0  0  0
   -1.4999   -5.4476    1.4283 H   0  0  0  1  0  0  0  0  0  0  0  0
   -0.8536   -3.1245    1.6558 H   0  0  0  1  0  0  0  0  0  0  0  0
   -4.6541   -6.9823   -1.2975 H   0  0  0  1  0  0  0  0  0  0  0  0
   -3.2732   -7.9541   -1.7457 H   0  0  0  1  0  0  0  0  0  0  0  0
   -3.4276   -6.3225   -2.3525 H   0  0  0  1  0  0  0  0  0  0  0  0
    3.8197   -1.0203   -0.4629 H   0  0  0  1  0  0  0  0  0  0  0  0
    2.8164   -3.1663    0.9688 H   0  0  0  1  0  0  0  0  0  0  0  0
    2.5606   -2.4751    3.1199 H   0  0  0  1  0  0  0  0  0  0  0  0
    2.7256   -0.8307    2.5515 H   0  0  0  1  0  0  0  0  0  0  0  0
    4.6359   -0.8081    3.8106 H   0  0  0  1  0  0  0  0  0  0  0  0
    4.7199   -2.5527    3.8709 H   0  0  0  1  0  0  0  0  0  0  0  0
    5.6776   -0.7196    1.6809 H   0  0  0  1  0  0  0  0  0  0  0  0
    5.0988   -3.7191    1.3698 H   0  0  0  1  0  0  0  0  0  0  0  0
    5.3286   -2.5529    0.0887 H   0  0  0  1  0  0  0  0  0  0  0  0
    6.8050   -3.0524    2.9904 H   0  0  0  1  0  0  0  0  0  0  0  0
    7.2659   -1.5378    3.2227 H   0  0  0  1  0  0  0  0  0  0  0  0
  1  2  4  0  0  0  0
  1  6  4  0  0  0  0
  1 18  1  0  0  0  0
  2  3  4  0  0  0  0
  3  4  4  0  0  0  0
  3 25  1  0  0  0  0
  4  5  4  0  0  0  0
  4  7  4  0  0  0  0
  5  6  4  0  0  0  0
  5  9  4  0  0  0  0
  7  8  4  0  0  0  0
  7 26  1  0  0  0  0
  8  9  4  0  0  0  0
  9 10  1  0  0  0  0
 10 11  4  0  0  0  0
 10 15  4  0  0  0  0
 11 12  4  0  0  0  0
 11 27  1  0  0  0  0
 12 13  4  0  0  0  0
 12 28  1  0  0  0  0
 13 14  4  0  0  0  0
 13 16  1  0  0  0  0
 14 15  4  0  0  0  0
 14 29  1  0  0  0  0
 15 30  1  0  0  0  0
 16 17  1  0  0  0  0
 17 31  1  0  0  0  0
 17 32  1  0  0  0  0
 17 33  1  0  0  0  0
 18 19  1  0  0  0  0
 18 34  1  0  0  0  0
 19 20  1  0  0  0  0
 19 23  1  0  0  0  0
 19 35  1  0  0  0  0
 20 21  1  0  0  0  0
 20 36  1  0  0  0  0
 20 37  1  0  0  0  0
 21 22  1  0  0  0  0
 21 38  1  0  0  0  0
 21 39  1  0  0  0  0
 22 23  1  0  0  0  0
 22 24  1  0  0  0  0
 22 40  1  0  0  0  0
 23 41  1  0  0  0  0
 23 42  1  0  0  0  0
 24 43  1  0  0  0  0
 24 44  1  0  0  0  0
M  END
> <ConfClashScore>
0 

> <ConfOneFourInteractionScore>
-0.981704 

> <ConfScore>
0.499479 

> <ConfScorePBest>
0.00142074 

> <ConfTolerance>
1.24839 

$$$$
c22.sdf
 OpenBabel04162418103D

 44 47  0  0  0  0  0  0  0  0999 V2000
    1.9452   -0.6102    0.1256 C   0  0  0  1  0  0  0  0  0  0  0  0
    2.0363    0.7234    0.1482 N   0  0  0  1  0  0  0  0  0  0  0  0
    0.8946    1.4375    0.0881 C   0  0  0  1  0  0  0  0  0  0  0  0
   -0.3453    0.7386    0.0096 C   0  0  0  1  0  0  0  0  0  0  0  0
   -0.2528   -0.6477    0.0021 C   0  0  0  1  0  0  0  0  0  0  0  0
    0.8779   -1.3912    0.0539 N   0  0  0  1  0  0  0  0  0  0  0  0
   -1.7304    0.9921   -0.0538 C   0  0  0  1  0  0  0  0  0  0  0  0
   -2.4281   -0.1191   -0.1028 N   0  0  0  1  0  0  0  0  0  0  0  0
   -1.5125   -1.1341   -0.0681 N   0  0  0  1  0  0  0  0  0  0  0  0
   -1.8396   -2.5099   -0.1011 C   0  0  0  1  0  0  0  0  0  0  0  0
   -2.6809   -3.0433    0.8570 C   0  0  0  1  0  0  0  0  0  0  0  0
   -3.0056   -4.3904    0.8216 C   0  0  0  1  0  0  0  0  0  0  0  0
   -2.4841   -5.2013   -0.1688 C   0  0  0  1  0  0  0  0  0  0  0  0
   -1.6404   -4.6662   -1.1297 C   0  0  0  1  0  0  0  0  0  0  0  0
   -1.3165   -3.3230   -1.0944 C   0  0  0  1  0  0  0  0  0  0  0  0
   -2.7248   -6.5272   -0.3019 O   0  0  0  1  0  0  0  0  0  0  0  0
   -3.6373   -7.1255    0.6319 C   0  0  0  1  0  0  0  0  0  0  0  0
    3.1214   -1.2604    0.1850 N   0  0  0  1  0  0  0  0  0  0  0  0
    4.3489   -0.6830    0.7496 C   0  0  0  1  0  0  0  0  0  0  0  0
    4.1039   -0.2199    2.1895 C   0  0  0  1  0  0  0  0  0  0  0  0
    4.9351    1.0448    2.3295 C   0  0  0  1  0  0  0  0  0  0  0  0
    4.7207    1.7181    0.9695 C   0  0  0  1  0  0  0  0  0  0  0  0
    4.7600    0.5672   -0.0398 C   0  0  0  1  0  0  0  0  0  0  0  0
    5.8144    2.7064    0.6891 N   0  0  0  1  0  0  0  0  0  0  0  0
    0.9178    2.4772    0.0988 H   0  0  0  1  0  0  0  0  0  0  0  0
   -2.1490    1.9441   -0.0608 H   0  0  0  1  0  0  0  0  0  0  0  0
   -3.0701   -2.4340    1.6046 H   0  0  0  1  0  0  0  0  0  0  0  0
   -3.6418   -4.7909    1.5402 H   0  0  0  1  0  0  0  0  0  0  0  0
   -1.2512   -5.2754   -1.8773 H   0  0  0  1  0  0  0  0  0  0  0  0
   -0.6803   -2.9224   -1.8130 H   0  0  0  1  0  0  0  0  0  0  0  0
   -4.6067   -6.6881    0.5142 H   0  0  0  1  0  0  0  0  0  0  0  0
   -3.2886   -6.9562    1.6292 H   0  0  0  1  0  0  0  0  0  0  0  0
   -3.6964   -8.1779    0.4480 H   0  0  0  1  0  0  0  0  0  0  0  0
    3.1618   -2.1732   -0.1694 H   0  0  0  1  0  0  0  0  0  0  0  0
    5.1316   -1.4121    0.7229 H   0  0  0  1  0  0  0  0  0  0  0  0
    4.4281   -0.9643    2.8864 H   0  0  0  1  0  0  0  0  0  0  0  0
    3.0667   -0.0100    2.3478 H   0  0  0  1  0  0  0  0  0  0  0  0
    5.9676    0.8156    2.4912 H   0  0  0  1  0  0  0  0  0  0  0  0
    4.5761    1.6595    3.1284 H   0  0  0  1  0  0  0  0  0  0  0  0
    3.7737    2.2152    0.9390 H   0  0  0  1  0  0  0  0  0  0  0  0
    4.0725    0.7474   -0.8395 H   0  0  0  1  0  0  0  0  0  0  0  0
    5.7469    0.4512   -0.4365 H   0  0  0  1  0  0  0  0  0  0  0  0
    5.4906    3.3823    0.0576 H   0  0  0  1  0  0  0  0  0  0  0  0
    6.5843    2.2400    0.3016 H   0  0  0  1  0  0  0  0  0  0  0  0
  1  2  4  0  0  0  0
  1  6  4  0  0  0  0
  1 18  1  0  0  0  0
  2  3  4  0  0  0  0
  3  4  4  0  0  0  0
  3 25  1  0  0  0  0
  4  5  4  0  0  0  0
  4  7  4  0  0  0  0
  5  6  4  0  0  0  0
  5  9  4  0  0  0  0
  7  8  4  0  0  0  0
  7 26  1  0  0  0  0
  8  9  4  0  0  0  0
  9 10  1  0  0  0  0
 10 11  4  0  0  0  0
 10 15  4  0  0  0  0
 11 12  4  0  0  0  0
 11 27  1  0  0  0  0
 12 13  4  0  0  0  0
 12 28  1  0  0  0  0
 13 14  4  0  0  0  0
 13 16  1  0  0  0  0
 14 15  4  0  0  0  0
 14 29  1  0  0  0  0
 15 30  1  0  0  0  0
 16 17  1  0  0  0  0
 17 31  1  0  0  0  0
 17 32  1  0  0  0  0
 17 33  1  0  0  0  0
 18 19  1  0  0  0  0
 18 34  1  0  0  0  0
 19 20  1  0  0  0  0
 19 23  1  0  0  0  0
 19 35  1  0  0  0  0
 20 21  1  0  0  0  0
 20 36  1  0  0  0  0
 20 37  1  0  0  0  0
 21 22  1  0  0  0  0
 21 38  1  0  0  0  0
 21 39  1  0  0  0  0
 22 23  1  0  0  0  0
 22 24  1  0  0  0  0
 22 40  1  0  0  0  0
 23 41  1  0  0  0  0
 23 42  1  0  0  0  0
 24 43  1  0  0  0  0
 24 44  1  0  0  0  0
M  END
> <ConfClashScore>
0 

> <ConfOneFourInteractionScore>
-0.980204 

> <ConfScore>
0.509269 

> <ConfScorePBest>
0.00140741 

> <ConfTolerance>
0.669494 

$$$$
c22.sdf
 OpenBabel04162418103D

 44 47  0  0  0  0  0  0  0  0999 V2000
    1.9452   -0.6103    0.1255 C   0  0  0  1  0  0  0  0  0  0  0  0
    2.0363    0.7233    0.1481 N   0  0  0  1  0  0  0  0  0  0  0  0
    0.8946    1.4376    0.0881 C   0  0  0  1  0  0  0  0  0  0  0  0
   -0.3453    0.7386    0.0097 C   0  0  0  1  0  0  0  0  0  0  0  0
   -0.2528   -0.6478    0.0020 C   0  0  0  1  0  0  0  0  0  0  0  0
    0.8779   -1.3913    0.0539 N   0  0  0  1  0  0  0  0  0  0  0  0
   -1.7304    0.9921   -0.0538 C   0  0  0  1  0  0  0  0  0  0  0  0
   -2.4281   -0.1191   -0.1029 N   0  0  0  1  0  0  0  0  0  0  0  0
   -1.5126   -1.1342   -0.0681 N   0  0  0  1  0  0  0  0  0  0  0  0
   -1.8370   -2.4985   -0.1008 C   0  0  0  1  0  0  0  0  0  0  0  0
   -1.6067   -3.1912    1.0728 C   0  0  0  1  0  0  0  0  0  0  0  0
   -1.8987   -4.5441    1.1474 C   0  0  0  1  0  0  0  0  0  0  0  0
   -2.4150   -5.2017    0.0468 C   0  0  0  1  0  0  0  0  0  0  0  0
   -2.6458   -4.5068   -1.1301 C   0  0  0  1  0  0  0  0  0  0  0  0
   -2.3548   -3.1578   -1.2049 C   0  0  0  1  0  0  0  0  0  0  0  0
   -2.7829   -6.5009    0.1509 O   0  0  0  1  0  0  0  0  0  0  0  0
   -2.6640   -7.1150    1.4436 C   0  0  0  1  0  0  0  0  0  0  0  0
    3.1147   -1.2568    0.1846 N   0  0  0  1  0  0  0  0  0  0  0  0
    4.4386   -0.6485    0.3395 C   0  0  0  1  0  0  0  0  0  0  0  0
    4.3615    0.5410    1.2617 C   0  0  0  1  0  0  0  0  0  0  0  0
    4.5364    1.7824    0.4252 C   0  0  0  1  0  0  0  0  0  0  0  0
    4.4396    1.3364   -1.0254 C   0  0  0  1  0  0  0  0  0  0  0  0
    4.9351   -0.1202   -0.9974 C   0  0  0  1  0  0  0  0  0  0  0  0
    5.3076    2.1740   -1.8957 N   0  0  0  1  0  0  0  0  0  0  0  0
    0.9178    2.4772    0.0988 H   0  0  0  1  0  0  0  0  0  0  0  0
   -2.1490    1.9440   -0.0607 H   0  0  0  1  0  0  0  0  0  0  0  0
   -1.2145   -2.6973    1.8997 H   0  0  0  1  0  0  0  0  0  0  0  0
   -1.7293   -5.0646    2.0318 H   0  0  0  1  0  0  0  0  0  0  0  0
   -3.0381   -5.0006   -1.9572 H   0  0  0  1  0  0  0  0  0  0  0  0
   -2.5242   -2.6374   -2.0891 H   0  0  0  1  0  0  0  0  0  0  0  0
   -1.6762   -6.9589    1.8238 H   0  0  0  1  0  0  0  0  0  0  0  0
   -2.8511   -8.1651    1.3579 H   0  0  0  1  0  0  0  0  0  0  0  0
   -3.3764   -6.6787    2.1123 H   0  0  0  1  0  0  0  0  0  0  0  0
    3.0829   -2.2340    0.1175 H   0  0  0  1  0  0  0  0  0  0  0  0
    5.1221   -1.3744    0.7277 H   0  0  0  1  0  0  0  0  0  0  0  0
    3.4097    0.5620    1.7500 H   0  0  0  1  0  0  0  0  0  0  0  0
    5.1383    0.4839    1.9953 H   0  0  0  1  0  0  0  0  0  0  0  0
    5.4923    2.2246    0.6139 H   0  0  0  1  0  0  0  0  0  0  0  0
    3.7653    2.4903    0.6473 H   0  0  0  1  0  0  0  0  0  0  0  0
    3.4290    1.3882   -1.3730 H   0  0  0  1  0  0  0  0  0  0  0  0
    6.0031   -0.1602   -1.0497 H   0  0  0  1  0  0  0  0  0  0  0  0
    4.5165   -0.6804   -1.8072 H   0  0  0  1  0  0  0  0  0  0  0  0
    5.2156    3.1157   -1.6403 H   0  0  0  1  0  0  0  0  0  0  0  0
    5.0376    2.0616   -2.8311 H   0  0  0  1  0  0  0  0  0  0  0  0
  1  2  4  0  0  0  0
  1  6  4  0  0  0  0
  1 18  1  0  0  0  0
  2  3  4  0  0  0  0
  3  4  4  0  0  0  0
  3 25  1  0  0  0  0
  4  5  4  0  0  0  0
  4  7  4  0  0  0  0
  5  6  4  0  0  0  0
  5  9  4  0  0  0  0
  7  8  4  0  0  0  0
  7 26  1  0  0  0  0
  8  9  4  0  0  0  0
  9 10  1  0  0  0  0
 10 11  4  0  0  0  0
 10 15  4  0  0  0  0
 11 12  4  0  0  0  0
 11 27  1  0  0  0  0
 12 13  4  0  0  0  0
 12 28  1  0  0  0  0
 13 14  4  0  0  0  0
 13 16  1  0  0  0  0
 14 15  4  0  0  0  0
 14 29  1  0  0  0  0
 15 30  1  0  0  0  0
 16 17  1  0  0  0  0
 17 31  1  0  0  0  0
 17 32  1  0  0  0  0
 17 33  1  0  0  0  0
 18 19  1  0  0  0  0
 18 34  1  0  0  0  0
 19 20  1  0  0  0  0
 19 23  1  0  0  0  0
 19 35  1  0  0  0  0
 20 21  1  0  0  0  0
 20 36  1  0  0  0  0
 20 37  1  0  0  0  0
 21 22  1  0  0  0  0
 21 38  1  0  0  0  0
 21 39  1  0  0  0  0
 22 23  1  0  0  0  0
 22 24  1  0  0  0  0
 22 40  1  0  0  0  0
 23 41  1  0  0  0  0
 23 42  1  0  0  0  0
 24 43  1  0  0  0  0
 24 44  1  0  0  0  0
M  END
> <ConfClashScore>
0.00431929 

> <ConfOneFourInteractionScore>
-0.982693 

> <ConfScore>
0.635448 

> <ConfScorePBest>
0.00139408 

> <ConfTolerance>
1.11698 

$$$$
c22.sdf
 OpenBabel04162418103D

 44 47  0  0  0  0  0  0  0  0999 V2000
    1.9452   -0.6103    0.1256 C   0  0  0  1  0  0  0  0  0  0  0  0
    2.0363    0.7233    0.1482 N   0  0  0  1  0  0  0  0  0  0  0  0
    0.8946    1.4376    0.0881 C   0  0  0  1  0  0  0  0  0  0  0  0
   -0.3452    0.7386    0.0096 C   0  0  0  1  0  0  0  0  0  0  0  0
   -0.2528   -0.6477    0.0020 C   0  0  0  1  0  0  0  0  0  0  0  0
    0.8780   -1.3913    0.0540 N   0  0  0  1  0  0  0  0  0  0  0  0
   -1.7303    0.9921   -0.0538 C   0  0  0  1  0  0  0  0  0  0  0  0
   -2.4282   -0.1191   -0.1028 N   0  0  0  1  0  0  0  0  0  0  0  0
   -1.5126   -1.1342   -0.0681 N   0  0  0  1  0  0  0  0  0  0  0  0
   -1.8418   -2.5192   -0.1013 C   0  0  0  1  0  0  0  0  0  0  0  0
   -1.4441   -3.3489    0.9300 C   0  0  0  1  0  0  0  0  0  0  0  0
   -1.7693   -4.6961    0.9002 C   0  0  0  1  0  0  0  0  0  0  0  0
   -2.4867   -5.2107   -0.1632 C   0  0  0  1  0  0  0  0  0  0  0  0
   -2.8855   -4.3783   -1.1975 C   0  0  0  1  0  0  0  0  0  0  0  0
   -2.5613   -3.0351   -1.1679 C   0  0  0  1  0  0  0  0  0  0  0  0
   -2.7390   -6.5318   -0.0856 O   0  0  0  1  0  0  0  0  0  0  0  0
   -3.3508   -7.1083   -1.2628 C   0  0  0  1  0  0  0  0  0  0  0  0
    3.1257   -1.2628    0.1852 N   0  0  0  1  0  0  0  0  0  0  0  0
    4.0633   -1.3600   -0.9374 C   0  0  0  1  0  0  0  0  0  0  0  0
    4.2534   -0.0135   -1.6162 C   0  0  0  1  0  0  0  0  0  0  0  0
    3.0176    0.1448   -2.5082 C   0  0  0  1  0  0  0  0  0  0  0  0
    2.5109   -1.2747   -2.7961 C   0  0  0  1  0  0  0  0  0  0  0  0
    3.4849   -2.2099   -2.0740 C   0  0  0  1  0  0  0  0  0  0  0  0
    2.5201   -1.5400   -4.2407 N   0  0  0  1  0  0  0  0  0  0  0  0
    0.9179    2.4772    0.0988 H   0  0  0  1  0  0  0  0  0  0  0  0
   -2.1490    1.9441   -0.0609 H   0  0  0  1  0  0  0  0  0  0  0  0
   -0.9009   -2.9626    1.7282 H   0  0  0  1  0  0  0  0  0  0  0  0
   -1.4735   -5.3197    1.6782 H   0  0  0  1  0  0  0  0  0  0  0  0
   -3.4289   -4.7647   -1.9957 H   0  0  0  1  0  0  0  0  0  0  0  0
   -2.8572   -2.4115   -1.9459 H   0  0  0  1  0  0  0  0  0  0  0  0
   -3.7178   -8.0865   -1.0319 H   0  0  0  1  0  0  0  0  0  0  0  0
   -2.6242   -7.1758   -2.0453 H   0  0  0  1  0  0  0  0  0  0  0  0
   -4.1630   -6.4891   -1.5820 H   0  0  0  1  0  0  0  0  0  0  0  0
    3.3702   -1.6974    1.0289 H   0  0  0  1  0  0  0  0  0  0  0  0
    4.9951   -1.7560   -0.5913 H   0  0  0  1  0  0  0  0  0  0  0  0
    4.2996    0.7721   -0.8911 H   0  0  0  1  0  0  0  0  0  0  0  0
    5.1472   -0.0095   -2.2044 H   0  0  0  1  0  0  0  0  0  0  0  0
    3.2802    0.6369   -3.4212 H   0  0  0  1  0  0  0  0  0  0  0  0
    2.2646    0.7112   -2.0009 H   0  0  0  1  0  0  0  0  0  0  0  0
    1.5189   -1.4021   -2.4159 H   0  0  0  1  0  0  0  0  0  0  0  0
    2.9705   -3.0632   -1.6837 H   0  0  0  1  0  0  0  0  0  0  0  0
    4.2604   -2.5328   -2.7368 H   0  0  0  1  0  0  0  0  0  0  0  0
    3.4182   -1.8194   -4.5163 H   0  0  0  1  0  0  0  0  0  0  0  0
    2.2692   -0.7251   -4.7239 H   0  0  0  1  0  0  0  0  0  0  0  0
  1  2  4  0  0  0  0
  1  6  4  0  0  0  0
  1 18  1  0  0  0  0
  2  3  4  0  0  0  0
  3  4  4  0  0  0  0
  3 25  1  0  0  0  0
  4  5  4  0  0  0  0
  4  7  4  0  0  0  0
  5  6  4  0  0  0  0
  5  9  4  0  0  0  0
  7  8  4  0  0  0  0
  7 26  1  0  0  0  0
  8  9  4  0  0  0  0
  9 10  1  0  0  0  0
 10 11  4  0  0  0  0
 10 15  4  0  0  0  0
 11 12  4  0  0  0  0
 11 27  1  0  0  0  0
 12 13  4  0  0  0  0
 12 28  1  0  0  0  0
 13 14  4  0  0  0  0
 13 16  1  0  0  0  0
 14 15  4  0  0  0  0
 14 29  1  0  0  0  0
 15 30  1  0  0  0  0
 16 17  1  0  0  0  0
 17 31  1  0  0  0  0
 17 32  1  0  0  0  0
 17 33  1  0  0  0  0
 18 19  1  0  0  0  0
 18 34  1  0  0  0  0
 19 20  1  0  0  0  0
 19 23  1  0  0  0  0
 19 35  1  0  0  0  0
 20 21  1  0  0  0  0
 20 36  1  0  0  0  0
 20 37  1  0  0  0  0
 21 22  1  0  0  0  0
 21 38  1  0  0  0  0
 21 39  1  0  0  0  0
 22 23  1  0  0  0  0
 22 24  1  0  0  0  0
 22 40  1  0  0  0  0
 23 41  1  0  0  0  0
 23 42  1  0  0  0  0
 24 43  1  0  0  0  0
 24 44  1  0  0  0  0
M  END
> <ConfClashScore>
0 

> <ConfOneFourInteractionScore>
-0.978099 

> <ConfScore>
0.63817 

> <ConfScorePBest>
0.00138075 

> <ConfTolerance>
1.20847 

$$$$
c22.sdf
 OpenBabel04162418103D

 44 47  0  0  0  0  0  0  0  0999 V2000
    1.9452   -0.6102    0.1256 C   0  0  0  1  0  0  0  0  0  0  0  0
    2.0363    0.7233    0.1481 N   0  0  0  1  0  0  0  0  0  0  0  0
    0.8946    1.4376    0.0881 C   0  0  0  1  0  0  0  0  0  0  0  0
   -0.3452    0.7386    0.0096 C   0  0  0  1  0  0  0  0  0  0  0  0
   -0.2528   -0.6477    0.0020 C   0  0  0  1  0  0  0  0  0  0  0  0
    0.8780   -1.3913    0.0539 N   0  0  0  1  0  0  0  0  0  0  0  0
   -1.7304    0.9921   -0.0538 C   0  0  0  1  0  0  0  0  0  0  0  0
   -2.4281   -0.1191   -0.1028 N   0  0  0  1  0  0  0  0  0  0  0  0
   -1.5125   -1.1341   -0.0681 N   0  0  0  1  0  0  0  0  0  0  0  0
   -1.8415   -2.5177   -0.1013 C   0  0  0  1  0  0  0  0  0  0  0  0
   -0.9241   -3.4347   -0.5782 C   0  0  0  1  0  0  0  0  0  0  0  0
   -1.2427   -4.7835   -0.6056 C   0  0  0  1  0  0  0  0  0  0  0  0
   -2.4797   -5.2107   -0.1609 C   0  0  0  1  0  0  0  0  0  0  0  0
   -3.3997   -4.2907    0.3174 C   0  0  0  1  0  0  0  0  0  0  0  0
   -3.0822   -2.9459    0.3447 C   0  0  0  1  0  0  0  0  0  0  0  0
   -2.7929   -6.5278   -0.1926 O   0  0  0  1  0  0  0  0  0  0  0  0
   -1.8705   -7.4058   -0.8565 C   0  0  0  1  0  0  0  0  0  0  0  0
    3.1213   -1.2604    0.1849 N   0  0  0  1  0  0  0  0  0  0  0  0
    3.5710   -2.0291    1.3465 C   0  0  0  1  0  0  0  0  0  0  0  0
    2.4062   -2.7735    2.0119 C   0  0  0  1  0  0  0  0  0  0  0  0
    1.6697   -1.7046    2.8098 C   0  0  0  1  0  0  0  0  0  0  0  0
    2.7393   -0.6763    3.1957 C   0  0  0  1  0  0  0  0  0  0  0  0
    4.0295   -1.1105    2.4824 C   0  0  0  1  0  0  0  0  0  0  0  0
    2.9398   -0.6717    4.6552 N   0  0  0  1  0  0  0  0  0  0  0  0
    0.9179    2.4773    0.0989 H   0  0  0  1  0  0  0  0  0  0  0  0
   -2.1490    1.9441   -0.0608 H   0  0  0  1  0  0  0  0  0  0  0  0
    0.0051   -3.1129   -0.9166 H   0  0  0  1  0  0  0  0  0  0  0  0
   -0.5509   -5.4741   -0.9607 H   0  0  0  1  0  0  0  0  0  0  0  0
   -4.3291   -4.6125    0.6558 H   0  0  0  1  0  0  0  0  0  0  0  0
   -3.7739   -2.2552    0.6999 H   0  0  0  1  0  0  0  0  0  0  0  0
   -1.7332   -7.0818   -1.8670 H   0  0  0  1  0  0  0  0  0  0  0  0
   -2.2605   -8.4023   -0.8516 H   0  0  0  1  0  0  0  0  0  0  0  0
   -0.9305   -7.3878   -0.3456 H   0  0  0  1  0  0  0  0  0  0  0  0
    3.7120   -1.2169   -0.5959 H   0  0  0  1  0  0  0  0  0  0  0  0
    4.3478   -2.7026    1.0502 H   0  0  0  1  0  0  0  0  0  0  0  0
    1.7623   -3.2036    1.2734 H   0  0  0  1  0  0  0  0  0  0  0  0
    2.7712   -3.5432    2.6595 H   0  0  0  1  0  0  0  0  0  0  0  0
    0.9099   -1.2476    2.2109 H   0  0  0  1  0  0  0  0  0  0  0  0
    1.2263   -2.1303    3.6856 H   0  0  0  1  0  0  0  0  0  0  0  0
    2.4477    0.3010    2.8723 H   0  0  0  1  0  0  0  0  0  0  0  0
    4.5462   -0.2593    2.0909 H   0  0  0  1  0  0  0  0  0  0  0  0
    4.6709   -1.6390    3.1563 H   0  0  0  1  0  0  0  0  0  0  0  0
    3.8682   -0.4316    4.8570 H   0  0  0  1  0  0  0  0  0  0  0  0
    2.7479   -1.5634    5.0137 H   0  0  0  1  0  0  0  0  0  0  0  0
  1  2  4  0  0  0  0
  1  6  4  0  0  0  0
  1 18  1  0  0  0  0
  2  3  4  0  0  0  0
  3  4  4  0  0  0  0
  3 25  1  0  0  0  0
  4  5  4  0  0  0  0
  4  7  4  0  0  0  0
  5  6  4  0  0  0  0
  5  9  4  0  0  0  0
  7  8  4  0  0  0  0
  7 26  1  0  0  0  0
  8  9  4  0  0  0  0
  9 10  1  0  0  0  0
 10 11  4  0  0  0  0
 10 15  4  0  0  0  0
 11 12  4  0  0  0  0
 11 27  1  0  0  0  0
 12 13  4  0  0  0  0
 12 28  1  0  0  0  0
 13 14  4  0  0  0  0
 13 16  1  0  0  0  0
 14 15  4  0  0  0  0
 14 29  1  0  0  0  0
 15 30  1  0  0  0  0
 16 17  1  0  0  0  0
 17 31  1  0  0  0  0
 17 32  1  0  0  0  0
 17 33  1  0  0  0  0
 18 19  1  0  0  0  0
 18 34  1  0  0  0  0
 19 20  1  0  0  0  0
 19 23  1  0  0  0  0
 19 35  1  0  0  0  0
 20 21  1  0  0  0  0
 20 36  1  0  0  0  0
 20 37  1  0  0  0  0
 21 22  1  0  0  0  0
 21 38  1  0  0  0  0
 21 39  1  0  0  0  0
 22 23  1  0  0  0  0
 22 24  1  0  0  0  0
 22 40  1  0  0  0  0
 23 41  1  0  0  0  0
 23 42  1  0  0  0  0
 24 43  1  0  0  0  0
 24 44  1  0  0  0  0
M  END
> <ConfClashScore>
0 

> <ConfOneFourInteractionScore>
-0.980588 

> <ConfScore>
0.68171 

> <ConfScorePBest>
0.00136743 

> <ConfTolerance>
1.06913 

$$$$
c22.sdf
 OpenBabel04162418103D

 44 47  0  0  0  0  0  0  0  0999 V2000
    1.9452   -0.6102    0.1255 C   0  0  0  1  0  0  0  0  0  0  0  0
    2.0364    0.7233    0.1481 N   0  0  0  1  0  0  0  0  0  0  0  0
    0.8946    1.4375    0.0881 C   0  0  0  1  0  0  0  0  0  0  0  0
   -0.3452    0.7386    0.0096 C   0  0  0  1  0  0  0  0  0  0  0  0
   -0.2528   -0.6478    0.0020 C   0  0  0  1  0  0  0  0  0  0  0  0
    0.8779   -1.3912    0.0539 N   0  0  0  1  0  0  0  0  0  0  0  0
   -1.7303    0.9921   -0.0538 C   0  0  0  1  0  0  0  0  0  0  0  0
   -2.4281   -0.1192   -0.1028 N   0  0  0  1  0  0  0  0  0  0  0  0
   -1.5125   -1.1342   -0.0681 N   0  0  0  1  0  0  0  0  0  0  0  0
   -1.8385   -2.5051   -0.1009 C   0  0  0  1  0  0  0  0  0  0  0  0
   -2.6378   -3.0525   -1.0866 C   0  0  0  1  0  0  0  0  0  0  0  0
   -2.9226   -4.4090   -1.0740 C   0  0  0  1  0  0  0  0  0  0  0  0
   -2.4117   -5.2133   -0.0726 C   0  0  0  1  0  0  0  0  0  0  0  0
   -1.6101   -4.6641    0.9159 C   0  0  0  1  0  0  0  0  0  0  0  0
   -1.3260   -3.3116    0.9034 C   0  0  0  1  0  0  0  0  0  0  0  0
   -2.7614   -6.5185   -0.1613 O   0  0  0  1  0  0  0  0  0  0  0  0
   -3.9831   -6.8252   -0.8514 C   0  0  0  1  0  0  0  0  0  0  0  0
    3.1214   -1.2604    0.1849 N   0  0  0  1  0  0  0  0  0  0  0  0
    3.5183   -2.6184   -0.2017 C   0  0  0  1  0  0  0  0  0  0  0  0
    3.2528   -2.8502   -1.6953 C   0  0  0  1  0  0  0  0  0  0  0  0
    2.2690   -4.0221   -1.7794 C   0  0  0  1  0  0  0  0  0  0  0  0
    2.4790   -4.7891   -0.4842 C   0  0  0  1  0  0  0  0  0  0  0  0
    2.6620   -3.6553    0.5306 C   0  0  0  1  0  0  0  0  0  0  0  0
    3.6936   -5.6536   -0.5567 N   0  0  0  1  0  0  0  0  0  0  0  0
    0.9179    2.4772    0.0987 H   0  0  0  1  0  0  0  0  0  0  0  0
   -2.1490    1.9441   -0.0608 H   0  0  0  1  0  0  0  0  0  0  0  0
   -3.0255   -2.4467   -1.8378 H   0  0  0  1  0  0  0  0  0  0  0  0
   -3.5207   -4.8217   -1.8179 H   0  0  0  1  0  0  0  0  0  0  0  0
   -1.2224   -5.2699    1.6671 H   0  0  0  1  0  0  0  0  0  0  0  0
   -0.7279   -2.8987    1.6473 H   0  0  0  1  0  0  0  0  0  0  0  0
   -4.8169   -6.5255   -0.2518 H   0  0  0  1  0  0  0  0  0  0  0  0
   -4.0350   -7.8783   -1.0333 H   0  0  0  1  0  0  0  0  0  0  0  0
   -4.0072   -6.3002   -1.7834 H   0  0  0  1  0  0  0  0  0  0  0  0
    3.8524   -0.7245    0.5576 H   0  0  0  1  0  0  0  0  0  0  0  0
    4.5546   -2.7648    0.0209 H   0  0  0  1  0  0  0  0  0  0  0  0
    4.1640   -3.0945   -2.2002 H   0  0  0  1  0  0  0  0  0  0  0  0
    2.8242   -1.9742   -2.1357 H   0  0  0  1  0  0  0  0  0  0  0  0
    1.2623   -3.6663   -1.8491 H   0  0  0  1  0  0  0  0  0  0  0  0
    2.4887   -4.6402   -2.6246 H   0  0  0  1  0  0  0  0  0  0  0  0
    1.6263   -5.3903   -0.2459 H   0  0  0  1  0  0  0  0  0  0  0  0
    3.1643   -4.0096    1.4065 H   0  0  0  1  0  0  0  0  0  0  0  0
    1.7160   -3.2379    0.8056 H   0  0  0  1  0  0  0  0  0  0  0  0
    3.9096   -5.9899    0.3382 H   0  0  0  1  0  0  0  0  0  0  0  0
    4.4474   -5.1293   -0.8990 H   0  0  0  1  0  0  0  0  0  0  0  0
  1  2  4  0  0  0  0
  1  6  4  0  0  0  0
  1 18  1  0  0  0  0
  2  3  4  0  0  0  0
  3  4  4  0  0  0  0
  3 25  1  0  0  0  0
  4  5  4  0  0  0  0
  4  7  4  0  0  0  0
  5  6  4  0  0  0  0
  5  9  4  0  0  0  0
  7  8  4  0  0  0  0
  7 26  1  0  0  0  0
  8  9  4  0  0  0  0
  9 10  1  0  0  0  0
 10 11  4  0  0  0  0
 10 15  4  0  0  0  0
 11 12  4  0  0  0  0
 11 27  1  0  0  0  0
 12 13  4  0  0  0  0
 12 28  1  0  0  0  0
 13 14  4  0  0  0  0
 13 16  1  0  0  0  0
 14 15  4  0  0  0  0
 14 29  1  0  0  0  0
 15 30  1  0  0  0  0
 16 17  1  0  0  0  0
 17 31  1  0  0  0  0
 17 32  1  0  0  0  0
 17 33  1  0  0  0  0
 18 19  1  0  0  0  0
 18 34  1  0  0  0  0
 19 20  1  0  0  0  0
 19 23  1  0  0  0  0
 19 35  1  0  0  0  0
 20 21  1  0  0  0  0
 20 36  1  0  0  0  0
 20 37  1  0  0  0  0
 21 22  1  0  0  0  0
 21 38  1  0  0  0  0
 21 39  1  0  0  0  0
 22 23  1  0  0  0  0
 22 24  1  0  0  0  0
 22 40  1  0  0  0  0
 23 41  1  0  0  0  0
 23 42  1  0  0  0  0
 24 43  1  0  0  0  0
 24 44  1  0  0  0  0
M  END
> <ConfClashScore>
0.00325378 

> <ConfOneFourInteractionScore>
-0.982693 

> <ConfScore>
1.09005 

> <ConfScorePBest>
0.0013541 

> <ConfTolerance>
1.04547 

$$$$
c22.sdf
 OpenBabel04162418103D

 44 47  0  0  0  0  0  0  0  0999 V2000
    1.9453   -0.6101    0.1256 C   0  0  0  1  0  0  0  0  0  0  0  0
    2.0363    0.7233    0.1482 N   0  0  0  1  0  0  0  0  0  0  0  0
    0.8946    1.4376    0.0881 C   0  0  0  1  0  0  0  0  0  0  0  0
   -0.3453    0.7386    0.0096 C   0  0  0  1  0  0  0  0  0  0  0  0
   -0.2528   -0.6478    0.0020 C   0  0  0  1  0  0  0  0  0  0  0  0
    0.8780   -1.3912    0.0539 N   0  0  0  1  0  0  0  0  0  0  0  0
   -1.7303    0.9921   -0.0538 C   0  0  0  1  0  0  0  0  0  0  0  0
   -2.4281   -0.1192   -0.1029 N   0  0  0  1  0  0  0  0  0  0  0  0
   -1.5125   -1.1342   -0.0681 N   0  0  0  1  0  0  0  0  0  0  0  0
   -1.8418   -2.5193   -0.1013 C   0  0  0  1  0  0  0  0  0  0  0  0
   -1.1032   -3.3865   -0.8839 C   0  0  0  1  0  0  0  0  0  0  0  0
   -1.4204   -4.7355   -0.9121 C   0  0  0  1  0  0  0  0  0  0  0  0
   -2.4787   -5.2126   -0.1619 C   0  0  0  1  0  0  0  0  0  0  0  0
   -3.2195   -4.3426    0.6229 C   0  0  0  1  0  0  0  0  0  0  0  0
   -2.9032   -2.9974    0.6511 C   0  0  0  1  0  0  0  0  0  0  0  0
   -2.9173   -6.4914   -0.0840 O   0  0  0  1  0  0  0  0  0  0  0  0
   -2.2676   -7.4602   -0.9218 C   0  0  0  1  0  0  0  0  0  0  0  0
    3.1213   -1.2604    0.1849 N   0  0  0  1  0  0  0  0  0  0  0  0
    4.4808   -0.7032    0.2089 C   0  0  0  1  0  0  0  0  0  0  0  0
    5.2612   -1.2700    1.3967 C   0  0  0  1  0  0  0  0  0  0  0  0
    5.4780   -0.1039    2.3515 C   0  0  0  1  0  0  0  0  0  0  0  0
    4.4557    0.9594    1.9738 C   0  0  0  1  0  0  0  0  0  0  0  0
    4.4234    0.8461    0.4039 C   0  0  0  1  0  0  0  0  0  0  0  0
    4.9004    2.3170    2.4097 N   0  0  0  1  0  0  0  0  0  0  0  0
    0.9178    2.4773    0.0988 H   0  0  0  1  0  0  0  0  0  0  0  0
   -2.1490    1.9441   -0.0608 H   0  0  0  1  0  0  0  0  0  0  0  0
   -0.3093   -3.0269   -1.4515 H   0  0  0  1  0  0  0  0  0  0  0  0
   -0.8620   -5.3889   -1.4978 H   0  0  0  1  0  0  0  0  0  0  0  0
   -4.0132   -4.7021    1.1906 H   0  0  0  1  0  0  0  0  0  0  0  0
   -3.4616   -2.3441    1.2368 H   0  0  0  1  0  0  0  0  0  0  0  0
   -2.3012   -8.4200   -0.4503 H   0  0  0  1  0  0  0  0  0  0  0  0
   -1.2480   -7.1733   -1.0737 H   0  0  0  1  0  0  0  0  0  0  0  0
   -2.7693   -7.5089   -1.8656 H   0  0  0  1  0  0  0  0  0  0  0  0
    3.0637   -2.2381    0.2164 H   0  0  0  1  0  0  0  0  0  0  0  0
    4.9804   -0.9408   -0.7070 H   0  0  0  1  0  0  0  0  0  0  0  0
    4.6982   -2.0433    1.8763 H   0  0  0  1  0  0  0  0  0  0  0  0
    6.2015   -1.6628    1.0702 H   0  0  0  1  0  0  0  0  0  0  0  0
    6.4700    0.2823    2.2438 H   0  0  0  1  0  0  0  0  0  0  0  0
    5.3257   -0.4206    3.3621 H   0  0  0  1  0  0  0  0  0  0  0  0
    3.4973    0.7442    2.3982 H   0  0  0  1  0  0  0  0  0  0  0  0
    3.5228    1.2588   -0.0003 H   0  0  0  1  0  0  0  0  0  0  0  0
    5.2685    1.3285   -0.0413 H   0  0  0  1  0  0  0  0  0  0  0  0
    4.1602    2.9514    2.3098 H   0  0  0  1  0  0  0  0  0  0  0  0
    5.6555    2.6065    1.8562 H   0  0  0  1  0  0  0  0  0  0  0  0
  1  2  4  0  0  0  0
  1  6  4  0  0  0  0
  1 18  1  0  0  0  0
  2  3  4  0  0  0  0
  3  4  4  0  0  0  0
  3 25  1  0  0  0  0
  4  5  4  0  0  0  0
  4  7  4  0  0  0  0
  5  6  4  0  0  0  0
  5  9  4  0  0  0  0
  7  8  4  0  0  0  0
  7 26  1  0  0  0  0
  8  9  4  0  0  0  0
  9 10  1  0  0  0  0
 10 11  4  0  0  0  0
 10 15  4  0  0  0  0
 11 12  4  0  0  0  0
 11 27  1  0  0  0  0
 12 13  4  0  0  0  0
 12 28  1  0  0  0  0
 13 14  4  0  0  0  0
 13 16  1  0  0  0  0
 14 15  4  0  0  0  0
 14 29  1  0  0  0  0
 15 30  1  0  0  0  0
 16 17  1  0  0  0  0
 17 31  1  0  0  0  0
 17 32  1  0  0  0  0
 17 33  1  0  0  0  0
 18 19  1  0  0  0  0
 18 34  1  0  0  0  0
 19 20  1  0  0  0  0
 19 23  1  0  0  0  0
 19 35  1  0  0  0  0
 20 21  1  0  0  0  0
 20 36  1  0  0  0  0
 20 37  1  0  0  0  0
 21 22  1  0  0  0  0
 21 38  1  0  0  0  0
 21 39  1  0  0  0  0
 22 23  1  0  0  0  0
 22 24  1  0  0  0  0
 22 40  1  0  0  0  0
 23 41  1  0  0  0  0
 23 42  1  0  0  0  0
 24 43  1  0  0  0  0
 24 44  1  0  0  0  0
M  END
> <ConfClashScore>
0.0204357 

> <ConfOneFourInteractionScore>
-0.978454 

> <ConfScore>
2.21515 

> <ConfScorePBest>
0.00134077 

> <ConfTolerance>
2.4118 

$$$$
