c22.sdf
 OpenBabel04162418103D

 44 47  0  0  0  0  0  0  0  0999 V2000
    3.3191    0.7347    0.6845 C   0  0  0  1  0  0  0  0  0  0  0  0
    3.9414    1.8571    0.3102 N   0  0  0  1  0  0  0  0  0  0  0  0
    3.7043    2.9795    1.0182 C   0  0  0  1  0  0  0  0  0  0  0  0
    2.8115    2.9118    2.1273 C   0  0  0  1  0  0  0  0  0  0  0  0
    2.2578    1.6620    2.3762 C   0  0  0  1  0  0  0  0  0  0  0  0
    2.4712    0.5206    1.6792 N   0  0  0  1  0  0  0  0  0  0  0  0
    2.2717    3.7350    3.1361 C   0  0  0  1  0  0  0  0  0  0  0  0
    1.4611    3.0703    3.9268 N   0  0  0  1  0  0  0  0  0  0  0  0
    1.4531    1.7866    3.4557 N   0  0  0  1  0  0  0  0  0  0  0  0
    0.7055    0.7334    4.0203 C   0  0  0  1  0  0  0  0  0  0  0  0
   -0.6695    0.7823    3.8897 C   0  0  0  1  0  0  0  0  0  0  0  0
   -1.4525   -0.2304    4.4215 C   0  0  0  1  0  0  0  0  0  0  0  0
   -0.8587   -1.2862    5.0871 C   0  0  0  1  0  0  0  0  0  0  0  0
    0.5205   -1.3350    5.2181 C   0  0  0  1  0  0  0  0  0  0  0  0
    1.3013   -0.3253    4.6879 C   0  0  0  1  0  0  0  0  0  0  0  0
   -1.5180   -2.3262    5.6506 O   0  0  0  1  0  0  0  0  0  0  0  0
   -2.9532   -2.2878    5.6191 C   0  0  0  1  0  0  0  0  0  0  0  0
    3.5976   -0.3461   -0.0664 N   0  0  0  1  0  0  0  0  0  0  0  0
    4.5001   -0.3285   -1.2186 C   0  0  0  1  0  0  0  0  0  0  0  0
    3.7112   -0.2244   -2.5200 C   0  0  0  1  0  0  0  0  0  0  0  0
    3.6326   -1.6321   -3.1234 C   0  0  0  1  0  0  0  0  0  0  0  0
    5.0353   -2.2251   -2.7603 C   0  0  0  1  0  0  0  0  0  0  0  0
    5.2742   -1.6874   -1.3373 C   0  0  0  1  0  0  0  0  0  0  0  0
    6.0872   -1.7367   -3.7042 N   0  0  0  1  0  0  0  0  0  0  0  0
    4.1635    3.8763    0.7605 H   0  0  0  1  0  0  0  0  0  0  0  0
    2.4891    4.7466    3.2414 H   0  0  0  1  0  0  0  0  0  0  0  0
   -1.1167    1.5787    3.3923 H   0  0  0  1  0  0  0  0  0  0  0  0
   -2.4869   -0.1957    4.3197 H   0  0  0  1  0  0  0  0  0  0  0  0
    0.9677   -2.1314    5.7154 H   0  0  0  1  0  0  0  0  0  0  0  0
    2.3358   -0.3599    4.7896 H   0  0  0  1  0  0  0  0  0  0  0  0
   -3.2949   -1.3615    6.0316 H   0  0  0  1  0  0  0  0  0  0  0  0
   -3.3442   -3.1003    6.1953 H   0  0  0  1  0  0  0  0  0  0  0  0
   -3.2900   -2.3730    4.6071 H   0  0  0  1  0  0  0  0  0  0  0  0
    3.1709   -1.1955    0.1720 H   0  0  0  1  0  0  0  0  0  0  0  0
    5.1838    0.4892   -1.1244 H   0  0  0  1  0  0  0  0  0  0  0  0
    4.2099    0.4365   -3.1978 H   0  0  0  1  0  0  0  0  0  0  0  0
    2.7263    0.1437   -2.3218 H   0  0  0  1  0  0  0  0  0  0  0  0
    2.8436   -2.2016   -2.6784 H   0  0  0  1  0  0  0  0  0  0  0  0
    3.4907   -1.5925   -4.1832 H   0  0  0  1  0  0  0  0  0  0  0  0
    5.0157   -3.2949   -2.7699 H   0  0  0  1  0  0  0  0  0  0  0  0
    6.3200   -1.5287   -1.1763 H   0  0  0  1  0  0  0  0  0  0  0  0
    4.9034   -2.3846   -0.6151 H   0  0  0  1  0  0  0  0  0  0  0  0
    6.9363   -2.1852   -3.5082 H   0  0  0  1  0  0  0  0  0  0  0  0
    6.1972   -0.7687   -3.5978 H   0  0  0  1  0  0  0  0  0  0  0  0
  1  2  4  0  0  0  0
  1  6  4  0  0  0  0
  1 18  1  0  0  0  0
  2  3  4  0  0  0  0
  3  4  4  0  0  0  0
  3 25  1  0  0  0  0
  4  5  4  0  0  0  0
  4  7  4  0  0  0  0
  5  6  4  0  0  0  0
  5  9  4  0  0  0  0
  7  8  4  0  0  0  0
  7 26  1  0  0  0  0
  8  9  4  0  0  0  0
  9 10  1  0  0  0  0
 10 11  4  0  0  0  0
 10 15  4  0  0  0  0
 11 12  4  0  0  0  0
 11 27  1  0  0  0  0
 12 13  4  0  0  0  0
 12 28  1  0  0  0  0
 13 14  4  0  0  0  0
 13 16  1  0  0  0  0
 14 15  4  0  0  0  0
 14 29  1  0  0  0  0
 15 30  1  0  0  0  0
 16 17  1  0  0  0  0
 17 31  1  0  0  0  0
 17 32  1  0  0  0  0
 17 33  1  0  0  0  0
 18 19  1  0  0  0  0
 18 34  1  0  0  0  0
 19 20  1  0  0  0  0
 19 23  1  0  0  0  0
 19 35  1  0  0  0  0
 20 21  1  0  0  0  0
 20 36  1  0  0  0  0
 20 37  1  0  0  0  0
 21 22  1  0  0  0  0
 21 38  1  0  0  0  0
 21 39  1  0  0  0  0
 22 23  1  0  0  0  0
 22 24  1  0  0  0  0
 22 40  1  0  0  0  0
 23 41  1  0  0  0  0
 23 42  1  0  0  0  0
 24 43  1  0  0  0  0
 24 44  1  0  0  0  0
M  END
> <ConfClashScore>
0 

> <ConfOneFourInteractionScore>
-0.984337 

> <ConfScore>
-0.134924 

> <ConfScorePBest>
0.0053259 

> <ConfTolerance>
0.279313 

$$$$
c22.sdf
 OpenBabel04162418103D

 44 47  0  0  0  0  0  0  0  0999 V2000
    3.2688    0.5173    0.8711 C   0  0  0  1  0  0  0  0  0  0  0  0
    2.7809    0.1948    2.0732 N   0  0  0  1  0  0  0  0  0  0  0  0
    2.1846    1.1640    2.7960 C   0  0  0  1  0  0  0  0  0  0  0  0
    2.1002    2.4749    2.2426 C   0  0  0  1  0  0  0  0  0  0  0  0
    2.6562    2.6295    0.9787 C   0  0  0  1  0  0  0  0  0  0  0  0
    3.2668    1.6780    0.2331 N   0  0  0  1  0  0  0  0  0  0  0  0
    1.5980    3.7539    2.5570 C   0  0  0  1  0  0  0  0  0  0  0  0
    1.8232    4.6171    1.5935 N   0  0  0  1  0  0  0  0  0  0  0  0
    2.4784    3.9200    0.6164 N   0  0  0  1  0  0  0  0  0  0  0  0
    2.9123    4.4752   -0.6100 C   0  0  0  1  0  0  0  0  0  0  0  0
    3.7040    5.6080   -0.6140 C   0  0  0  1  0  0  0  0  0  0  0  0
    4.1337    6.1489   -1.8158 C   0  0  0  1  0  0  0  0  0  0  0  0
    3.7661    5.5586   -3.0102 C   0  0  0  1  0  0  0  0  0  0  0  0
    2.9720    4.4223   -3.0060 C   0  0  0  1  0  0  0  0  0  0  0  0
    2.5435    3.8829   -1.8078 C   0  0  0  1  0  0  0  0  0  0  0  0
    4.1193    5.9978   -4.2415 O   0  0  0  1  0  0  0  0  0  0  0  0
    4.6779    7.3178   -4.3321 C   0  0  0  1  0  0  0  0  0  0  0  0
    3.8649   -0.5153    0.1923 N   0  0  0  1  0  0  0  0  0  0  0  0
    4.3958   -0.3415   -1.1483 C   0  0  0  1  0  0  0  0  0  0  0  0
    3.2918   -0.5098   -2.1848 C   0  0  0  1  0  0  0  0  0  0  0  0
    3.9985   -1.0946   -3.4145 C   0  0  0  1  0  0  0  0  0  0  0  0
    4.9468   -2.1058   -2.7645 C   0  0  0  1  0  0  0  0  0  0  0  0
    5.4213   -1.4362   -1.4651 C   0  0  0  1  0  0  0  0  0  0  0  0
    6.1082   -2.3878   -3.6631 N   0  0  0  1  0  0  0  0  0  0  0  0
    1.7943    0.9595    3.7380 H   0  0  0  1  0  0  0  0  0  0  0  0
    1.1082    3.9858    3.4447 H   0  0  0  1  0  0  0  0  0  0  0  0
    3.9774    6.0546    0.2846 H   0  0  0  1  0  0  0  0  0  0  0  0
    4.7328    6.9990   -1.8187 H   0  0  0  1  0  0  0  0  0  0  0  0
    2.6987    3.9757   -3.9046 H   0  0  0  1  0  0  0  0  0  0  0  0
    1.9444    3.0328   -1.8049 H   0  0  0  1  0  0  0  0  0  0  0  0
    3.9248    8.0411   -4.0987 H   0  0  0  1  0  0  0  0  0  0  0  0
    5.0372    7.4853   -5.3259 H   0  0  0  1  0  0  0  0  0  0  0  0
    5.4879    7.4103   -3.6391 H   0  0  0  1  0  0  0  0  0  0  0  0
    3.9341   -1.3928    0.6231 H   0  0  0  1  0  0  0  0  0  0  0  0
    4.8437    0.6266   -1.2323 H   0  0  0  1  0  0  0  0  0  0  0  0
    2.5385   -1.1808   -1.8280 H   0  0  0  1  0  0  0  0  0  0  0  0
    2.8470    0.4347   -2.4190 H   0  0  0  1  0  0  0  0  0  0  0  0
    3.3052   -1.5753   -4.0726 H   0  0  0  1  0  0  0  0  0  0  0  0
    4.5372   -0.3418   -3.9512 H   0  0  0  1  0  0  0  0  0  0  0  0
    4.4316   -3.0186   -2.5495 H   0  0  0  1  0  0  0  0  0  0  0  0
    6.3917   -1.0067   -1.6023 H   0  0  0  1  0  0  0  0  0  0  0  0
    5.4567   -2.1521   -0.6707 H   0  0  0  1  0  0  0  0  0  0  0  0
    6.7741   -2.9200   -3.1797 H   0  0  0  1  0  0  0  0  0  0  0  0
    6.5119   -1.5421   -3.9499 H   0  0  0  1  0  0  0  0  0  0  0  0
  1  2  4  0  0  0  0
  1  6  4  0  0  0  0
  1 18  1  0  0  0  0
  2  3  4  0  0  0  0
  3  4  4  0  0  0  0
  3 25  1  0  0  0  0
  4  5  4  0  0  0  0
  4  7  4  0  0  0  0
  5  6  4  0  0  0  0
  5  9  4  0  0  0  0
  7  8  4  0  0  0  0
  7 26  1  0  0  0  0
  8  9  4  0  0  0  0
  9 10  1  0  0  0  0
 10 11  4  0  0  0  0
 10 15  4  0  0  0  0
 11 12  4  0  0  0  0
 11 27  1  0  0  0  0
 12 13  4  0  0  0  0
 12 28  1  0  0  0  0
 13 14  4  0  0  0  0
 13 16  1  0  0  0  0
 14 15  4  0  0  0  0
 14 29  1  0  0  0  0
 15 30  1  0  0  0  0
 16 17  1  0  0  0  0
 17 31  1  0  0  0  0
 17 32  1  0  0  0  0
 17 33  1  0  0  0  0
 18 19  1  0  0  0  0
 18 34  1  0  0  0  0
 19 20  1  0  0  0  0
 19 23  1  0  0  0  0
 19 35  1  0  0  0  0
 20 21  1  0  0  0  0
 20 36  1  0  0  0  0
 20 37  1  0  0  0  0
 21 22  1  0  0  0  0
 21 38  1  0  0  0  0
 21 39  1  0  0  0  0
 22 23  1  0  0  0  0
 22 24  1  0  0  0  0
 22 40  1  0  0  0  0
 23 41  1  0  0  0  0
 23 42  1  0  0  0  0
 24 43  1  0  0  0  0
 24 44  1  0  0  0  0
M  END
> <ConfClashScore>
0 

> <ConfOneFourInteractionScore>
-0.984337 

> <ConfScore>
-0.134924 

> <ConfScorePBest>
0.00531257 

> <ConfTolerance>
0.249236 

$$$$
c22.sdf
 OpenBabel04162418103D

 44 47  0  0  0  0  0  0  0  0999 V2000
    2.9342   -0.5182    0.9887 C   0  0  0  1  0  0  0  0  0  0  0  0
    2.2322   -1.3005    1.8146 N   0  0  0  1  0  0  0  0  0  0  0  0
    1.6102   -0.7208    2.8608 C   0  0  0  1  0  0  0  0  0  0  0  0
    1.7273    0.6898    3.0291 C   0  0  0  1  0  0  0  0  0  0  0  0
    2.4922    1.3465    2.0729 C   0  0  0  1  0  0  0  0  0  0  0  0
    3.1335    0.7909    1.0174 N   0  0  0  1  0  0  0  0  0  0  0  0
    1.2901    1.7190    3.8872 C   0  0  0  1  0  0  0  0  0  0  0  0
    1.7406    2.8933    3.5099 N   0  0  0  1  0  0  0  0  0  0  0  0
    2.4847    2.6619    2.3863 N   0  0  0  1  0  0  0  0  0  0  0  0
    3.1618    3.6718    1.6449 C   0  0  0  1  0  0  0  0  0  0  0  0
    2.8765    3.8535    0.3048 C   0  0  0  1  0  0  0  0  0  0  0  0
    3.5317    4.8400   -0.4155 C   0  0  0  1  0  0  0  0  0  0  0  0
    4.4740    5.6384    0.2048 C   0  0  0  1  0  0  0  0  0  0  0  0
    4.7600    5.4560    1.5489 C   0  0  0  1  0  0  0  0  0  0  0  0
    4.1068    4.4724    2.2673 C   0  0  0  1  0  0  0  0  0  0  0  0
    5.0510    6.5625   -0.5996 O   0  0  0  1  0  0  0  0  0  0  0  0
    6.1902    7.2655   -0.0796 C   0  0  0  1  0  0  0  0  0  0  0  0
    3.5400   -1.1700   -0.0453 N   0  0  0  1  0  0  0  0  0  0  0  0
    4.3128   -0.4583   -1.0480 C   0  0  0  1  0  0  0  0  0  0  0  0
    3.4542   -0.1984   -2.2877 C   0  0  0  1  0  0  0  0  0  0  0  0
    4.0459   -1.0588   -3.3959 C   0  0  0  1  0  0  0  0  0  0  0  0
    4.8874   -2.1270   -2.7110 C   0  0  0  1  0  0  0  0  0  0  0  0
    5.5240   -1.3297   -1.5118 C   0  0  0  1  0  0  0  0  0  0  0  0
    5.9316   -2.6533   -3.6207 N   0  0  0  1  0  0  0  0  0  0  0  0
    1.0563   -1.2910    3.5313 H   0  0  0  1  0  0  0  0  0  0  0  0
    0.6841    1.5668    4.7185 H   0  0  0  1  0  0  0  0  0  0  0  0
    2.1703    3.2501   -0.1631 H   0  0  0  1  0  0  0  0  0  0  0  0
    3.3141    4.9795   -1.4229 H   0  0  0  1  0  0  0  0  0  0  0  0
    5.4662    6.0594    2.0168 H   0  0  0  1  0  0  0  0  0  0  0  0
    4.3243    4.3329    3.2747 H   0  0  0  1  0  0  0  0  0  0  0  0
    6.5063    8.0050   -0.7854 H   0  0  0  1  0  0  0  0  0  0  0  0
    6.9878    6.5735    0.0929 H   0  0  0  1  0  0  0  0  0  0  0  0
    5.9252    7.7419    0.8411 H   0  0  0  1  0  0  0  0  0  0  0  0
    3.4516   -2.1437   -0.1132 H   0  0  0  1  0  0  0  0  0  0  0  0
    4.6603    0.4679   -0.6401 H   0  0  0  1  0  0  0  0  0  0  0  0
    3.4955    0.8360   -2.5581 H   0  0  0  1  0  0  0  0  0  0  0  0
    2.4385   -0.4788   -2.1017 H   0  0  0  1  0  0  0  0  0  0  0  0
    3.2642   -1.5142   -3.9673 H   0  0  0  1  0  0  0  0  0  0  0  0
    4.6581   -0.4625   -4.0397 H   0  0  0  1  0  0  0  0  0  0  0  0
    4.2790   -2.9344   -2.3604 H   0  0  0  1  0  0  0  0  0  0  0  0
    5.8536   -1.9875   -0.7350 H   0  0  0  1  0  0  0  0  0  0  0  0
    6.3426   -0.7217   -1.8363 H   0  0  0  1  0  0  0  0  0  0  0  0
    6.4440   -3.3512   -3.1616 H   0  0  0  1  0  0  0  0  0  0  0  0
    6.5333   -1.9255   -3.8827 H   0  0  0  1  0  0  0  0  0  0  0  0
  1  2  4  0  0  0  0
  1  6  4  0  0  0  0
  1 18  1  0  0  0  0
  2  3  4  0  0  0  0
  3  4  4  0  0  0  0
  3 25  1  0  0  0  0
  4  5  4  0  0  0  0
  4  7  4  0  0  0  0
  5  6  4  0  0  0  0
  5  9  4  0  0  0  0
  7  8  4  0  0  0  0
  7 26  1  0  0  0  0
  8  9  4  0  0  0  0
  9 10  1  0  0  0  0
 10 11  4  0  0  0  0
 10 15  4  0  0  0  0
 11 12  4  0  0  0  0
 11 27  1  0  0  0  0
 12 13  4  0  0  0  0
 12 28  1  0  0  0  0
 13 14  4  0  0  0  0
 13 16  1  0  0  0  0
 14 15  4  0  0  0  0
 14 29  1  0  0  0  0
 15 30  1  0  0  0  0
 16 17  1  0  0  0  0
 17 31  1  0  0  0  0
 17 32  1  0  0  0  0
 17 33  1  0  0  0  0
 18 19  1  0  0  0  0
 18 34  1  0  0  0  0
 19 20  1  0  0  0  0
 19 23  1  0  0  0  0
 19 35  1  0  0  0  0
 20 21  1  0  0  0  0
 20 36  1  0  0  0  0
 20 37  1  0  0  0  0
 21 22  1  0  0  0  0
 21 38  1  0  0  0  0
 21 39  1  0  0  0  0
 22 23  1  0  0  0  0
 22 24  1  0  0  0  0
 22 40  1  0  0  0  0
 23 41  1  0  0  0  0
 23 42  1  0  0  0  0
 24 43  1  0  0  0  0
 24 44  1  0  0  0  0
M  END
> <ConfClashScore>
0 

> <ConfOneFourInteractionScore>
-0.984337 

> <ConfScore>
-0.134924 

> <ConfScorePBest>
0.00529924 

> <ConfTolerance>
0.216659 

$$$$
c22.sdf
 OpenBabel04162418103D

 44 47  0  0  0  0  0  0  0  0999 V2000
    4.3942    1.5327    0.4128 C   0  0  0  1  0  0  0  0  0  0  0  0
    5.1814    2.2760   -0.3713 N   0  0  0  1  0  0  0  0  0  0  0  0
    5.4116    3.5539   -0.0092 C   0  0  0  1  0  0  0  0  0  0  0  0
    4.8119    4.0434    1.1877 C   0  0  0  1  0  0  0  0  0  0  0  0
    4.0273    3.1309    1.8822 C   0  0  0  1  0  0  0  0  0  0  0  0
    3.7726    1.8456    1.5397 N   0  0  0  1  0  0  0  0  0  0  0  0
    4.7502    5.2154    1.9684 C   0  0  0  1  0  0  0  0  0  0  0  0
    4.0004    5.0532    3.0340 N   0  0  0  1  0  0  0  0  0  0  0  0
    3.5532    3.7621    2.9800 N   0  0  0  1  0  0  0  0  0  0  0  0
    2.7142    3.1710    3.9364 C   0  0  0  1  0  0  0  0  0  0  0  0
    3.2403    2.0719    4.5884 C   0  0  0  1  0  0  0  0  0  0  0  0
    2.4941    1.4176    5.5562 C   0  0  0  1  0  0  0  0  0  0  0  0
    1.2221    1.8611    5.8653 C   0  0  0  1  0  0  0  0  0  0  0  0
    0.6946    2.9635    5.2111 C   0  0  0  1  0  0  0  0  0  0  0  0
    1.4385    3.6160    4.2462 C   0  0  0  1  0  0  0  0  0  0  0  0
    0.5014    1.3122    6.8719 O   0  0  0  1  0  0  0  0  0  0  0  0
   -0.8628    1.7389    7.0106 C   0  0  0  1  0  0  0  0  0  0  0  0
    4.2029    0.2647   -0.0100 N   0  0  0  1  0  0  0  0  0  0  0  0
    4.6851   -0.2490   -1.2930 C   0  0  0  1  0  0  0  0  0  0  0  0
    3.5590   -0.2468   -2.3447 C   0  0  0  1  0  0  0  0  0  0  0  0
    3.9135   -1.3568   -3.3499 C   0  0  0  1  0  0  0  0  0  0  0  0
    4.9623   -2.2696   -2.6542 C   0  0  0  1  0  0  0  0  0  0  0  0
    5.0780   -1.7609   -1.1778 C   0  0  0  1  0  0  0  0  0  0  0  0
    6.2959   -2.1576   -3.3510 N   0  0  0  1  0  0  0  0  0  0  0  0
    6.0144    4.1700   -0.5911 H   0  0  0  1  0  0  0  0  0  0  0  0
    5.2394    6.1015    1.7293 H   0  0  0  1  0  0  0  0  0  0  0  0
    4.1959    1.7357    4.3531 H   0  0  0  1  0  0  0  0  0  0  0  0
    2.8915    0.5929    6.0498 H   0  0  0  1  0  0  0  0  0  0  0  0
   -0.2610    3.2997    5.4465 H   0  0  0  1  0  0  0  0  0  0  0  0
    1.0412    4.4407    3.7526 H   0  0  0  1  0  0  0  0  0  0  0  0
   -1.3543    1.1318    7.7419 H   0  0  0  1  0  0  0  0  0  0  0  0
   -1.3643    1.6407    6.0706 H   0  0  0  1  0  0  0  0  0  0  0  0
   -0.8862    2.7620    7.3229 H   0  0  0  1  0  0  0  0  0  0  0  0
    3.7122   -0.3478    0.5768 H   0  0  0  1  0  0  0  0  0  0  0  0
    5.5170    0.3377   -1.6228 H   0  0  0  1  0  0  0  0  0  0  0  0
    3.5141    0.7012   -2.8388 H   0  0  0  1  0  0  0  0  0  0  0  0
    2.6171   -0.4528   -1.8808 H   0  0  0  1  0  0  0  0  0  0  0  0
    4.3280   -0.9302   -4.2393 H   0  0  0  1  0  0  0  0  0  0  0  0
    3.0397   -1.9221   -3.5984 H   0  0  0  1  0  0  0  0  0  0  0  0
    4.6353   -3.2883   -2.6704 H   0  0  0  1  0  0  0  0  0  0  0  0
    4.4013   -2.2860   -0.5364 H   0  0  0  1  0  0  0  0  0  0  0  0
    6.0768   -1.8715   -0.8104 H   0  0  0  1  0  0  0  0  0  0  0  0
    6.6614   -1.2585   -3.2153 H   0  0  0  1  0  0  0  0  0  0  0  0
    6.1778   -2.3207   -4.3101 H   0  0  0  1  0  0  0  0  0  0  0  0
  1  2  4  0  0  0  0
  1  6  4  0  0  0  0
  1 18  1  0  0  0  0
  2  3  4  0  0  0  0
  3  4  4  0  0  0  0
  3 25  1  0  0  0  0
  4  5  4  0  0  0  0
  4  7  4  0  0  0  0
  5  6  4  0  0  0  0
  5  9  4  0  0  0  0
  7  8  4  0  0  0  0
  7 26  1  0  0  0  0
  8  9  4  0  0  0  0
  9 10  1  0  0  0  0
 10 11  4  0  0  0  0
 10 15  4  0  0  0  0
 11 12  4  0  0  0  0
 11 27  1  0  0  0  0
 12 13  4  0  0  0  0
 12 28  1  0  0  0  0
 13 14  4  0  0  0  0
 13 16  1  0  0  0  0
 14 15  4  0  0  0  0
 14 29  1  0  0  0  0
 15 30  1  0  0  0  0
 16 17  1  0  0  0  0
 17 31  1  0  0  0  0
 17 32  1  0  0  0  0
 17 33  1  0  0  0  0
 18 19  1  0  0  0  0
 18 34  1  0  0  0  0
 19 20  1  0  0  0  0
 19 23  1  0  0  0  0
 19 35  1  0  0  0  0
 20 21  1  0  0  0  0
 20 36  1  0  0  0  0
 20 37  1  0  0  0  0
 21 22  1  0  0  0  0
 21 38  1  0  0  0  0
 21 39  1  0  0  0  0
 22 23  1  0  0  0  0
 22 24  1  0  0  0  0
 22 40  1  0  0  0  0
 23 41  1  0  0  0  0
 23 42  1  0  0  0  0
 24 43  1  0  0  0  0
 24 44  1  0  0  0  0
M  END
> <ConfClashScore>
0 

> <ConfOneFourInteractionScore>
-0.984337 

> <ConfScore>
-0.131922 

> <ConfScorePBest>
0.00528591 

> <ConfTolerance>
0.237608 

$$$$
c22.sdf
 OpenBabel04162418103D

 44 47  0  0  0  0  0  0  0  0999 V2000
    2.7636   -0.6559    0.9814 C   0  0  0  1  0  0  0  0  0  0  0  0
    2.7635    0.6802    1.0264 N   0  0  0  1  0  0  0  0  0  0  0  0
    2.0247    1.2821    1.9798 C   0  0  0  1  0  0  0  0  0  0  0  0
    1.2896    0.4680    2.8901 C   0  0  0  1  0  0  0  0  0  0  0  0
    1.4095   -0.9031    2.7000 C   0  0  0  1  0  0  0  0  0  0  0  0
    2.1368   -1.5352    1.7484 N   0  0  0  1  0  0  0  0  0  0  0  0
    0.4335    0.5880    4.0035 C   0  0  0  1  0  0  0  0  0  0  0  0
    0.0537   -0.5847    4.4558 N   0  0  0  1  0  0  0  0  0  0  0  0
    0.6586   -1.5076    3.6482 N   0  0  0  1  0  0  0  0  0  0  0  0
    0.5181   -2.9034    3.7859 C   0  0  0  1  0  0  0  0  0  0  0  0
   -0.7562   -3.4308    3.6950 C   0  0  0  1  0  0  0  0  0  0  0  0
   -0.9507   -4.7977    3.8177 C   0  0  0  1  0  0  0  0  0  0  0  0
    0.1288   -5.6327    4.0364 C   0  0  0  1  0  0  0  0  0  0  0  0
    1.4068   -5.1035    4.1276 C   0  0  0  1  0  0  0  0  0  0  0  0
    1.6009   -3.7405    4.0052 C   0  0  0  1  0  0  0  0  0  0  0  0
    0.0618   -6.9779    4.1771 O   0  0  0  1  0  0  0  0  0  0  0  0
   -1.2440   -7.5754    4.1580 C   0  0  0  1  0  0  0  0  0  0  0  0
    3.5180   -1.1908    0.0046 N   0  0  0  1  0  0  0  0  0  0  0  0
    4.2892   -0.4547   -1.0023 C   0  0  0  1  0  0  0  0  0  0  0  0
    3.4572   -0.2732   -2.2736 C   0  0  0  1  0  0  0  0  0  0  0  0
    4.1297   -1.1260   -3.3407 C   0  0  0  1  0  0  0  0  0  0  0  0
    5.0065   -2.1288   -2.6032 C   0  0  0  1  0  0  0  0  0  0  0  0
    5.5604   -1.2683   -1.4067 C   0  0  0  1  0  0  0  0  0  0  0  0
    6.1068   -2.6185   -3.4677 N   0  0  0  1  0  0  0  0  0  0  0  0
    1.9918    2.3193    2.0498 H   0  0  0  1  0  0  0  0  0  0  0  0
    0.1383    1.4957    4.4167 H   0  0  0  1  0  0  0  0  0  0  0  0
   -1.5690   -2.8022    3.5345 H   0  0  0  1  0  0  0  0  0  0  0  0
   -1.9090   -5.1951    3.7453 H   0  0  0  1  0  0  0  0  0  0  0  0
    2.2196   -5.7321    4.2881 H   0  0  0  1  0  0  0  0  0  0  0  0
    2.5592   -3.3431    4.0777 H   0  0  0  1  0  0  0  0  0  0  0  0
   -1.1581   -8.6272    4.3346 H   0  0  0  1  0  0  0  0  0  0  0  0
   -1.6976   -7.4102    3.2031 H   0  0  0  1  0  0  0  0  0  0  0  0
   -1.8492   -7.1340    4.9221 H   0  0  0  1  0  0  0  0  0  0  0  0
    3.5561   -2.1691   -0.0383 H   0  0  0  1  0  0  0  0  0  0  0  0
    4.5724    0.4990   -0.6084 H   0  0  0  1  0  0  0  0  0  0  0  0
    2.4530   -0.6050   -2.1110 H   0  0  0  1  0  0  0  0  0  0  0  0
    3.4501    0.7550   -2.5695 H   0  0  0  1  0  0  0  0  0  0  0  0
    4.7282   -0.5124   -3.9811 H   0  0  0  1  0  0  0  0  0  0  0  0
    3.3926   -1.6379   -3.9234 H   0  0  0  1  0  0  0  0  0  0  0  0
    4.4326   -2.9600   -2.2503 H   0  0  0  1  0  0  0  0  0  0  0  0
    5.9010   -1.8878   -0.6034 H   0  0  0  1  0  0  0  0  0  0  0  0
    6.3542   -0.6239   -1.7220 H   0  0  0  1  0  0  0  0  0  0  0  0
    6.5766   -1.8548   -3.8634 H   0  0  0  1  0  0  0  0  0  0  0  0
    5.7366   -3.1793   -4.1810 H   0  0  0  1  0  0  0  0  0  0  0  0
  1  2  4  0  0  0  0
  1  6  4  0  0  0  0
  1 18  1  0  0  0  0
  2  3  4  0  0  0  0
  3  4  4  0  0  0  0
  3 25  1  0  0  0  0
  4  5  4  0  0  0  0
  4  7  4  0  0  0  0
  5  6  4  0  0  0  0
  5  9  4  0  0  0  0
  7  8  4  0  0  0  0
  7 26  1  0  0  0  0
  8  9  4  0  0  0  0
  9 10  1  0  0  0  0
 10 11  4  0  0  0  0
 10 15  4  0  0  0  0
 11 12  4  0  0  0  0
 11 27  1  0  0  0  0
 12 13  4  0  0  0  0
 12 28  1  0  0  0  0
 13 14  4  0  0  0  0
 13 16  1  0  0  0  0
 14 15  4  0  0  0  0
 14 29  1  0  0  0  0
 15 30  1  0  0  0  0
 16 17  1  0  0  0  0
 17 31  1  0  0  0  0
 17 32  1  0  0  0  0
 17 33  1  0  0  0  0
 18 19  1  0  0  0  0
 18 34  1  0  0  0  0
 19 20  1  0  0  0  0
 19 23  1  0  0  0  0
 19 35  1  0  0  0  0
 20 21  1  0  0  0  0
 20 36  1  0  0  0  0
 20 37  1  0  0  0  0
 21 22  1  0  0  0  0
 21 38  1  0  0  0  0
 21 39  1  0  0  0  0
 22 23  1  0  0  0  0
 22 24  1  0  0  0  0
 22 40  1  0  0  0  0
 23 41  1  0  0  0  0
 23 42  1  0  0  0  0
 24 43  1  0  0  0  0
 24 44  1  0  0  0  0
M  END
> <ConfClashScore>
0 

> <ConfOneFourInteractionScore>
-0.984337 

> <ConfScore>
-0.131922 

> <ConfScorePBest>
0.00527258 

> <ConfTolerance>
0.218552 

$$$$
c22.sdf
 OpenBabel04162418103D

 44 47  0  0  0  0  0  0  0  0999 V2000
    2.4993   -0.4487    0.7074 C   0  0  0  1  0  0  0  0  0  0  0  0
    1.7110   -1.1644    1.5157 N   0  0  0  1  0  0  0  0  0  0  0  0
    0.7843   -0.5074    2.2417 C   0  0  0  1  0  0  0  0  0  0  0  0
    0.6888    0.9085    2.1072 C   0  0  0  1  0  0  0  0  0  0  0  0
    1.5848    1.4882    1.2174 C   0  0  0  1  0  0  0  0  0  0  0  0
    2.5295    0.8560    0.4812 N   0  0  0  1  0  0  0  0  0  0  0  0
   -0.0663    1.9950    2.5930 C   0  0  0  1  0  0  0  0  0  0  0  0
    0.3223    3.1335    2.0669 N   0  0  0  1  0  0  0  0  0  0  0  0
    1.3446    2.8189    1.2151 N   0  0  0  1  0  0  0  0  0  0  0  0
    2.0611    3.7667    0.4299 C   0  0  0  1  0  0  0  0  0  0  0  0
    2.2009    3.5716   -0.9312 C   0  0  0  1  0  0  0  0  0  0  0  0
    2.8938    4.4969   -1.6962 C   0  0  0  1  0  0  0  0  0  0  0  0
    3.4494    5.6117   -1.0972 C   0  0  0  1  0  0  0  0  0  0  0  0
    3.3090    5.8072    0.2679 C   0  0  0  1  0  0  0  0  0  0  0  0
    2.6182    4.8847    1.0309 C   0  0  0  1  0  0  0  0  0  0  0  0
    4.1418    6.5497   -1.7862 O   0  0  0  1  0  0  0  0  0  0  0  0
    4.3960    7.7973   -1.1219 C   0  0  0  1  0  0  0  0  0  0  0  0
    3.4286   -1.1858   -0.0040 N   0  0  0  1  0  0  0  0  0  0  0  0
    4.2563   -0.4804   -0.9836 C   0  0  0  1  0  0  0  0  0  0  0  0
    3.4588   -0.2552   -2.2991 C   0  0  0  1  0  0  0  0  0  0  0  0
    4.1396   -1.1130   -3.3801 C   0  0  0  1  0  0  0  0  0  0  0  0
    5.0064   -2.1397   -2.6258 C   0  0  0  1  0  0  0  0  0  0  0  0
    5.5012   -1.3495   -1.3672 C   0  0  0  1  0  0  0  0  0  0  0  0
    6.1514   -2.5792   -3.4586 N   0  0  0  1  0  0  0  0  0  0  0  0
    0.1521   -1.0230    2.8866 H   0  0  0  1  0  0  0  0  0  0  0  0
   -0.8380    1.9056    3.2845 H   0  0  0  1  0  0  0  0  0  0  0  0
    1.7864    2.7307   -1.3813 H   0  0  0  1  0  0  0  0  0  0  0  0
    2.9956    4.3522   -2.7211 H   0  0  0  1  0  0  0  0  0  0  0  0
    3.7236    6.6481    0.7181 H   0  0  0  1  0  0  0  0  0  0  0  0
    2.5164    5.0293    2.0557 H   0  0  0  1  0  0  0  0  0  0  0  0
    5.0291    7.6291   -0.2759 H   0  0  0  1  0  0  0  0  0  0  0  0
    3.4699    8.2222   -0.7951 H   0  0  0  1  0  0  0  0  0  0  0  0
    4.8782    8.4703   -1.7998 H   0  0  0  1  0  0  0  0  0  0  0  0
    3.5296   -2.1494    0.1432 H   0  0  0  1  0  0  0  0  0  0  0  0
    4.5709    0.4576   -0.5761 H   0  0  0  1  0  0  0  0  0  0  0  0
    2.4418   -0.5622   -2.1710 H   0  0  0  1  0  0  0  0  0  0  0  0
    3.4879    0.7780   -2.5757 H   0  0  0  1  0  0  0  0  0  0  0  0
    3.4043   -1.6134   -3.9750 H   0  0  0  1  0  0  0  0  0  0  0  0
    4.7517   -0.5010   -4.0091 H   0  0  0  1  0  0  0  0  0  0  0  0
    4.4262   -2.9916   -2.3383 H   0  0  0  1  0  0  0  0  0  0  0  0
    6.3416   -0.7321   -1.6070 H   0  0  0  1  0  0  0  0  0  0  0  0
    5.7633   -2.0169   -0.5730 H   0  0  0  1  0  0  0  0  0  0  0  0
    6.7181   -1.8078   -3.6689 H   0  0  0  1  0  0  0  0  0  0  0  0
    5.8171   -2.9751   -4.2904 H   0  0  0  1  0  0  0  0  0  0  0  0
  1  2  4  0  0  0  0
  1  6  4  0  0  0  0
  1 18  1  0  0  0  0
  2  3  4  0  0  0  0
  3  4  4  0  0  0  0
  3 25  1  0  0  0  0
  4  5  4  0  0  0  0
  4  7  4  0  0  0  0
  5  6  4  0  0  0  0
  5  9  4  0  0  0  0
  7  8  4  0  0  0  0
  7 26  1  0  0  0  0
  8  9  4  0  0  0  0
  9 10  1  0  0  0  0
 10 11  4  0  0  0  0
 10 15  4  0  0  0  0
 11 12  4  0  0  0  0
 11 27  1  0  0  0  0
 12 13  4  0  0  0  0
 12 28  1  0  0  0  0
 13 14  4  0  0  0  0
 13 16  1  0  0  0  0
 14 15  4  0  0  0  0
 14 29  1  0  0  0  0
 15 30  1  0  0  0  0
 16 17  1  0  0  0  0
 17 31  1  0  0  0  0
 17 32  1  0  0  0  0
 17 33  1  0  0  0  0
 18 19  1  0  0  0  0
 18 34  1  0  0  0  0
 19 20  1  0  0  0  0
 19 23  1  0  0  0  0
 19 35  1  0  0  0  0
 20 21  1  0  0  0  0
 20 36  1  0  0  0  0
 20 37  1  0  0  0  0
 21 22  1  0  0  0  0
 21 38  1  0  0  0  0
 21 39  1  0  0  0  0
 22 23  1  0  0  0  0
 22 24  1  0  0  0  0
 22 40  1  0  0  0  0
 23 41  1  0  0  0  0
 23 42  1  0  0  0  0
 24 43  1  0  0  0  0
 24 44  1  0  0  0  0
M  END
> <ConfClashScore>
0 

> <ConfOneFourInteractionScore>
-0.984337 

> <ConfScore>
-0.131922 

> <ConfScorePBest>
0.00525926 

> <ConfTolerance>
0.250944 

$$$$
c22.sdf
 OpenBabel04162418103D

 44 47  0  0  0  0  0  0  0  0999 V2000
    4.4065    1.5869    0.3472 C   0  0  0  1  0  0  0  0  0  0  0  0
    4.0100    1.8943    1.5863 N   0  0  0  1  0  0  0  0  0  0  0  0
    4.1076    3.1791    1.9825 C   0  0  0  1  0  0  0  0  0  0  0  0
    4.6205    4.1404    1.0634 C   0  0  0  1  0  0  0  0  0  0  0  0
    4.9797    3.6454   -0.1841 C   0  0  0  1  0  0  0  0  0  0  0  0
    4.8999    2.3614   -0.6073 N   0  0  0  1  0  0  0  0  0  0  0  0
    4.8938    5.5206    0.9784 C   0  0  0  1  0  0  0  0  0  0  0  0
    5.3792    5.8506   -0.1962 N   0  0  0  1  0  0  0  0  0  0  0  0
    5.4319    4.6889   -0.9156 N   0  0  0  1  0  0  0  0  0  0  0  0
    5.8975    4.5918   -2.2477 C   0  0  0  1  0  0  0  0  0  0  0  0
    5.1427    3.9287   -3.1968 C   0  0  0  1  0  0  0  0  0  0  0  0
    5.5966    3.8381   -4.5034 C   0  0  0  1  0  0  0  0  0  0  0  0
    6.8062    4.4063   -4.8560 C   0  0  0  1  0  0  0  0  0  0  0  0
    7.5631    5.0713   -3.9039 C   0  0  0  1  0  0  0  0  0  0  0  0
    7.1107    5.1616   -2.6011 C   0  0  0  1  0  0  0  0  0  0  0  0
    7.1457    4.2502   -6.1503 O   0  0  0  1  0  0  0  0  0  0  0  0
    8.4107    4.8421   -6.5271 C   0  0  0  1  0  0  0  0  0  0  0  0
    4.2838    0.2698    0.0138 N   0  0  0  1  0  0  0  0  0  0  0  0
    4.6743   -0.2307   -1.3114 C   0  0  0  1  0  0  0  0  0  0  0  0
    3.4594   -0.3930   -2.2289 C   0  0  0  1  0  0  0  0  0  0  0  0
    3.8773   -1.4439   -3.2695 C   0  0  0  1  0  0  0  0  0  0  0  0
    5.0595   -2.2051   -2.6583 C   0  0  0  1  0  0  0  0  0  0  0  0
    5.1908   -1.6733   -1.2365 C   0  0  0  1  0  0  0  0  0  0  0  0
    6.3078   -1.9398   -3.4325 N   0  0  0  1  0  0  0  0  0  0  0  0
    3.8146    3.4632    2.9391 H   0  0  0  1  0  0  0  0  0  0  0  0
    4.7309    6.1958    1.7524 H   0  0  0  1  0  0  0  0  0  0  0  0
    4.2344    3.4977   -2.9307 H   0  0  0  1  0  0  0  0  0  0  0  0
    5.0268    3.3426   -5.2186 H   0  0  0  1  0  0  0  0  0  0  0  0
    8.4714    5.5023   -4.1700 H   0  0  0  1  0  0  0  0  0  0  0  0
    7.6805    5.6571   -1.8859 H   0  0  0  1  0  0  0  0  0  0  0  0
    9.2060    4.3404   -6.0164 H   0  0  0  1  0  0  0  0  0  0  0  0
    8.4131    5.8782   -6.2597 H   0  0  0  1  0  0  0  0  0  0  0  0
    8.5488    4.7455   -7.5837 H   0  0  0  1  0  0  0  0  0  0  0  0
    3.9261   -0.3587    0.6751 H   0  0  0  1  0  0  0  0  0  0  0  0
    5.4036    0.4245   -1.7400 H   0  0  0  1  0  0  0  0  0  0  0  0
    2.6115   -0.7333   -1.6719 H   0  0  0  1  0  0  0  0  0  0  0  0
    3.2238    0.5349   -2.7069 H   0  0  0  1  0  0  0  0  0  0  0  0
    4.1746   -0.9665   -4.1798 H   0  0  0  1  0  0  0  0  0  0  0  0
    3.0666   -2.1141   -3.4659 H   0  0  0  1  0  0  0  0  0  0  0  0
    4.8624   -3.2568   -2.6479 H   0  0  0  1  0  0  0  0  0  0  0  0
    6.2127   -1.6922   -0.9196 H   0  0  0  1  0  0  0  0  0  0  0  0
    4.5966   -2.2522   -0.5608 H   0  0  0  1  0  0  0  0  0  0  0  0
    6.3906   -0.9777   -3.6000 H   0  0  0  1  0  0  0  0  0  0  0  0
    6.2697   -2.4178   -4.2871 H   0  0  0  1  0  0  0  0  0  0  0  0
  1  2  4  0  0  0  0
  1  6  4  0  0  0  0
  1 18  1  0  0  0  0
  2  3  4  0  0  0  0
  3  4  4  0  0  0  0
  3 25  1  0  0  0  0
  4  5  4  0  0  0  0
  4  7  4  0  0  0  0
  5  6  4  0  0  0  0
  5  9  4  0  0  0  0
  7  8  4  0  0  0  0
  7 26  1  0  0  0  0
  8  9  4  0  0  0  0
  9 10  1  0  0  0  0
 10 11  4  0  0  0  0
 10 15  4  0  0  0  0
 11 12  4  0  0  0  0
 11 27  1  0  0  0  0
 12 13  4  0  0  0  0
 12 28  1  0  0  0  0
 13 14  4  0  0  0  0
 13 16  1  0  0  0  0
 14 15  4  0  0  0  0
 14 29  1  0  0  0  0
 15 30  1  0  0  0  0
 16 17  1  0  0  0  0
 17 31  1  0  0  0  0
 17 32  1  0  0  0  0
 17 33  1  0  0  0  0
 18 19  1  0  0  0  0
 18 34  1  0  0  0  0
 19 20  1  0  0  0  0
 19 23  1  0  0  0  0
 19 35  1  0  0  0  0
 20 21  1  0  0  0  0
 20 36  1  0  0  0  0
 20 37  1  0  0  0  0
 21 22  1  0  0  0  0
 21 38  1  0  0  0  0
 21 39  1  0  0  0  0
 22 23  1  0  0  0  0
 22 24  1  0  0  0  0
 22 40  1  0  0  0  0
 23 41  1  0  0  0  0
 23 42  1  0  0  0  0
 24 43  1  0  0  0  0
 24 44  1  0  0  0  0
M  END
> <ConfClashScore>
0 

> <ConfOneFourInteractionScore>
-0.984337 

> <ConfScore>
-0.131922 

> <ConfScorePBest>
0.00524593 

> <ConfTolerance>
0.216489 

$$$$
c22.sdf
 OpenBabel04162418103D

 44 47  0  0  0  0  0  0  0  0999 V2000
    2.6770   -0.6851    0.8048 C   0  0  0  1  0  0  0  0  0  0  0  0
    2.9433    0.6080    1.0146 N   0  0  0  1  0  0  0  0  0  0  0  0
    2.3000    1.2321    2.0216 C   0  0  0  1  0  0  0  0  0  0  0  0
    1.3779    0.4845    2.8106 C   0  0  0  1  0  0  0  0  0  0  0  0
    1.2281   -0.8502    2.4544 C   0  0  0  1  0  0  0  0  0  0  0  0
    1.8540   -1.5015    1.4455 N   0  0  0  1  0  0  0  0  0  0  0  0
    0.5162    0.6455    3.9143 C   0  0  0  1  0  0  0  0  0  0  0  0
   -0.1105   -0.4695    4.2111 N   0  0  0  1  0  0  0  0  0  0  0  0
    0.3310   -1.3953    3.3067 N   0  0  0  1  0  0  0  0  0  0  0  0
   -0.0942   -2.7438    3.2680 C   0  0  0  1  0  0  0  0  0  0  0  0
   -0.1274   -3.4235    2.0651 C   0  0  0  1  0  0  0  0  0  0  0  0
   -0.5390   -4.7467    2.0280 C   0  0  0  1  0  0  0  0  0  0  0  0
   -0.9213   -5.3846    3.1930 C   0  0  0  1  0  0  0  0  0  0  0  0
   -0.8879   -4.7027    4.3994 C   0  0  0  1  0  0  0  0  0  0  0  0
   -0.4776   -3.3834    4.4365 C   0  0  0  1  0  0  0  0  0  0  0  0
   -1.3448   -6.6680    3.2796 O   0  0  0  1  0  0  0  0  0  0  0  0
   -1.5246   -7.3842    2.0479 C   0  0  0  1  0  0  0  0  0  0  0  0
    3.3596   -1.2525   -0.2312 N   0  0  0  1  0  0  0  0  0  0  0  0
    4.2951   -0.4793   -1.0520 C   0  0  0  1  0  0  0  0  0  0  0  0
    3.6712   -0.0900   -2.3821 C   0  0  0  1  0  0  0  0  0  0  0  0
    3.7780   -1.3545   -3.2411 C   0  0  0  1  0  0  0  0  0  0  0  0
    4.9432   -2.1690   -2.6635 C   0  0  0  1  0  0  0  0  0  0  0  0
    5.4846   -1.3367   -1.4979 C   0  0  0  1  0  0  0  0  0  0  0  0
    6.0022   -2.3706   -3.6972 N   0  0  0  1  0  0  0  0  0  0  0  0
    2.4730    2.2385    2.2187 H   0  0  0  1  0  0  0  0  0  0  0  0
    0.3918    1.5394    4.4312 H   0  0  0  1  0  0  0  0  0  0  0  0
    0.1564   -2.9424    1.1879 H   0  0  0  1  0  0  0  0  0  0  0  0
   -0.5601   -5.2594    1.1234 H   0  0  0  1  0  0  0  0  0  0  0  0
   -1.1717   -5.1839    5.2766 H   0  0  0  1  0  0  0  0  0  0  0  0
   -0.4564   -2.8706    5.3411 H   0  0  0  1  0  0  0  0  0  0  0  0
   -1.8176   -8.3913    2.2598 H   0  0  0  1  0  0  0  0  0  0  0  0
   -0.6053   -7.3882    1.5005 H   0  0  0  1  0  0  0  0  0  0  0  0
   -2.2849   -6.9069    1.4657 H   0  0  0  1  0  0  0  0  0  0  0  0
    3.2206   -2.2017   -0.4315 H   0  0  0  1  0  0  0  0  0  0  0  0
    4.6196    0.3828   -0.5077 H   0  0  0  1  0  0  0  0  0  0  0  0
    2.6476    0.1927   -2.2511 H   0  0  0  1  0  0  0  0  0  0  0  0
    4.2104    0.7182   -2.8304 H   0  0  0  1  0  0  0  0  0  0  0  0
    3.9766   -1.0946   -4.2599 H   0  0  0  1  0  0  0  0  0  0  0  0
    2.8696   -1.9172   -3.1866 H   0  0  0  1  0  0  0  0  0  0  0  0
    4.5982   -3.1202   -2.3153 H   0  0  0  1  0  0  0  0  0  0  0  0
    6.2964   -0.7184   -1.8200 H   0  0  0  1  0  0  0  0  0  0  0  0
    5.8130   -1.9709   -0.7011 H   0  0  0  1  0  0  0  0  0  0  0  0
    6.6873   -2.9789   -3.3494 H   0  0  0  1  0  0  0  0  0  0  0  0
    6.4124   -1.5081   -3.9168 H   0  0  0  1  0  0  0  0  0  0  0  0
  1  2  4  0  0  0  0
  1  6  4  0  0  0  0
  1 18  1  0  0  0  0
  2  3  4  0  0  0  0
  3  4  4  0  0  0  0
  3 25  1  0  0  0  0
  4  5  4  0  0  0  0
  4  7  4  0  0  0  0
  5  6  4  0  0  0  0
  5  9  4  0  0  0  0
  7  8  4  0  0  0  0
  7 26  1  0  0  0  0
  8  9  4  0  0  0  0
  9 10  1  0  0  0  0
 10 11  4  0  0  0  0
 10 15  4  0  0  0  0
 11 12  4  0  0  0  0
 11 27  1  0  0  0  0
 12 13  4  0  0  0  0
 12 28  1  0  0  0  0
 13 14  4  0  0  0  0
 13 16  1  0  0  0  0
 14 15  4  0  0  0  0
 14 29  1  0  0  0  0
 15 30  1  0  0  0  0
 16 17  1  0  0  0  0
 17 31  1  0  0  0  0
 17 32  1  0  0  0  0
 17 33  1  0  0  0  0
 18 19  1  0  0  0  0
 18 34  1  0  0  0  0
 19 20  1  0  0  0  0
 19 23  1  0  0  0  0
 19 35  1  0  0  0  0
 20 21  1  0  0  0  0
 20 36  1  0  0  0  0
 20 37  1  0  0  0  0
 21 22  1  0  0  0  0
 21 38  1  0  0  0  0
 21 39  1  0  0  0  0
 22 23  1  0  0  0  0
 22 24  1  0  0  0  0
 22 40  1  0  0  0  0
 23 41  1  0  0  0  0
 23 42  1  0  0  0  0
 24 43  1  0  0  0  0
 24 44  1  0  0  0  0
M  END
> <ConfClashScore>
0 

> <ConfOneFourInteractionScore>
-0.984337 

> <ConfScore>
-0.130267 

> <ConfScorePBest>
0.0052326 

> <ConfTolerance>
0.20612 

$$$$
c22.sdf
 OpenBabel04162418103D

 44 47  0  0  0  0  0  0  0  0999 V2000
    2.5660   -0.6643    0.7540 C   0  0  0  1  0  0  0  0  0  0  0  0
    1.7562   -1.5348    1.3651 N   0  0  0  1  0  0  0  0  0  0  0  0
    0.9745   -1.0792    2.3644 C   0  0  0  1  0  0  0  0  0  0  0  0
    1.0465    0.3010    2.7131 C   0  0  0  1  0  0  0  0  0  0  0  0
    1.9399    1.0618    1.9691 C   0  0  0  1  0  0  0  0  0  0  0  0
    2.7419    0.6311    0.9663 N   0  0  0  1  0  0  0  0  0  0  0  0
    0.4704    1.2242    3.6090 C   0  0  0  1  0  0  0  0  0  0  0  0
    0.9582    2.4323    3.4457 N   0  0  0  1  0  0  0  0  0  0  0  0
    1.8680    2.3310    2.4299 N   0  0  0  1  0  0  0  0  0  0  0  0
    2.6322    3.4103    1.9280 C   0  0  0  1  0  0  0  0  0  0  0  0
    2.1711    4.7131    1.9415 C   0  0  0  1  0  0  0  0  0  0  0  0
    2.9642    5.7340    1.4414 C   0  0  0  1  0  0  0  0  0  0  0  0
    4.2137    5.4486    0.9243 C   0  0  0  1  0  0  0  0  0  0  0  0
    4.6760    4.1418    0.9108 C   0  0  0  1  0  0  0  0  0  0  0  0
    3.8854    3.1237    1.4095 C   0  0  0  1  0  0  0  0  0  0  0  0
    4.8937    6.5240    0.4607 O   0  0  0  1  0  0  0  0  0  0  0  0
    6.1199    6.2716   -0.2431 C   0  0  0  1  0  0  0  0  0  0  0  0
    3.3202   -1.1856   -0.2305 N   0  0  0  1  0  0  0  0  0  0  0  0
    4.2962   -0.4656   -1.0535 C   0  0  0  1  0  0  0  0  0  0  0  0
    3.7091   -0.0896   -2.4201 C   0  0  0  1  0  0  0  0  0  0  0  0
    3.7498   -1.3814   -3.2269 C   0  0  0  1  0  0  0  0  0  0  0  0
    4.9419   -2.1698   -2.6721 C   0  0  0  1  0  0  0  0  0  0  0  0
    5.4594   -1.3723   -1.4645 C   0  0  0  1  0  0  0  0  0  0  0  0
    6.0152   -2.2909   -3.7137 N   0  0  0  1  0  0  0  0  0  0  0  0
    0.3320   -1.7216    2.8705 H   0  0  0  1  0  0  0  0  0  0  0  0
   -0.2535    0.9782    4.3140 H   0  0  0  1  0  0  0  0  0  0  0  0
    1.2292    4.9275    2.3269 H   0  0  0  1  0  0  0  0  0  0  0  0
    2.6189    6.7150    1.4552 H   0  0  0  1  0  0  0  0  0  0  0  0
    5.6179    3.9274    0.5254 H   0  0  0  1  0  0  0  0  0  0  0  0
    4.2306    2.1428    1.3957 H   0  0  0  1  0  0  0  0  0  0  0  0
    5.9536    5.5290   -0.9953 H   0  0  0  1  0  0  0  0  0  0  0  0
    6.8605    5.9219    0.4454 H   0  0  0  1  0  0  0  0  0  0  0  0
    6.4590    7.1758   -0.7038 H   0  0  0  1  0  0  0  0  0  0  0  0
    3.2058   -2.1411   -0.4156 H   0  0  0  1  0  0  0  0  0  0  0  0
    4.6413    0.3982   -0.5247 H   0  0  0  1  0  0  0  0  0  0  0  0
    4.3016    0.6675   -2.8898 H   0  0  0  1  0  0  0  0  0  0  0  0
    2.7026    0.2583   -2.3155 H   0  0  0  1  0  0  0  0  0  0  0  0
    2.8425   -1.9333   -3.0960 H   0  0  0  1  0  0  0  0  0  0  0  0
    3.8922   -1.1694   -4.2660 H   0  0  0  1  0  0  0  0  0  0  0  0
    4.6301   -3.1463   -2.3654 H   0  0  0  1  0  0  0  0  0  0  0  0
    5.7216   -2.0320   -0.6640 H   0  0  0  1  0  0  0  0  0  0  0  0
    6.3121   -0.7872   -1.7391 H   0  0  0  1  0  0  0  0  0  0  0  0
    6.6819   -2.9472   -3.4217 H   0  0  0  1  0  0  0  0  0  0  0  0
    6.4474   -1.4205   -3.8398 H   0  0  0  1  0  0  0  0  0  0  0  0
  1  2  4  0  0  0  0
  1  6  4  0  0  0  0
  1 18  1  0  0  0  0
  2  3  4  0  0  0  0
  3  4  4  0  0  0  0
  3 25  1  0  0  0  0
  4  5  4  0  0  0  0
  4  7  4  0  0  0  0
  5  6  4  0  0  0  0
  5  9  4  0  0  0  0
  7  8  4  0  0  0  0
  7 26  1  0  0  0  0
  8  9  4  0  0  0  0
  9 10  1  0  0  0  0
 10 11  4  0  0  0  0
 10 15  4  0  0  0  0
 11 12  4  0  0  0  0
 11 27  1  0  0  0  0
 12 13  4  0  0  0  0
 12 28  1  0  0  0  0
 13 14  4  0  0  0  0
 13 16  1  0  0  0  0
 14 15  4  0  0  0  0
 14 29  1  0  0  0  0
 15 30  1  0  0  0  0
 16 17  1  0  0  0  0
 17 31  1  0  0  0  0
 17 32  1  0  0  0  0
 17 33  1  0  0  0  0
 18 19  1  0  0  0  0
 18 34  1  0  0  0  0
 19 20  1  0  0  0  0
 19 23  1  0  0  0  0
 19 35  1  0  0  0  0
 20 21  1  0  0  0  0
 20 36  1  0  0  0  0
 20 37  1  0  0  0  0
 21 22  1  0  0  0  0
 21 38  1  0  0  0  0
 21 39  1  0  0  0  0
 22 23  1  0  0  0  0
 22 24  1  0  0  0  0
 22 40  1  0  0  0  0
 23 41  1  0  0  0  0
 23 42  1  0  0  0  0
 24 43  1  0  0  0  0
 24 44  1  0  0  0  0
M  END
> <ConfClashScore>
0 

> <ConfOneFourInteractionScore>
-0.984337 

> <ConfScore>
-0.130267 

> <ConfScorePBest>
0.00521927 

> <ConfTolerance>
0.232343 

$$$$
c22.sdf
 OpenBabel04162418103D

 44 47  0  0  0  0  0  0  0  0999 V2000
    4.2589    1.4920    0.3756 C   0  0  0  1  0  0  0  0  0  0  0  0
    4.0527    1.6578    1.6860 N   0  0  0  1  0  0  0  0  0  0  0  0
    3.9555    2.9168    2.1580 C   0  0  0  1  0  0  0  0  0  0  0  0
    4.0712    4.0013    1.2402 C   0  0  0  1  0  0  0  0  0  0  0  0
    4.2789    3.6447   -0.0866 C   0  0  0  1  0  0  0  0  0  0  0  0
    4.3878    2.3914   -0.5881 N   0  0  0  1  0  0  0  0  0  0  0  0
    4.0304    5.4100    1.2162 C   0  0  0  1  0  0  0  0  0  0  0  0
    4.2016    5.8827    0.0032 N   0  0  0  1  0  0  0  0  0  0  0  0
    4.3553    4.7890   -0.8030 N   0  0  0  1  0  0  0  0  0  0  0  0
    4.5644    4.8464   -2.1889 C   0  0  0  1  0  0  0  0  0  0  0  0
    5.3688    3.8502   -2.7091 C   0  0  0  1  0  0  0  0  0  0  0  0
    5.6340    3.8131   -4.0691 C   0  0  0  1  0  0  0  0  0  0  0  0
    5.0983    4.7753   -4.9043 C   0  0  0  1  0  0  0  0  0  0  0  0
    4.2915    5.7745   -4.3824 C   0  0  0  1  0  0  0  0  0  0  0  0
    4.0270    5.8115   -3.0263 C   0  0  0  1  0  0  0  0  0  0  0  0
    5.3225    4.7988   -6.2396 O   0  0  0  1  0  0  0  0  0  0  0  0
    6.1665    3.7710   -6.7814 C   0  0  0  1  0  0  0  0  0  0  0  0
    4.3489    0.2189   -0.0249 N   0  0  0  1  0  0  0  0  0  0  0  0
    4.6546   -0.2469   -1.3779 C   0  0  0  1  0  0  0  0  0  0  0  0
    3.3802   -0.4494   -2.2018 C   0  0  0  1  0  0  0  0  0  0  0  0
    3.7592   -1.4693   -3.2871 C   0  0  0  1  0  0  0  0  0  0  0  0
    5.0154   -2.1872   -2.7800 C   0  0  0  1  0  0  0  0  0  0  0  0
    5.2343   -1.6673   -1.3647 C   0  0  0  1  0  0  0  0  0  0  0  0
    6.1888   -1.8601   -3.6442 N   0  0  0  1  0  0  0  0  0  0  0  0
    3.7993    3.0932    3.1709 H   0  0  0  1  0  0  0  0  0  0  0  0
    3.8825    6.0033    2.0575 H   0  0  0  1  0  0  0  0  0  0  0  0
    5.7752    3.1284   -2.0801 H   0  0  0  1  0  0  0  0  0  0  0  0
    6.2360    3.0612   -4.4612 H   0  0  0  1  0  0  0  0  0  0  0  0
    3.8851    6.4962   -5.0113 H   0  0  0  1  0  0  0  0  0  0  0  0
    3.4250    6.5635   -2.6342 H   0  0  0  1  0  0  0  0  0  0  0  0
    6.1152    3.7931   -7.8500 H   0  0  0  1  0  0  0  0  0  0  0  0
    5.8369    2.8162   -6.4284 H   0  0  0  1  0  0  0  0  0  0  0  0
    7.1764    3.9380   -6.4696 H   0  0  0  1  0  0  0  0  0  0  0  0
    4.1949   -0.4699    0.6550 H   0  0  0  1  0  0  0  0  0  0  0  0
    5.3212    0.4434   -1.8512 H   0  0  0  1  0  0  0  0  0  0  0  0
    2.5926   -0.8317   -1.5865 H   0  0  0  1  0  0  0  0  0  0  0  0
    3.0703    0.4734   -2.6461 H   0  0  0  1  0  0  0  0  0  0  0  0
    2.9640   -2.1706   -3.4308 H   0  0  0  1  0  0  0  0  0  0  0  0
    3.9653   -0.9690   -4.2102 H   0  0  0  1  0  0  0  0  0  0  0  0
    4.8631   -3.2463   -2.7704 H   0  0  0  1  0  0  0  0  0  0  0  0
    6.2775   -1.6469   -1.1274 H   0  0  0  1  0  0  0  0  0  0  0  0
    4.7184   -2.2788   -0.6542 H   0  0  0  1  0  0  0  0  0  0  0  0
    6.9916   -2.2903   -3.2823 H   0  0  0  1  0  0  0  0  0  0  0  0
    6.3194   -0.8890   -3.6634 H   0  0  0  1  0  0  0  0  0  0  0  0
  1  2  4  0  0  0  0
  1  6  4  0  0  0  0
  1 18  1  0  0  0  0
  2  3  4  0  0  0  0
  3  4  4  0  0  0  0
  3 25  1  0  0  0  0
  4  5  4  0  0  0  0
  4  7  4  0  0  0  0
  5  6  4  0  0  0  0
  5  9  4  0  0  0  0
  7  8  4  0  0  0  0
  7 26  1  0  0  0  0
  8  9  4  0  0  0  0
  9 10  1  0  0  0  0
 10 11  4  0  0  0  0
 10 15  4  0  0  0  0
 11 12  4  0  0  0  0
 11 27  1  0  0  0  0
 12 13  4  0  0  0  0
 12 28  1  0  0  0  0
 13 14  4  0  0  0  0
 13 16  1  0  0  0  0
 14 15  4  0  0  0  0
 14 29  1  0  0  0  0
 15 30  1  0  0  0  0
 16 17  1  0  0  0  0
 17 31  1  0  0  0  0
 17 32  1  0  0  0  0
 17 33  1  0  0  0  0
 18 19  1  0  0  0  0
 18 34  1  0  0  0  0
 19 20  1  0  0  0  0
 19 23  1  0  0  0  0
 19 35  1  0  0  0  0
 20 21  1  0  0  0  0
 20 36  1  0  0  0  0
 20 37  1  0  0  0  0
 21 22  1  0  0  0  0
 21 38  1  0  0  0  0
 21 39  1  0  0  0  0
 22 23  1  0  0  0  0
 22 24  1  0  0  0  0
 22 40  1  0  0  0  0
 23 41  1  0  0  0  0
 23 42  1  0  0  0  0
 24 43  1  0  0  0  0
 24 44  1  0  0  0  0
M  END
> <ConfClashScore>
0 

> <ConfOneFourInteractionScore>
-0.984337 

> <ConfScore>
-0.130267 

> <ConfScorePBest>
0.00520594 

> <ConfTolerance>
0.231943 

$$$$
c22.sdf
 OpenBabel04162418103D

 44 47  0  0  0  0  0  0  0  0999 V2000
    3.3622    1.1195    0.3850 C   0  0  0  1  0  0  0  0  0  0  0  0
    3.8889    2.1606   -0.2674 N   0  0  0  1  0  0  0  0  0  0  0  0
    3.5698    3.4004    0.1549 C   0  0  0  1  0  0  0  0  0  0  0  0
    2.6963    3.5376    1.2729 C   0  0  0  1  0  0  0  0  0  0  0  0
    2.2469    2.3479    1.8326 C   0  0  0  1  0  0  0  0  0  0  0  0
    2.5441    1.0906    1.4263 N   0  0  0  1  0  0  0  0  0  0  0  0
    2.1024    4.5385    2.0681 C   0  0  0  1  0  0  0  0  0  0  0  0
    1.3555    4.0271    3.0192 N   0  0  0  1  0  0  0  0  0  0  0  0
    1.4456    2.6705    2.8729 N   0  0  0  1  0  0  0  0  0  0  0  0
    0.7836    1.7235    3.7053 C   0  0  0  1  0  0  0  0  0  0  0  0
    0.6801    1.9516    5.0645 C   0  0  0  1  0  0  0  0  0  0  0  0
    0.0310    1.0324    5.8739 C   0  0  0  1  0  0  0  0  0  0  0  0
   -0.5080   -0.1148    5.3227 C   0  0  0  1  0  0  0  0  0  0  0  0
   -0.4041   -0.3434    3.9594 C   0  0  0  1  0  0  0  0  0  0  0  0
    0.2431    0.5731    3.1522 C   0  0  0  1  0  0  0  0  0  0  0  0
   -1.1121   -0.9396    6.2107 O   0  0  0  1  0  0  0  0  0  0  0  0
   -1.5368   -2.2242    5.7292 C   0  0  0  1  0  0  0  0  0  0  0  0
    3.7168   -0.0807   -0.0875 N   0  0  0  1  0  0  0  0  0  0  0  0
    4.6006   -0.3412   -1.2284 C   0  0  0  1  0  0  0  0  0  0  0  0
    3.8317   -0.1762   -2.5445 C   0  0  0  1  0  0  0  0  0  0  0  0
    3.7787   -1.5694   -3.1588 C   0  0  0  1  0  0  0  0  0  0  0  0
    5.0500   -2.2653   -2.6556 C   0  0  0  1  0  0  0  0  0  0  0  0
    5.0934   -1.7966   -1.1987 C   0  0  0  1  0  0  0  0  0  0  0  0
    6.2618   -1.8104   -3.4148 N   0  0  0  1  0  0  0  0  0  0  0  0
    3.9531    4.2396   -0.3252 H   0  0  0  1  0  0  0  0  0  0  0  0
    2.2393    5.5587    1.9194 H   0  0  0  1  0  0  0  0  0  0  0  0
    1.0892    2.8128    5.4799 H   0  0  0  1  0  0  0  0  0  0  0  0
   -0.0504    1.2059    6.8961 H   0  0  0  1  0  0  0  0  0  0  0  0
   -0.8132   -1.2046    3.5440 H   0  0  0  1  0  0  0  0  0  0  0  0
    0.3245    0.3996    2.1300 H   0  0  0  1  0  0  0  0  0  0  0  0
   -0.6931   -2.7585    5.3450 H   0  0  0  1  0  0  0  0  0  0  0  0
   -2.2594   -2.0922    4.9512 H   0  0  0  1  0  0  0  0  0  0  0  0
   -1.9743   -2.7792    6.5326 H   0  0  0  1  0  0  0  0  0  0  0  0
    3.3496   -0.8632    0.3743 H   0  0  0  1  0  0  0  0  0  0  0  0
    5.4315    0.3322   -1.1975 H   0  0  0  1  0  0  0  0  0  0  0  0
    2.8433    0.1883   -2.3574 H   0  0  0  1  0  0  0  0  0  0  0  0
    4.3447    0.5006   -3.1953 H   0  0  0  1  0  0  0  0  0  0  0  0
    3.7784   -1.5109   -4.2272 H   0  0  0  1  0  0  0  0  0  0  0  0
    2.9061   -2.0939   -2.8297 H   0  0  0  1  0  0  0  0  0  0  0  0
    4.9658   -3.3299   -2.7219 H   0  0  0  1  0  0  0  0  0  0  0  0
    4.4494   -2.3983   -0.5919 H   0  0  0  1  0  0  0  0  0  0  0  0
    6.0922   -1.8467   -0.8183 H   0  0  0  1  0  0  0  0  0  0  0  0
    6.3682   -0.8418   -3.3112 H   0  0  0  1  0  0  0  0  0  0  0  0
    6.1525   -2.0271   -4.3643 H   0  0  0  1  0  0  0  0  0  0  0  0
  1  2  4  0  0  0  0
  1  6  4  0  0  0  0
  1 18  1  0  0  0  0
  2  3  4  0  0  0  0
  3  4  4  0  0  0  0
  3 25  1  0  0  0  0
  4  5  4  0  0  0  0
  4  7  4  0  0  0  0
  5  6  4  0  0  0  0
  5  9  4  0  0  0  0
  7  8  4  0  0  0  0
  7 26  1  0  0  0  0
  8  9  4  0  0  0  0
  9 10  1  0  0  0  0
 10 11  4  0  0  0  0
 10 15  4  0  0  0  0
 11 12  4  0  0  0  0
 11 27  1  0  0  0  0
 12 13  4  0  0  0  0
 12 28  1  0  0  0  0
 13 14  4  0  0  0  0
 13 16  1  0  0  0  0
 14 15  4  0  0  0  0
 14 29  1  0  0  0  0
 15 30  1  0  0  0  0
 16 17  1  0  0  0  0
 17 31  1  0  0  0  0
 17 32  1  0  0  0  0
 17 33  1  0  0  0  0
 18 19  1  0  0  0  0
 18 34  1  0  0  0  0
 19 20  1  0  0  0  0
 19 23  1  0  0  0  0
 19 35  1  0  0  0  0
 20 21  1  0  0  0  0
 20 36  1  0  0  0  0
 20 37  1  0  0  0  0
 21 22  1  0  0  0  0
 21 38  1  0  0  0  0
 21 39  1  0  0  0  0
 22 23  1  0  0  0  0
 22 24  1  0  0  0  0
 22 40  1  0  0  0  0
 23 41  1  0  0  0  0
 23 42  1  0  0  0  0
 24 43  1  0  0  0  0
 24 44  1  0  0  0  0
M  END
> <ConfClashScore>
0 

> <ConfOneFourInteractionScore>
-0.984337 

> <ConfScore>
-0.127265 

> <ConfScorePBest>
0.00519261 

> <ConfTolerance>
0.196552 

$$$$
c22.sdf
 OpenBabel04162418103D

 44 47  0  0  0  0  0  0  0  0999 V2000
    4.3492    1.6016    0.2775 C   0  0  0  1  0  0  0  0  0  0  0  0
    4.9962    2.3430   -0.6274 N   0  0  0  1  0  0  0  0  0  0  0  0
    5.1269    3.6633   -0.3886 C   0  0  0  1  0  0  0  0  0  0  0  0
    4.5765    4.1980    0.8127 C   0  0  0  1  0  0  0  0  0  0  0  0
    3.9418    3.2812    1.6417 C   0  0  0  1  0  0  0  0  0  0  0  0
    3.7890    1.9531    1.4251 N   0  0  0  1  0  0  0  0  0  0  0  0
    4.4603    5.4228    1.5005 C   0  0  0  1  0  0  0  0  0  0  0  0
    3.8149    5.2858    2.6357 N   0  0  0  1  0  0  0  0  0  0  0  0
    3.4943    3.9593    2.7226 N   0  0  0  1  0  0  0  0  0  0  0  0
    2.7884    3.3744    3.7998 C   0  0  0  1  0  0  0  0  0  0  0  0
    2.0540    2.2209    3.5994 C   0  0  0  1  0  0  0  0  0  0  0  0
    1.3666    1.6448    4.6563 C   0  0  0  1  0  0  0  0  0  0  0  0
    1.4112    2.2267    5.9092 C   0  0  0  1  0  0  0  0  0  0  0  0
    2.1479    3.3837    6.1099 C   0  0  0  1  0  0  0  0  0  0  0  0
    2.8333    3.9583    5.0562 C   0  0  0  1  0  0  0  0  0  0  0  0
    0.7823    1.7621    7.0062 O   0  0  0  1  0  0  0  0  0  0  0  0
    0.1252    0.4841    6.8400 C   0  0  0  1  0  0  0  0  0  0  0  0
    4.2506    0.2760   -0.0289 N   0  0  0  1  0  0  0  0  0  0  0  0
    4.6594   -0.2406   -1.3232 C   0  0  0  1  0  0  0  0  0  0  0  0
    3.4634   -0.4227   -2.2477 C   0  0  0  1  0  0  0  0  0  0  0  0
    3.8680   -1.4699   -3.2764 C   0  0  0  1  0  0  0  0  0  0  0  0
    5.0616   -2.2139   -2.6740 C   0  0  0  1  0  0  0  0  0  0  0  0
    5.2125   -1.7098   -1.2027 C   0  0  0  1  0  0  0  0  0  0  0  0
    6.3010   -1.9111   -3.4505 N   0  0  0  1  0  0  0  0  0  0  0  0
    5.6191    4.2791   -1.0669 H   0  0  0  1  0  0  0  0  0  0  0  0
    4.8399    6.3258    1.1511 H   0  0  0  1  0  0  0  0  0  0  0  0
    2.0171    1.7852    2.6558 H   0  0  0  1  0  0  0  0  0  0  0  0
    0.8172    0.7745    4.5065 H   0  0  0  1  0  0  0  0  0  0  0  0
    2.1848    3.8194    7.0535 H   0  0  0  1  0  0  0  0  0  0  0  0
    3.3827    4.8285    5.2060 H   0  0  0  1  0  0  0  0  0  0  0  0
   -0.4808    0.2799    7.6979 H   0  0  0  1  0  0  0  0  0  0  0  0
    0.8621   -0.2843    6.7330 H   0  0  0  1  0  0  0  0  0  0  0  0
   -0.4917    0.5115    5.9662 H   0  0  0  1  0  0  0  0  0  0  0  0
    3.8947   -0.3438    0.6417 H   0  0  0  1  0  0  0  0  0  0  0  0
    5.3875    0.4138   -1.7552 H   0  0  0  1  0  0  0  0  0  0  0  0
    2.6141   -0.7602   -1.6912 H   0  0  0  1  0  0  0  0  0  0  0  0
    3.2279    0.5010   -2.7336 H   0  0  0  1  0  0  0  0  0  0  0  0
    3.0593   -2.1475   -3.4547 H   0  0  0  1  0  0  0  0  0  0  0  0
    4.1488   -0.9991   -4.1953 H   0  0  0  1  0  0  0  0  0  0  0  0
    4.8818   -3.2686   -2.6852 H   0  0  0  1  0  0  0  0  0  0  0  0
    6.2352   -1.7188   -0.8883 H   0  0  0  1  0  0  0  0  0  0  0  0
    4.6256   -2.2950   -0.5259 H   0  0  0  1  0  0  0  0  0  0  0  0
    6.5068   -0.9557   -3.3787 H   0  0  0  1  0  0  0  0  0  0  0  0
    6.1616   -2.1451   -4.3919 H   0  0  0  1  0  0  0  0  0  0  0  0
  1  2  4  0  0  0  0
  1  6  4  0  0  0  0
  1 18  1  0  0  0  0
  2  3  4  0  0  0  0
  3  4  4  0  0  0  0
  3 25  1  0  0  0  0
  4  5  4  0  0  0  0
  4  7  4  0  0  0  0
  5  6  4  0  0  0  0
  5  9  4  0  0  0  0
  7  8  4  0  0  0  0
  7 26  1  0  0  0  0
  8  9  4  0  0  0  0
  9 10  1  0  0  0  0
 10 11  4  0  0  0  0
 10 15  4  0  0  0  0
 11 12  4  0  0  0  0
 11 27  1  0  0  0  0
 12 13  4  0  0  0  0
 12 28  1  0  0  0  0
 13 14  4  0  0  0  0
 13 16  1  0  0  0  0
 14 15  4  0  0  0  0
 14 29  1  0  0  0  0
 15 30  1  0  0  0  0
 16 17  1  0  0  0  0
 17 31  1  0  0  0  0
 17 32  1  0  0  0  0
 17 33  1  0  0  0  0
 18 19  1  0  0  0  0
 18 34  1  0  0  0  0
 19 20  1  0  0  0  0
 19 23  1  0  0  0  0
 19 35  1  0  0  0  0
 20 21  1  0  0  0  0
 20 36  1  0  0  0  0
 20 37  1  0  0  0  0
 21 22  1  0  0  0  0
 21 38  1  0  0  0  0
 21 39  1  0  0  0  0
 22 23  1  0  0  0  0
 22 24  1  0  0  0  0
 22 40  1  0  0  0  0
 23 41  1  0  0  0  0
 23 42  1  0  0  0  0
 24 43  1  0  0  0  0
 24 44  1  0  0  0  0
M  END
> <ConfClashScore>
0 

> <ConfOneFourInteractionScore>
-0.984337 

> <ConfScore>
-0.127265 

> <ConfScorePBest>
0.00517929 

> <ConfTolerance>
0.232621 

$$$$
c22.sdf
 OpenBabel04162418103D

 44 47  0  0  0  0  0  0  0  0999 V2000
    3.4550    0.8919    0.7741 C   0  0  0  1  0  0  0  0  0  0  0  0
    3.5973    1.9827    0.0145 N   0  0  0  1  0  0  0  0  0  0  0  0
    3.1767    3.1621    0.5140 C   0  0  0  1  0  0  0  0  0  0  0  0
    2.6098    3.1870    1.8216 C   0  0  0  1  0  0  0  0  0  0  0  0
    2.5442    1.9601    2.4704 C   0  0  0  1  0  0  0  0  0  0  0  0
    2.9513    0.7603    1.9920 N   0  0  0  1  0  0  0  0  0  0  0  0
    2.0677    4.0977    2.7508 C   0  0  0  1  0  0  0  0  0  0  0  0
    1.6965    3.5007    3.8598 N   0  0  0  1  0  0  0  0  0  0  0  0
    1.9920    2.1770    3.6855 N   0  0  0  1  0  0  0  0  0  0  0  0
    1.7520    1.1689    4.6482 C   0  0  0  1  0  0  0  0  0  0  0  0
    2.8144    0.5282    5.2573 C   0  0  0  1  0  0  0  0  0  0  0  0
    2.5791   -0.4560    6.2046 C   0  0  0  1  0  0  0  0  0  0  0  0
    1.2823   -0.8005    6.5362 C   0  0  0  1  0  0  0  0  0  0  0  0
    0.2169   -0.1578    5.9251 C   0  0  0  1  0  0  0  0  0  0  0  0
    0.4513    0.8236    4.9805 C   0  0  0  1  0  0  0  0  0  0  0  0
    1.0565   -1.6972    7.5255 O   0  0  0  1  0  0  0  0  0  0  0  0
   -0.2993   -1.8535    7.9726 C   0  0  0  1  0  0  0  0  0  0  0  0
    3.8979   -0.2667    0.2062 N   0  0  0  1  0  0  0  0  0  0  0  0
    4.4772   -0.2919   -1.1364 C   0  0  0  1  0  0  0  0  0  0  0  0
    3.3731   -0.3165   -2.1968 C   0  0  0  1  0  0  0  0  0  0  0  0
    4.1133   -0.9369   -3.3889 C   0  0  0  1  0  0  0  0  0  0  0  0
    4.9595   -2.0491   -2.7820 C   0  0  0  1  0  0  0  0  0  0  0  0
    5.2750   -1.5872   -1.3546 C   0  0  0  1  0  0  0  0  0  0  0  0
    6.2092   -2.2305   -3.5560 N   0  0  0  1  0  0  0  0  0  0  0  0
    3.2640    4.0358   -0.0433 H   0  0  0  1  0  0  0  0  0  0  0  0
    1.9732    5.1191    2.5789 H   0  0  0  1  0  0  0  0  0  0  0  0
    3.7902    0.7845    5.0050 H   0  0  0  1  0  0  0  0  0  0  0  0
    3.3785   -0.9353    6.6660 H   0  0  0  1  0  0  0  0  0  0  0  0
   -0.7589   -0.4141    6.1775 H   0  0  0  1  0  0  0  0  0  0  0  0
   -0.3481    1.3029    4.5192 H   0  0  0  1  0  0  0  0  0  0  0  0
   -0.9344   -2.0345    7.1306 H   0  0  0  1  0  0  0  0  0  0  0  0
   -0.6150   -0.9614    8.4719 H   0  0  0  1  0  0  0  0  0  0  0  0
   -0.3586   -2.6811    8.6482 H   0  0  0  1  0  0  0  0  0  0  0  0
    3.8259   -1.1036    0.7108 H   0  0  0  1  0  0  0  0  0  0  0  0
    5.1064    0.5632   -1.2700 H   0  0  0  1  0  0  0  0  0  0  0  0
    3.0251    0.6698   -2.4225 H   0  0  0  1  0  0  0  0  0  0  0  0
    2.5482   -0.9245   -1.8890 H   0  0  0  1  0  0  0  0  0  0  0  0
    4.7344   -0.2088   -3.8676 H   0  0  0  1  0  0  0  0  0  0  0  0
    3.4186   -1.3357   -4.0983 H   0  0  0  1  0  0  0  0  0  0  0  0
    4.4128   -2.9688   -2.7656 H   0  0  0  1  0  0  0  0  0  0  0  0
    4.9727   -2.3321   -0.6485 H   0  0  0  1  0  0  0  0  0  0  0  0
    6.3231   -1.3993   -1.2489 H   0  0  0  1  0  0  0  0  0  0  0  0
    6.0006   -2.6350   -4.4240 H   0  0  0  1  0  0  0  0  0  0  0  0
    6.8179   -2.8172   -3.0604 H   0  0  0  1  0  0  0  0  0  0  0  0
  1  2  4  0  0  0  0
  1  6  4  0  0  0  0
  1 18  1  0  0  0  0
  2  3  4  0  0  0  0
  3  4  4  0  0  0  0
  3 25  1  0  0  0  0
  4  5  4  0  0  0  0
  4  7  4  0  0  0  0
  5  6  4  0  0  0  0
  5  9  4  0  0  0  0
  7  8  4  0  0  0  0
  7 26  1  0  0  0  0
  8  9  4  0  0  0  0
  9 10  1  0  0  0  0
 10 11  4  0  0  0  0
 10 15  4  0  0  0  0
 11 12  4  0  0  0  0
 11 27  1  0  0  0  0
 12 13  4  0  0  0  0
 12 28  1  0  0  0  0
 13 14  4  0  0  0  0
 13 16  1  0  0  0  0
 14 15  4  0  0  0  0
 14 29  1  0  0  0  0
 15 30  1  0  0  0  0
 16 17  1  0  0  0  0
 17 31  1  0  0  0  0
 17 32  1  0  0  0  0
 17 33  1  0  0  0  0
 18 19  1  0  0  0  0
 18 34  1  0  0  0  0
 19 20  1  0  0  0  0
 19 23  1  0  0  0  0
 19 35  1  0  0  0  0
 20 21  1  0  0  0  0
 20 36  1  0  0  0  0
 20 37  1  0  0  0  0
 21 22  1  0  0  0  0
 21 38  1  0  0  0  0
 21 39  1  0  0  0  0
 22 23  1  0  0  0  0
 22 24  1  0  0  0  0
 22 40  1  0  0  0  0
 23 41  1  0  0  0  0
 23 42  1  0  0  0  0
 24 43  1  0  0  0  0
 24 44  1  0  0  0  0
M  END
> <ConfClashScore>
0 

> <ConfOneFourInteractionScore>
-0.984337 

> <ConfScore>
-0.117562 

> <ConfScorePBest>
0.00516596 

> <ConfTolerance>
0.222839 

$$$$
c22.sdf
 OpenBabel04162418103D

 44 47  0  0  0  0  0  0  0  0999 V2000
    3.8207    1.1859    0.4866 C   0  0  0  1  0  0  0  0  0  0  0  0
    4.3567    2.1715   -0.2403 N   0  0  0  1  0  0  0  0  0  0  0  0
    4.2788    3.4283    0.2409 C   0  0  0  1  0  0  0  0  0  0  0  0
    3.6375    3.6408    1.4961 C   0  0  0  1  0  0  0  0  0  0  0  0
    3.1416    2.5009    2.1169 C   0  0  0  1  0  0  0  0  0  0  0  0
    3.1986    1.2290    1.6551 N   0  0  0  1  0  0  0  0  0  0  0  0
    3.3249    4.6841    2.3908 C   0  0  0  1  0  0  0  0  0  0  0  0
    2.6943    4.2425    3.4544 N   0  0  0  1  0  0  0  0  0  0  0  0
    2.5813    2.8904    3.2842 N   0  0  0  1  0  0  0  0  0  0  0  0
    1.9571    2.0106    4.2119 C   0  0  0  1  0  0  0  0  0  0  0  0
    1.1601    0.9797    3.7513 C   0  0  0  1  0  0  0  0  0  0  0  0
    0.6297    0.0617    4.6443 C   0  0  0  1  0  0  0  0  0  0  0  0
    0.8934    0.1804    5.9959 C   0  0  0  1  0  0  0  0  0  0  0  0
    1.6928    1.2144    6.4577 C   0  0  0  1  0  0  0  0  0  0  0  0
    2.2217    2.1298    5.5674 C   0  0  0  1  0  0  0  0  0  0  0  0
    0.3709   -0.7134    6.8688 O   0  0  0  1  0  0  0  0  0  0  0  0
    0.5669   -0.4556    8.2680 C   0  0  0  1  0  0  0  0  0  0  0  0
    3.9307   -0.0460   -0.0551 N   0  0  0  1  0  0  0  0  0  0  0  0
    4.6269   -0.3258   -1.3143 C   0  0  0  1  0  0  0  0  0  0  0  0
    3.6478   -0.2619   -2.4942 C   0  0  0  1  0  0  0  0  0  0  0  0
    3.6756   -1.6466   -3.1501 C   0  0  0  1  0  0  0  0  0  0  0  0
    5.0299   -2.2213   -2.7690 C   0  0  0  1  0  0  0  0  0  0  0  0
    5.1757   -1.7553   -1.3163 C   0  0  0  1  0  0  0  0  0  0  0  0
    6.1169   -1.6650   -3.6290 N   0  0  0  1  0  0  0  0  0  0  0  0
    4.6785    4.2265   -0.2926 H   0  0  0  1  0  0  0  0  0  0  0  0
    3.5648    5.6829    2.2281 H   0  0  0  1  0  0  0  0  0  0  0  0
    0.9584    0.8926    2.7348 H   0  0  0  1  0  0  0  0  0  0  0  0
    0.0333   -0.7164    4.2973 H   0  0  0  1  0  0  0  0  0  0  0  0
    1.8945    1.3015    7.4742 H   0  0  0  1  0  0  0  0  0  0  0  0
    2.8182    2.9079    5.9144 H   0  0  0  1  0  0  0  0  0  0  0  0
    1.6089   -0.3088    8.4616 H   0  0  0  1  0  0  0  0  0  0  0  0
    0.2127   -1.2897    8.8370 H   0  0  0  1  0  0  0  0  0  0  0  0
    0.0250    0.4236    8.5477 H   0  0  0  1  0  0  0  0  0  0  0  0
    3.5208   -0.7976    0.4219 H   0  0  0  1  0  0  0  0  0  0  0  0
    5.4203    0.3796   -1.4481 H   0  0  0  1  0  0  0  0  0  0  0  0
    3.9586    0.4857   -3.1937 H   0  0  0  1  0  0  0  0  0  0  0  0
    2.6615   -0.0369   -2.1455 H   0  0  0  1  0  0  0  0  0  0  0  0
    2.8846   -2.2600   -2.7719 H   0  0  0  1  0  0  0  0  0  0  0  0
    3.5858   -1.5632   -4.2131 H   0  0  0  1  0  0  0  0  0  0  0  0
    5.0321   -3.2892   -2.8368 H   0  0  0  1  0  0  0  0  0  0  0  0
    6.2029   -1.7661   -1.0172 H   0  0  0  1  0  0  0  0  0  0  0  0
    4.6060   -2.3797   -0.6602 H   0  0  0  1  0  0  0  0  0  0  0  0
    6.9805   -2.0272   -3.3400 H   0  0  0  1  0  0  0  0  0  0  0  0
    6.1292   -0.6884   -3.5487 H   0  0  0  1  0  0  0  0  0  0  0  0
  1  2  4  0  0  0  0
  1  6  4  0  0  0  0
  1 18  1  0  0  0  0
  2  3  4  0  0  0  0
  3  4  4  0  0  0  0
  3 25  1  0  0  0  0
  4  5  4  0  0  0  0
  4  7  4  0  0  0  0
  5  6  4  0  0  0  0
  5  9  4  0  0  0  0
  7  8  4  0  0  0  0
  7 26  1  0  0  0  0
  8  9  4  0  0  0  0
  9 10  1  0  0  0  0
 10 11  4  0  0  0  0
 10 15  4  0  0  0  0
 11 12  4  0  0  0  0
 11 27  1  0  0  0  0
 12 13  4  0  0  0  0
 12 28  1  0  0  0  0
 13 14  4  0  0  0  0
 13 16  1  0  0  0  0
 14 15  4  0  0  0  0
 14 29  1  0  0  0  0
 15 30  1  0  0  0  0
 16 17  1  0  0  0  0
 17 31  1  0  0  0  0
 17 32  1  0  0  0  0
 17 33  1  0  0  0  0
 18 19  1  0  0  0  0
 18 34  1  0  0  0  0
 19 20  1  0  0  0  0
 19 23  1  0  0  0  0
 19 35  1  0  0  0  0
 20 21  1  0  0  0  0
 20 36  1  0  0  0  0
 20 37  1  0  0  0  0
 21 22  1  0  0  0  0
 21 38  1  0  0  0  0
 21 39  1  0  0  0  0
 22 23  1  0  0  0  0
 22 24  1  0  0  0  0
 22 40  1  0  0  0  0
 23 41  1  0  0  0  0
 23 42  1  0  0  0  0
 24 43  1  0  0  0  0
 24 44  1  0  0  0  0
M  END
> <ConfClashScore>
0 

> <ConfOneFourInteractionScore>
-0.984337 

> <ConfScore>
-0.115556 

> <ConfScorePBest>
0.00515263 

> <ConfTolerance>
0.217438 

$$$$
c22.sdf
 OpenBabel04162418103D

 44 47  0  0  0  0  0  0  0  0999 V2000
    4.3957    1.4808    0.3812 C   0  0  0  1  0  0  0  0  0  0  0  0
    4.8654    2.3253   -0.5425 N   0  0  0  1  0  0  0  0  0  0  0  0
    4.9809    3.6269   -0.2110 C   0  0  0  1  0  0  0  0  0  0  0  0
    4.6036    4.0335    1.1021 C   0  0  0  1  0  0  0  0  0  0  0  0
    4.1410    3.0212    1.9338 C   0  0  0  1  0  0  0  0  0  0  0  0
    4.0075    1.7089    1.6268 N   0  0  0  1  0  0  0  0  0  0  0  0
    4.5488    5.1910    1.9046 C   0  0  0  1  0  0  0  0  0  0  0  0
    4.0933    4.9295    3.1080 N   0  0  0  1  0  0  0  0  0  0  0  0
    3.8411    3.5856    3.1254 N   0  0  0  1  0  0  0  0  0  0  0  0
    3.3358    2.8823    4.2375 C   0  0  0  1  0  0  0  0  0  0  0  0
    2.4873    1.7994    4.1053 C   0  0  0  1  0  0  0  0  0  0  0  0
    2.0240    1.1404    5.2334 C   0  0  0  1  0  0  0  0  0  0  0  0
    2.4061    1.5695    6.4904 C   0  0  0  1  0  0  0  0  0  0  0  0
    3.2571    2.6557    6.6228 C   0  0  0  1  0  0  0  0  0  0  0  0
    3.7191    3.3129    5.4982 C   0  0  0  1  0  0  0  0  0  0  0  0
    1.8774    0.9930    7.5919 O   0  0  0  1  0  0  0  0  0  0  0  0
    2.0505    1.6219    8.8714 C   0  0  0  1  0  0  0  0  0  0  0  0
    4.3025    0.1943   -0.0179 N   0  0  0  1  0  0  0  0  0  0  0  0
    4.6872   -0.2768   -1.3493 C   0  0  0  1  0  0  0  0  0  0  0  0
    3.4941   -0.2793   -2.3088 C   0  0  0  1  0  0  0  0  0  0  0  0
    3.8464   -1.3156   -3.3877 C   0  0  0  1  0  0  0  0  0  0  0  0
    4.9305   -2.2138   -2.7809 C   0  0  0  1  0  0  0  0  0  0  0  0
    5.0632   -1.7641   -1.3312 C   0  0  0  1  0  0  0  0  0  0  0  0
    6.2134   -2.0344   -3.4985 N   0  0  0  1  0  0  0  0  0  0  0  0
    5.3378    4.3201   -0.8992 H   0  0  0  1  0  0  0  0  0  0  0  0
    4.8346    6.1377    1.5825 H   0  0  0  1  0  0  0  0  0  0  0  0
    2.1965    1.4789    3.1596 H   0  0  0  1  0  0  0  0  0  0  0  0
    1.3887    0.3230    5.1338 H   0  0  0  1  0  0  0  0  0  0  0  0
    3.5479    2.9762    7.5685 H   0  0  0  1  0  0  0  0  0  0  0  0
    4.3544    4.1303    5.5977 H   0  0  0  1  0  0  0  0  0  0  0  0
    1.6021    2.5933    8.8554 H   0  0  0  1  0  0  0  0  0  0  0  0
    3.0949    1.7149    9.0844 H   0  0  0  1  0  0  0  0  0  0  0  0
    1.5834    1.0261    9.6275 H   0  0  0  1  0  0  0  0  0  0  0  0
    3.9569   -0.4629    0.6216 H   0  0  0  1  0  0  0  0  0  0  0  0
    5.4889    0.3251   -1.7233 H   0  0  0  1  0  0  0  0  0  0  0  0
    3.3629    0.6881   -2.7466 H   0  0  0  1  0  0  0  0  0  0  0  0
    2.5998   -0.5628   -1.7943 H   0  0  0  1  0  0  0  0  0  0  0  0
    2.9834   -1.8953   -3.6407 H   0  0  0  1  0  0  0  0  0  0  0  0
    4.2177   -0.8267   -4.2641 H   0  0  0  1  0  0  0  0  0  0  0  0
    4.6353   -3.2412   -2.8286 H   0  0  0  1  0  0  0  0  0  0  0  0
    4.3947   -2.3146   -0.7028 H   0  0  0  1  0  0  0  0  0  0  0  0
    6.0674   -1.8952   -0.9860 H   0  0  0  1  0  0  0  0  0  0  0  0
    6.9102   -2.5670   -3.0612 H   0  0  0  1  0  0  0  0  0  0  0  0
    6.4673   -1.0879   -3.4816 H   0  0  0  1  0  0  0  0  0  0  0  0
  1  2  4  0  0  0  0
  1  6  4  0  0  0  0
  1 18  1  0  0  0  0
  2  3  4  0  0  0  0
  3  4  4  0  0  0  0
  3 25  1  0  0  0  0
  4  5  4  0  0  0  0
  4  7  4  0  0  0  0
  5  6  4  0  0  0  0
  5  9  4  0  0  0  0
  7  8  4  0  0  0  0
  7 26  1  0  0  0  0
  8  9  4  0  0  0  0
  9 10  1  0  0  0  0
 10 11  4  0  0  0  0
 10 15  4  0  0  0  0
 11 12  4  0  0  0  0
 11 27  1  0  0  0  0
 12 13  4  0  0  0  0
 12 28  1  0  0  0  0
 13 14  4  0  0  0  0
 13 16  1  0  0  0  0
 14 15  4  0  0  0  0
 14 29  1  0  0  0  0
 15 30  1  0  0  0  0
 16 17  1  0  0  0  0
 17 31  1  0  0  0  0
 17 32  1  0  0  0  0
 17 33  1  0  0  0  0
 18 19  1  0  0  0  0
 18 34  1  0  0  0  0
 19 20  1  0  0  0  0
 19 23  1  0  0  0  0
 19 35  1  0  0  0  0
 20 21  1  0  0  0  0
 20 36  1  0  0  0  0
 20 37  1  0  0  0  0
 21 22  1  0  0  0  0
 21 38  1  0  0  0  0
 21 39  1  0  0  0  0
 22 23  1  0  0  0  0
 22 24  1  0  0  0  0
 22 40  1  0  0  0  0
 23 41  1  0  0  0  0
 23 42  1  0  0  0  0
 24 43  1  0  0  0  0
 24 44  1  0  0  0  0
M  END
> <ConfClashScore>
0 

> <ConfOneFourInteractionScore>
-0.984337 

> <ConfScore>
-0.115556 

> <ConfScorePBest>
0.0051393 

> <ConfTolerance>
0.251925 

$$$$
c22.sdf
 OpenBabel04162418103D

 44 47  0  0  0  0  0  0  0  0999 V2000
    2.9384   -0.6244    1.0233 C   0  0  0  1  0  0  0  0  0  0  0  0
    2.9430    0.7124    1.0081 N   0  0  0  1  0  0  0  0  0  0  0  0
    2.3092    1.3596    2.0065 C   0  0  0  1  0  0  0  0  0  0  0  0
    1.6746    0.5902    3.0250 C   0  0  0  1  0  0  0  0  0  0  0  0
    1.7738   -0.7885    2.8847 C   0  0  0  1  0  0  0  0  0  0  0  0
    2.3964   -1.4658    1.8908 N   0  0  0  1  0  0  0  0  0  0  0  0
    0.9412    0.7637    4.2161 C   0  0  0  1  0  0  0  0  0  0  0  0
    0.6115   -0.3859    4.7581 N   0  0  0  1  0  0  0  0  0  0  0  0
    1.1276   -1.3467    3.9332 N   0  0  0  1  0  0  0  0  0  0  0  0
    1.0013   -2.7486    4.1495 C   0  0  0  1  0  0  0  0  0  0  0  0
    1.0612   -3.6210    3.0793 C   0  0  0  1  0  0  0  0  0  0  0  0
    0.9435   -4.9859    3.2905 C   0  0  0  1  0  0  0  0  0  0  0  0
    0.7610   -5.4741    4.5707 C   0  0  0  1  0  0  0  0  0  0  0  0
    0.7010   -4.5989    5.6440 C   0  0  0  1  0  0  0  0  0  0  0  0
    0.8182   -3.2379    5.4335 C   0  0  0  1  0  0  0  0  0  0  0  0
    0.6340   -6.7943    4.8441 O   0  0  0  1  0  0  0  0  0  0  0  0
    0.1511   -7.1507    6.1488 C   0  0  0  1  0  0  0  0  0  0  0  0
    3.5876   -1.2079   -0.0068 N   0  0  0  1  0  0  0  0  0  0  0  0
    4.2974   -0.4686   -1.0433 C   0  0  0  1  0  0  0  0  0  0  0  0
    3.3974   -0.2813   -2.2664 C   0  0  0  1  0  0  0  0  0  0  0  0
    4.0125   -1.1263   -3.3736 C   0  0  0  1  0  0  0  0  0  0  0  0
    4.9298   -2.1317   -2.6909 C   0  0  0  1  0  0  0  0  0  0  0  0
    5.5462   -1.2773   -1.5209 C   0  0  0  1  0  0  0  0  0  0  0  0
    5.9932   -2.6188   -3.6262 N   0  0  0  1  0  0  0  0  0  0  0  0
    2.2838    2.3990    2.0331 H   0  0  0  1  0  0  0  0  0  0  0  0
    0.6914    1.6902    4.6172 H   0  0  0  1  0  0  0  0  0  0  0  0
    1.1945   -3.2535    2.1156 H   0  0  0  1  0  0  0  0  0  0  0  0
    0.9926   -5.6428    2.4857 H   0  0  0  1  0  0  0  0  0  0  0  0
    0.5677   -4.9664    6.6077 H   0  0  0  1  0  0  0  0  0  0  0  0
    0.7691   -2.5811    6.2383 H   0  0  0  1  0  0  0  0  0  0  0  0
    0.8360   -6.7987    6.8917 H   0  0  0  1  0  0  0  0  0  0  0  0
    0.0654   -8.2149    6.2187 H   0  0  0  1  0  0  0  0  0  0  0  0
   -0.8081   -6.7039    6.3081 H   0  0  0  1  0  0  0  0  0  0  0  0
    3.5812   -2.1864   -0.0607 H   0  0  0  1  0  0  0  0  0  0  0  0
    4.5999    0.4833   -0.6595 H   0  0  0  1  0  0  0  0  0  0  0  0
    2.4040   -0.6161   -2.0516 H   0  0  0  1  0  0  0  0  0  0  0  0
    3.3725    0.7487   -2.5552 H   0  0  0  1  0  0  0  0  0  0  0  0
    3.2457   -1.6362   -3.9186 H   0  0  0  1  0  0  0  0  0  0  0  0
    4.5744   -0.5077   -4.0418 H   0  0  0  1  0  0  0  0  0  0  0  0
    4.3773   -2.9662   -2.3124 H   0  0  0  1  0  0  0  0  0  0  0  0
    5.9309   -1.9008   -0.7410 H   0  0  0  1  0  0  0  0  0  0  0  0
    6.3206   -0.6293   -1.8749 H   0  0  0  1  0  0  0  0  0  0  0  0
    6.6946   -3.0742   -3.1152 H   0  0  0  1  0  0  0  0  0  0  0  0
    6.3808   -1.8568   -4.1051 H   0  0  0  1  0  0  0  0  0  0  0  0
  1  2  4  0  0  0  0
  1  6  4  0  0  0  0
  1 18  1  0  0  0  0
  2  3  4  0  0  0  0
  3  4  4  0  0  0  0
  3 25  1  0  0  0  0
  4  5  4  0  0  0  0
  4  7  4  0  0  0  0
  5  6  4  0  0  0  0
  5  9  4  0  0  0  0
  7  8  4  0  0  0  0
  7 26  1  0  0  0  0
  8  9  4  0  0  0  0
  9 10  1  0  0  0  0
 10 11  4  0  0  0  0
 10 15  4  0  0  0  0
 11 12  4  0  0  0  0
 11 27  1  0  0  0  0
 12 13  4  0  0  0  0
 12 28  1  0  0  0  0
 13 14  4  0  0  0  0
 13 16  1  0  0  0  0
 14 15  4  0  0  0  0
 14 29  1  0  0  0  0
 15 30  1  0  0  0  0
 16 17  1  0  0  0  0
 17 31  1  0  0  0  0
 17 32  1  0  0  0  0
 17 33  1  0  0  0  0
 18 19  1  0  0  0  0
 18 34  1  0  0  0  0
 19 20  1  0  0  0  0
 19 23  1  0  0  0  0
 19 35  1  0  0  0  0
 20 21  1  0  0  0  0
 20 36  1  0  0  0  0
 20 37  1  0  0  0  0
 21 22  1  0  0  0  0
 21 38  1  0  0  0  0
 21 39  1  0  0  0  0
 22 23  1  0  0  0  0
 22 24  1  0  0  0  0
 22 40  1  0  0  0  0
 23 41  1  0  0  0  0
 23 42  1  0  0  0  0
 24 43  1  0  0  0  0
 24 44  1  0  0  0  0
M  END
> <ConfClashScore>
0 

> <ConfOneFourInteractionScore>
-0.984337 

> <ConfScore>
-0.115556 

> <ConfScorePBest>
0.00512597 

> <ConfTolerance>
0.239951 

$$$$
c22.sdf
 OpenBabel04162418103D

 44 47  0  0  0  0  0  0  0  0999 V2000
    4.8212    0.3318    1.1429 C   0  0  0  1  0  0  0  0  0  0  0  0
    6.1164    0.4797    0.8468 N   0  0  0  1  0  0  0  0  0  0  0  0
    6.9484    0.8837    1.8275 C   0  0  0  1  0  0  0  0  0  0  0  0
    6.4091    1.1260    3.1245 C   0  0  0  1  0  0  0  0  0  0  0  0
    5.0416    0.9167    3.2541 C   0  0  0  1  0  0  0  0  0  0  0  0
    4.1809    0.5189    2.2872 N   0  0  0  1  0  0  0  0  0  0  0  0
    6.8212    1.5199    4.4136 C   0  0  0  1  0  0  0  0  0  0  0  0
    5.8155    1.5591    5.2569 N   0  0  0  1  0  0  0  0  0  0  0  0
    4.7138    1.1853    4.5382 N   0  0  0  1  0  0  0  0  0  0  0  0
    3.3952    1.0913    5.0718 C   0  0  0  1  0  0  0  0  0  0  0  0
    2.6295   -0.0521    4.9432 C   0  0  0  1  0  0  0  0  0  0  0  0
    1.3935   -0.1319    5.5655 C   0  0  0  1  0  0  0  0  0  0  0  0
    0.9244    0.9338    6.3102 C   0  0  0  1  0  0  0  0  0  0  0  0
    1.6925    2.0806    6.4390 C   0  0  0  1  0  0  0  0  0  0  0  0
    2.9250    2.1603    5.8185 C   0  0  0  1  0  0  0  0  0  0  0  0
   -0.2861    0.7947    6.8848 O   0  0  0  1  0  0  0  0  0  0  0  0
   -0.7556    1.9538    7.6118 C   0  0  0  1  0  0  0  0  0  0  0  0
    4.0400   -0.0735    0.1090 N   0  0  0  1  0  0  0  0  0  0  0  0
    4.5346   -0.2859   -1.2550 C   0  0  0  1  0  0  0  0  0  0  0  0
    3.3696   -0.3581   -2.2482 C   0  0  0  1  0  0  0  0  0  0  0  0
    4.0026   -1.0831   -3.4244 C   0  0  0  1  0  0  0  0  0  0  0  0
    4.8900   -2.1548   -2.7824 C   0  0  0  1  0  0  0  0  0  0  0  0
    5.2259   -1.6471   -1.3738 C   0  0  0  1  0  0  0  0  0  0  0  0
    6.1405   -2.3360   -3.5787 N   0  0  0  1  0  0  0  0  0  0  0  0
    7.9631    1.0159    1.6416 H   0  0  0  1  0  0  0  0  0  0  0  0
    7.8031    1.7514    4.6663 H   0  0  0  1  0  0  0  0  0  0  0  0
    2.9807   -0.8525    4.3796 H   0  0  0  1  0  0  0  0  0  0  0  0
    0.8191   -0.9938    5.4722 H   0  0  0  1  0  0  0  0  0  0  0  0
    1.3414    2.8810    7.0026 H   0  0  0  1  0  0  0  0  0  0  0  0
    3.4995    3.0222    5.9119 H   0  0  0  1  0  0  0  0  0  0  0  0
   -0.6706    2.8223    6.9926 H   0  0  0  1  0  0  0  0  0  0  0  0
   -0.1637    2.0854    8.4934 H   0  0  0  1  0  0  0  0  0  0  0  0
   -1.7797    1.8112    7.8871 H   0  0  0  1  0  0  0  0  0  0  0  0
    3.0892   -0.2336    0.2848 H   0  0  0  1  0  0  0  0  0  0  0  0
    5.2071    0.5037   -1.5181 H   0  0  0  1  0  0  0  0  0  0  0  0
    3.0361    0.6194   -2.5279 H   0  0  0  1  0  0  0  0  0  0  0  0
    2.5489   -0.9138   -1.8450 H   0  0  0  1  0  0  0  0  0  0  0  0
    3.2517   -1.5330   -4.0397 H   0  0  0  1  0  0  0  0  0  0  0  0
    4.5896   -0.4089   -4.0126 H   0  0  0  1  0  0  0  0  0  0  0  0
    4.3649   -3.0853   -2.7254 H   0  0  0  1  0  0  0  0  0  0  0  0
    4.8512   -2.3227   -0.6335 H   0  0  0  1  0  0  0  0  0  0  0  0
    6.2842   -1.5405   -1.2571 H   0  0  0  1  0  0  0  0  0  0  0  0
    6.7291   -2.9733   -3.1230 H   0  0  0  1  0  0  0  0  0  0  0  0
    6.5987   -1.4743   -3.6675 H   0  0  0  1  0  0  0  0  0  0  0  0
  1  2  4  0  0  0  0
  1  6  4  0  0  0  0
  1 18  1  0  0  0  0
  2  3  4  0  0  0  0
  3  4  4  0  0  0  0
  3 25  1  0  0  0  0
  4  5  4  0  0  0  0
  4  7  4  0  0  0  0
  5  6  4  0  0  0  0
  5  9  4  0  0  0  0
  7  8  4  0  0  0  0
  7 26  1  0  0  0  0
  8  9  4  0  0  0  0
  9 10  1  0  0  0  0
 10 11  4  0  0  0  0
 10 15  4  0  0  0  0
 11 12  4  0  0  0  0
 11 27  1  0  0  0  0
 12 13  4  0  0  0  0
 12 28  1  0  0  0  0
 13 14  4  0  0  0  0
 13 16  1  0  0  0  0
 14 15  4  0  0  0  0
 14 29  1  0  0  0  0
 15 30  1  0  0  0  0
 16 17  1  0  0  0  0
 17 31  1  0  0  0  0
 17 32  1  0  0  0  0
 17 33  1  0  0  0  0
 18 19  1  0  0  0  0
 18 34  1  0  0  0  0
 19 20  1  0  0  0  0
 19 23  1  0  0  0  0
 19 35  1  0  0  0  0
 20 21  1  0  0  0  0
 20 36  1  0  0  0  0
 20 37  1  0  0  0  0
 21 22  1  0  0  0  0
 21 38  1  0  0  0  0
 21 39  1  0  0  0  0
 22 23  1  0  0  0  0
 22 24  1  0  0  0  0
 22 40  1  0  0  0  0
 23 41  1  0  0  0  0
 23 42  1  0  0  0  0
 24 43  1  0  0  0  0
 24 44  1  0  0  0  0
M  END
> <ConfClashScore>
0 

> <ConfOneFourInteractionScore>
-0.984337 

> <ConfScore>
-0.115079 

> <ConfScorePBest>
0.00511265 

> <ConfTolerance>
0.228713 

$$$$
c22.sdf
 OpenBabel04162418103D

 44 47  0  0  0  0  0  0  0  0999 V2000
    4.5607    0.4082    0.9941 C   0  0  0  1  0  0  0  0  0  0  0  0
    5.8479    0.6520    0.7280 N   0  0  0  1  0  0  0  0  0  0  0  0
    6.6065    1.1880    1.7050 C   0  0  0  1  0  0  0  0  0  0  0  0
    6.0025    1.4609    2.9670 C   0  0  0  1  0  0  0  0  0  0  0  0
    4.6546    1.1395    3.0689 C   0  0  0  1  0  0  0  0  0  0  0  0
    3.8665    0.6079    2.1043 N   0  0  0  1  0  0  0  0  0  0  0  0
    6.3330    1.9686    4.2397 C   0  0  0  1  0  0  0  0  0  0  0  0
    5.2984    1.9703    5.0482 N   0  0  0  1  0  0  0  0  0  0  0  0
    4.2595    1.4566    4.3226 N   0  0  0  1  0  0  0  0  0  0  0  0
    2.9508    1.2809    4.8158 C   0  0  0  1  0  0  0  0  0  0  0  0
    2.2339    2.4150    5.1477 C   0  0  0  1  0  0  0  0  0  0  0  0
    0.9403    2.2999    5.6324 C   0  0  0  1  0  0  0  0  0  0  0  0
    0.3693    1.0510    5.7888 C   0  0  0  1  0  0  0  0  0  0  0  0
    1.0885   -0.0864    5.4559 C   0  0  0  1  0  0  0  0  0  0  0  0
    2.3783    0.0282    4.9726 C   0  0  0  1  0  0  0  0  0  0  0  0
   -0.8730    0.8157    6.2537 O   0  0  0  1  0  0  0  0  0  0  0  0
   -1.6504    1.9993    6.5492 C   0  0  0  1  0  0  0  0  0  0  0  0
    3.8355   -0.1424   -0.0622 N   0  0  0  1  0  0  0  0  0  0  0  0
    4.6002   -0.3379   -1.2982 C   0  0  0  1  0  0  0  0  0  0  0  0
    3.6719   -0.2563   -2.5157 C   0  0  0  1  0  0  0  0  0  0  0  0
    3.6711   -1.6560   -3.1176 C   0  0  0  1  0  0  0  0  0  0  0  0
    5.0488   -2.2318   -2.7655 C   0  0  0  1  0  0  0  0  0  0  0  0
    5.2198   -1.7440   -1.3243 C   0  0  0  1  0  0  0  0  0  0  0  0
    6.0964   -1.6932   -3.6428 N   0  0  0  1  0  0  0  0  0  0  0  0
    7.6118    1.3981    1.5413 H   0  0  0  1  0  0  0  0  0  0  0  0
    7.2815    2.3016    4.5061 H   0  0  0  1  0  0  0  0  0  0  0  0
    2.6649    3.3546    5.0339 H   0  0  0  1  0  0  0  0  0  0  0  0
    0.3994    3.1534    5.8784 H   0  0  0  1  0  0  0  0  0  0  0  0
    0.6575   -1.0260    5.5698 H   0  0  0  1  0  0  0  0  0  0  0  0
    2.9193   -0.8252    4.7266 H   0  0  0  1  0  0  0  0  0  0  0  0
   -1.6570    2.6446    5.6957 H   0  0  0  1  0  0  0  0  0  0  0  0
   -1.2155    2.5129    7.3810 H   0  0  0  1  0  0  0  0  0  0  0  0
   -2.6539    1.7158    6.7894 H   0  0  0  1  0  0  0  0  0  0  0  0
    2.8880   -0.3804    0.0154 H   0  0  0  1  0  0  0  0  0  0  0  0
    5.3662    0.4061   -1.3657 H   0  0  0  1  0  0  0  0  0  0  0  0
    2.6836    0.0223   -2.2148 H   0  0  0  1  0  0  0  0  0  0  0  0
    4.0438    0.4551   -3.2230 H   0  0  0  1  0  0  0  0  0  0  0  0
    3.5413   -1.6103   -4.1787 H   0  0  0  1  0  0  0  0  0  0  0  0
    2.8925   -2.2510   -2.6879 H   0  0  0  1  0  0  0  0  0  0  0  0
    5.0519   -3.3004   -2.8199 H   0  0  0  1  0  0  0  0  0  0  0  0
    6.2565   -1.7019   -1.0632 H   0  0  0  1  0  0  0  0  0  0  0  0
    4.7065   -2.3926   -0.6455 H   0  0  0  1  0  0  0  0  0  0  0  0
    6.9772   -1.9131   -3.2738 H   0  0  0  1  0  0  0  0  0  0  0  0
    6.0020   -0.7197   -3.7043 H   0  0  0  1  0  0  0  0  0  0  0  0
  1  2  4  0  0  0  0
  1  6  4  0  0  0  0
  1 18  1  0  0  0  0
  2  3  4  0  0  0  0
  3  4  4  0  0  0  0
  3 25  1  0  0  0  0
  4  5  4  0  0  0  0
  4  7  4  0  0  0  0
  5  6  4  0  0  0  0
  5  9  4  0  0  0  0
  7  8  4  0  0  0  0
  7 26  1  0  0  0  0
  8  9  4  0  0  0  0
  9 10  1  0  0  0  0
 10 11  4  0  0  0  0
 10 15  4  0  0  0  0
 11 12  4  0  0  0  0
 11 27  1  0  0  0  0
 12 13  4  0  0  0  0
 12 28  1  0  0  0  0
 13 14  4  0  0  0  0
 13 16  1  0  0  0  0
 14 15  4  0  0  0  0
 14 29  1  0  0  0  0
 15 30  1  0  0  0  0
 16 17  1  0  0  0  0
 17 31  1  0  0  0  0
 17 32  1  0  0  0  0
 17 33  1  0  0  0  0
 18 19  1  0  0  0  0
 18 34  1  0  0  0  0
 19 20  1  0  0  0  0
 19 23  1  0  0  0  0
 19 35  1  0  0  0  0
 20 21  1  0  0  0  0
 20 36  1  0  0  0  0
 20 37  1  0  0  0  0
 21 22  1  0  0  0  0
 21 38  1  0  0  0  0
 21 39  1  0  0  0  0
 22 23  1  0  0  0  0
 22 24  1  0  0  0  0
 22 40  1  0  0  0  0
 23 41  1  0  0  0  0
 23 42  1  0  0  0  0
 24 43  1  0  0  0  0
 24 44  1  0  0  0  0
M  END
> <ConfClashScore>
0 

> <ConfOneFourInteractionScore>
-0.984337 

> <ConfScore>
-0.115079 

> <ConfScorePBest>
0.00509932 

> <ConfTolerance>
0.275725 

$$$$
c22.sdf
 OpenBabel04162418103D

 44 47  0  0  0  0  0  0  0  0999 V2000
    3.2980   -1.0699    1.1293 C   0  0  0  1  0  0  0  0  0  0  0  0
    4.2921   -0.3605    1.6730 N   0  0  0  1  0  0  0  0  0  0  0  0
    4.3148   -0.2259    3.0141 C   0  0  0  1  0  0  0  0  0  0  0  0
    3.2865   -0.8480    3.7807 C   0  0  0  1  0  0  0  0  0  0  0  0
    2.3358   -1.5506    3.0506 C   0  0  0  1  0  0  0  0  0  0  0  0
    2.2832   -1.6968    1.7052 N   0  0  0  1  0  0  0  0  0  0  0  0
    2.8851   -1.0162    5.1213 C   0  0  0  1  0  0  0  0  0  0  0  0
    1.7947   -1.7415    5.2170 N   0  0  0  1  0  0  0  0  0  0  0  0
    1.4552   -2.0722    3.9343 N   0  0  0  1  0  0  0  0  0  0  0  0
    0.3247   -2.8610    3.5768 C   0  0  0  1  0  0  0  0  0  0  0  0
   -0.9396   -2.4824    3.9871 C   0  0  0  1  0  0  0  0  0  0  0  0
   -2.0405   -3.2473    3.6345 C   0  0  0  1  0  0  0  0  0  0  0  0
   -1.8734   -4.3914    2.8773 C   0  0  0  1  0  0  0  0  0  0  0  0
   -0.6053   -4.7710    2.4659 C   0  0  0  1  0  0  0  0  0  0  0  0
    0.4926   -4.0084    2.8173 C   0  0  0  1  0  0  0  0  0  0  0  0
   -2.9589   -5.1680    2.6480 O   0  0  0  1  0  0  0  0  0  0  0  0
   -4.2449   -4.6032    2.9474 C   0  0  0  1  0  0  0  0  0  0  0  0
    3.3339   -1.1616   -0.2172 N   0  0  0  1  0  0  0  0  0  0  0  0
    4.3077   -0.4587   -1.0588 C   0  0  0  1  0  0  0  0  0  0  0  0
    3.7158   -0.1106   -2.4307 C   0  0  0  1  0  0  0  0  0  0  0  0
    3.7532   -1.4187   -3.2110 C   0  0  0  1  0  0  0  0  0  0  0  0
    4.9470   -2.1961   -2.6445 C   0  0  0  1  0  0  0  0  0  0  0  0
    5.4691   -1.3742   -1.4554 C   0  0  0  1  0  0  0  0  0  0  0  0
    6.0165   -2.3389   -3.6872 N   0  0  0  1  0  0  0  0  0  0  0  0
    5.0671    0.3206    3.4800 H   0  0  0  1  0  0  0  0  0  0  0  0
    3.3913   -0.6145    5.9362 H   0  0  0  1  0  0  0  0  0  0  0  0
   -1.0649   -1.6237    4.5603 H   0  0  0  1  0  0  0  0  0  0  0  0
   -2.9923   -2.9602    3.9399 H   0  0  0  1  0  0  0  0  0  0  0  0
   -0.4799   -5.6297    1.8927 H   0  0  0  1  0  0  0  0  0  0  0  0
    1.4444   -4.2954    2.5120 H   0  0  0  1  0  0  0  0  0  0  0  0
   -4.4921   -3.8675    2.2108 H   0  0  0  1  0  0  0  0  0  0  0  0
   -4.2165   -4.1447    3.9137 H   0  0  0  1  0  0  0  0  0  0  0  0
   -4.9842   -5.3768    2.9407 H   0  0  0  1  0  0  0  0  0  0  0  0
    2.6699   -1.7317   -0.6583 H   0  0  0  1  0  0  0  0  0  0  0  0
    4.6550    0.4156   -0.5491 H   0  0  0  1  0  0  0  0  0  0  0  0
    2.7098    0.2398   -2.3297 H   0  0  0  1  0  0  0  0  0  0  0  0
    4.3069    0.6364   -2.9181 H   0  0  0  1  0  0  0  0  0  0  0  0
    2.8462   -1.9674   -3.0656 H   0  0  0  1  0  0  0  0  0  0  0  0
    3.8919   -1.2281   -4.2548 H   0  0  0  1  0  0  0  0  0  0  0  0
    4.6359   -3.1660   -2.3167 H   0  0  0  1  0  0  0  0  0  0  0  0
    6.3210   -0.7952   -1.7450 H   0  0  0  1  0  0  0  0  0  0  0  0
    5.7340   -2.0174   -0.6424 H   0  0  0  1  0  0  0  0  0  0  0  0
    6.8429   -2.6563   -3.2669 H   0  0  0  1  0  0  0  0  0  0  0  0
    6.1783   -1.4698   -4.1101 H   0  0  0  1  0  0  0  0  0  0  0  0
  1  2  4  0  0  0  0
  1  6  4  0  0  0  0
  1 18  1  0  0  0  0
  2  3  4  0  0  0  0
  3  4  4  0  0  0  0
  3 25  1  0  0  0  0
  4  5  4  0  0  0  0
  4  7  4  0  0  0  0
  5  6  4  0  0  0  0
  5  9  4  0  0  0  0
  7  8  4  0  0  0  0
  7 26  1  0  0  0  0
  8  9  4  0  0  0  0
  9 10  1  0  0  0  0
 10 11  4  0  0  0  0
 10 15  4  0  0  0  0
 11 12  4  0  0  0  0
 11 27  1  0  0  0  0
 12 13  4  0  0  0  0
 12 28  1  0  0  0  0
 13 14  4  0  0  0  0
 13 16  1  0  0  0  0
 14 15  4  0  0  0  0
 14 29  1  0  0  0  0
 15 30  1  0  0  0  0
 16 17  1  0  0  0  0
 17 31  1  0  0  0  0
 17 32  1  0  0  0  0
 17 33  1  0  0  0  0
 18 19  1  0  0  0  0
 18 34  1  0  0  0  0
 19 20  1  0  0  0  0
 19 23  1  0  0  0  0
 19 35  1  0  0  0  0
 20 21  1  0  0  0  0
 20 36  1  0  0  0  0
 20 37  1  0  0  0  0
 21 22  1  0  0  0  0
 21 38  1  0  0  0  0
 21 39  1  0  0  0  0
 22 23  1  0  0  0  0
 22 24  1  0  0  0  0
 22 40  1  0  0  0  0
 23 41  1  0  0  0  0
 23 42  1  0  0  0  0
 24 43  1  0  0  0  0
 24 44  1  0  0  0  0
M  END
> <ConfClashScore>
0 

> <ConfOneFourInteractionScore>
-0.984337 

> <ConfScore>
-0.115079 

> <ConfScorePBest>
0.00508599 

> <ConfTolerance>
0.22354 

$$$$
c22.sdf
 OpenBabel04162418103D

 44 47  0  0  0  0  0  0  0  0999 V2000
    3.8886    0.3411    1.0747 C   0  0  0  1  0  0  0  0  0  0  0  0
    5.0722    0.9610    1.1179 N   0  0  0  1  0  0  0  0  0  0  0  0
    5.4078    1.6079    2.2521 C   0  0  0  1  0  0  0  0  0  0  0  0
    4.4911    1.5935    3.3436 C   0  0  0  1  0  0  0  0  0  0  0  0
    3.3095    0.8957    3.1254 C   0  0  0  1  0  0  0  0  0  0  0  0
    2.9425    0.2437    1.9965 N   0  0  0  1  0  0  0  0  0  0  0  0
    4.3724    2.0676    4.6657 C   0  0  0  1  0  0  0  0  0  0  0  0
    3.2335    1.7092    5.2122 N   0  0  0  1  0  0  0  0  0  0  0  0
    2.5760    0.9835    4.2579 N   0  0  0  1  0  0  0  0  0  0  0  0
    1.3089    0.4067    4.4308 C   0  0  0  1  0  0  0  0  0  0  0  0
    0.9908   -0.8989    4.1076 C   0  0  0  1  0  0  0  0  0  0  0  0
   -0.2938   -1.3730    4.3237 C   0  0  0  1  0  0  0  0  0  0  0  0
   -1.2578   -0.5386    4.8574 C   0  0  0  1  0  0  0  0  0  0  0  0
   -0.9386    0.7708    5.1814 C   0  0  0  1  0  0  0  0  0  0  0  0
    0.3422    1.2436    4.9660 C   0  0  0  1  0  0  0  0  0  0  0  0
   -2.5076   -0.9979    5.0625 O   0  0  0  1  0  0  0  0  0  0  0  0
   -3.4079   -0.0602    5.6972 C   0  0  0  1  0  0  0  0  0  0  0  0
    3.6158   -0.2808   -0.0864 N   0  0  0  1  0  0  0  0  0  0  0  0
    4.5337   -0.3176   -1.2293 C   0  0  0  1  0  0  0  0  0  0  0  0
    3.7661   -0.1919   -2.5415 C   0  0  0  1  0  0  0  0  0  0  0  0
    3.6302   -1.6011   -3.1310 C   0  0  0  1  0  0  0  0  0  0  0  0
    4.9996   -2.2538   -2.7441 C   0  0  0  1  0  0  0  0  0  0  0  0
    5.2457   -1.7119   -1.3238 C   0  0  0  1  0  0  0  0  0  0  0  0
    6.0842   -1.8247   -3.6797 N   0  0  0  1  0  0  0  0  0  0  0  0
    6.3168    2.1072    2.3291 H   0  0  0  1  0  0  0  0  0  0  0  0
    5.0989    2.6328    5.1497 H   0  0  0  1  0  0  0  0  0  0  0  0
    1.7151   -1.5256    3.7024 H   0  0  0  1  0  0  0  0  0  0  0  0
   -0.5321   -2.3566    4.0843 H   0  0  0  1  0  0  0  0  0  0  0  0
   -1.6629    1.3975    5.5867 H   0  0  0  1  0  0  0  0  0  0  0  0
    0.5806    2.2272    5.2054 H   0  0  0  1  0  0  0  0  0  0  0  0
   -3.6297    0.7369    5.0188 H   0  0  0  1  0  0  0  0  0  0  0  0
   -2.9459    0.3381    6.5763 H   0  0  0  1  0  0  0  0  0  0  0  0
   -4.3138   -0.5621    5.9659 H   0  0  0  1  0  0  0  0  0  0  0  0
    2.7525   -0.7364   -0.1736 H   0  0  0  1  0  0  0  0  0  0  0  0
    5.2530    0.4689   -1.1351 H   0  0  0  1  0  0  0  0  0  0  0  0
    2.7969    0.2232   -2.3596 H   0  0  0  1  0  0  0  0  0  0  0  0
    4.3028    0.4378   -3.2199 H   0  0  0  1  0  0  0  0  0  0  0  0
    2.8105   -2.1288   -2.6899 H   0  0  0  1  0  0  0  0  0  0  0  0
    3.5030   -1.5669   -4.1929 H   0  0  0  1  0  0  0  0  0  0  0  0
    4.9309   -3.3216   -2.7426 H   0  0  0  1  0  0  0  0  0  0  0  0
    4.8346   -2.3832   -0.5991 H   0  0  0  1  0  0  0  0  0  0  0  0
    6.2958   -1.5995   -1.1514 H   0  0  0  1  0  0  0  0  0  0  0  0
    6.9450   -2.1696   -3.3628 H   0  0  0  1  0  0  0  0  0  0  0  0
    6.1173   -0.8459   -3.7141 H   0  0  0  1  0  0  0  0  0  0  0  0
  1  2  4  0  0  0  0
  1  6  4  0  0  0  0
  1 18  1  0  0  0  0
  2  3  4  0  0  0  0
  3  4  4  0  0  0  0
  3 25  1  0  0  0  0
  4  5  4  0  0  0  0
  4  7  4  0  0  0  0
  5  6  4  0  0  0  0
  5  9  4  0  0  0  0
  7  8  4  0  0  0  0
  7 26  1  0  0  0  0
  8  9  4  0  0  0  0
  9 10  1  0  0  0  0
 10 11  4  0  0  0  0
 10 15  4  0  0  0  0
 11 12  4  0  0  0  0
 11 27  1  0  0  0  0
 12 13  4  0  0  0  0
 12 28  1  0  0  0  0
 13 14  4  0  0  0  0
 13 16  1  0  0  0  0
 14 15  4  0  0  0  0
 14 29  1  0  0  0  0
 15 30  1  0  0  0  0
 16 17  1  0  0  0  0
 17 31  1  0  0  0  0
 17 32  1  0  0  0  0
 17 33  1  0  0  0  0
 18 19  1  0  0  0  0
 18 34  1  0  0  0  0
 19 20  1  0  0  0  0
 19 23  1  0  0  0  0
 19 35  1  0  0  0  0
 20 21  1  0  0  0  0
 20 36  1  0  0  0  0
 20 37  1  0  0  0  0
 21 22  1  0  0  0  0
 21 38  1  0  0  0  0
 21 39  1  0  0  0  0
 22 23  1  0  0  0  0
 22 24  1  0  0  0  0
 22 40  1  0  0  0  0
 23 41  1  0  0  0  0
 23 42  1  0  0  0  0
 24 43  1  0  0  0  0
 24 44  1  0  0  0  0
M  END
> <ConfClashScore>
0 

> <ConfOneFourInteractionScore>
-0.984337 

> <ConfScore>
-0.115079 

> <ConfScorePBest>
0.00507266 

> <ConfTolerance>
0.275444 

$$$$
c22.sdf
 OpenBabel04162418103D

 44 47  0  0  0  0  0  0  0  0999 V2000
    3.5938    0.5598    1.1191 C   0  0  0  1  0  0  0  0  0  0  0  0
    3.8537    1.7880    0.6596 N   0  0  0  1  0  0  0  0  0  0  0  0
    3.6501    2.8311    1.4890 C   0  0  0  1  0  0  0  0  0  0  0  0
    3.1760    2.5726    2.8082 C   0  0  0  1  0  0  0  0  0  0  0  0
    2.9641    1.2348    3.1180 C   0  0  0  1  0  0  0  0  0  0  0  0
    3.1525    0.1683    2.3049 N   0  0  0  1  0  0  0  0  0  0  0  0
    2.8382    3.2584    3.9924 C   0  0  0  1  0  0  0  0  0  0  0  0
    2.4497    2.4356    4.9390 N   0  0  0  1  0  0  0  0  0  0  0  0
    2.5281    1.1827    4.3969 N   0  0  0  1  0  0  0  0  0  0  0  0
    2.1949   -0.0174    5.0874 C   0  0  0  1  0  0  0  0  0  0  0  0
    2.2719   -0.0652    6.4665 C   0  0  0  1  0  0  0  0  0  0  0  0
    1.9424   -1.2317    7.1389 C   0  0  0  1  0  0  0  0  0  0  0  0
    1.5420   -2.3486    6.4300 C   0  0  0  1  0  0  0  0  0  0  0  0
    1.4648   -2.3005    5.0468 C   0  0  0  1  0  0  0  0  0  0  0  0
    1.7933   -1.1374    4.3762 C   0  0  0  1  0  0  0  0  0  0  0  0
    1.2514   -3.4291    7.1929 O   0  0  0  1  0  0  0  0  0  0  0  0
    0.8217   -4.6147    6.5123 C   0  0  0  1  0  0  0  0  0  0  0  0
    3.8151   -0.4337    0.2396 N   0  0  0  1  0  0  0  0  0  0  0  0
    4.3846   -0.3571   -1.1000 C   0  0  0  1  0  0  0  0  0  0  0  0
    3.2847   -0.4760   -2.1584 C   0  0  0  1  0  0  0  0  0  0  0  0
    4.0834   -0.9764   -3.3689 C   0  0  0  1  0  0  0  0  0  0  0  0
    5.0519   -2.0033   -2.7951 C   0  0  0  1  0  0  0  0  0  0  0  0
    5.3212   -1.5485   -1.3560 C   0  0  0  1  0  0  0  0  0  0  0  0
    6.3103   -2.0222   -3.5768 N   0  0  0  1  0  0  0  0  0  0  0  0
    3.8351    3.8044    1.1728 H   0  0  0  1  0  0  0  0  0  0  0  0
    2.8904    4.2912    4.1029 H   0  0  0  1  0  0  0  0  0  0  0  0
    2.5770    0.7739    6.9998 H   0  0  0  1  0  0  0  0  0  0  0  0
    1.9964   -1.2665    8.1769 H   0  0  0  1  0  0  0  0  0  0  0  0
    1.1597   -3.1397    4.5135 H   0  0  0  1  0  0  0  0  0  0  0  0
    1.7393   -1.1026    3.3382 H   0  0  0  1  0  0  0  0  0  0  0  0
    0.6635   -5.3977    7.2241 H   0  0  0  1  0  0  0  0  0  0  0  0
    1.5728   -4.9158    5.8122 H   0  0  0  1  0  0  0  0  0  0  0  0
   -0.0920   -4.4158    5.9922 H   0  0  0  1  0  0  0  0  0  0  0  0
    3.5586   -1.3305    0.5402 H   0  0  0  1  0  0  0  0  0  0  0  0
    4.9136    0.5663   -1.2109 H   0  0  0  1  0  0  0  0  0  0  0  0
    2.5347   -1.1808   -1.8658 H   0  0  0  1  0  0  0  0  0  0  0  0
    2.8274    0.4711   -2.3556 H   0  0  0  1  0  0  0  0  0  0  0  0
    3.4340   -1.4308   -4.0876 H   0  0  0  1  0  0  0  0  0  0  0  0
    4.6166   -0.1706   -3.8284 H   0  0  0  1  0  0  0  0  0  0  0  0
    4.6116   -2.9785   -2.8033 H   0  0  0  1  0  0  0  0  0  0  0  0
    6.3422   -1.2474   -1.2473 H   0  0  0  1  0  0  0  0  0  0  0  0
    5.1078   -2.3418   -0.6704 H   0  0  0  1  0  0  0  0  0  0  0  0
    6.1114   -2.2383   -4.5118 H   0  0  0  1  0  0  0  0  0  0  0  0
    6.9143   -2.6994   -3.2067 H   0  0  0  1  0  0  0  0  0  0  0  0
  1  2  4  0  0  0  0
  1  6  4  0  0  0  0
  1 18  1  0  0  0  0
  2  3  4  0  0  0  0
  3  4  4  0  0  0  0
  3 25  1  0  0  0  0
  4  5  4  0  0  0  0
  4  7  4  0  0  0  0
  5  6  4  0  0  0  0
  5  9  4  0  0  0  0
  7  8  4  0  0  0  0
  7 26  1  0  0  0  0
  8  9  4  0  0  0  0
  9 10  1  0  0  0  0
 10 11  4  0  0  0  0
 10 15  4  0  0  0  0
 11 12  4  0  0  0  0
 11 27  1  0  0  0  0
 12 13  4  0  0  0  0
 12 28  1  0  0  0  0
 13 14  4  0  0  0  0
 13 16  1  0  0  0  0
 14 15  4  0  0  0  0
 14 29  1  0  0  0  0
 15 30  1  0  0  0  0
 16 17  1  0  0  0  0
 17 31  1  0  0  0  0
 17 32  1  0  0  0  0
 17 33  1  0  0  0  0
 18 19  1  0  0  0  0
 18 34  1  0  0  0  0
 19 20  1  0  0  0  0
 19 23  1  0  0  0  0
 19 35  1  0  0  0  0
 20 21  1  0  0  0  0
 20 36  1  0  0  0  0
 20 37  1  0  0  0  0
 21 22  1  0  0  0  0
 21 38  1  0  0  0  0
 21 39  1  0  0  0  0
 22 23  1  0  0  0  0
 22 24  1  0  0  0  0
 22 40  1  0  0  0  0
 23 41  1  0  0  0  0
 23 42  1  0  0  0  0
 24 43  1  0  0  0  0
 24 44  1  0  0  0  0
M  END
> <ConfClashScore>
0 

> <ConfOneFourInteractionScore>
-0.984337 

> <ConfScore>
-0.112904 

> <ConfScorePBest>
0.00505933 

> <ConfTolerance>
0.254051 

$$$$
c22.sdf
 OpenBabel04162418103D

 44 47  0  0  0  0  0  0  0  0999 V2000
    2.6830   -0.6221    0.9276 C   0  0  0  1  0  0  0  0  0  0  0  0
    1.9623   -1.4575    1.6825 N   0  0  0  1  0  0  0  0  0  0  0  0
    1.2588   -0.9378    2.7083 C   0  0  0  1  0  0  0  0  0  0  0  0
    1.3143    0.4690    2.9314 C   0  0  0  1  0  0  0  0  0  0  0  0
    2.1099    1.1858    2.0461 C   0  0  0  1  0  0  0  0  0  0  0  0
    2.8323    0.6912    1.0129 N   0  0  0  1  0  0  0  0  0  0  0  0
    0.7898    1.4509    3.7961 C   0  0  0  1  0  0  0  0  0  0  0  0
    1.2187    2.6528    3.4870 N   0  0  0  1  0  0  0  0  0  0  0  0
    2.0360    2.4879    2.4032 N   0  0  0  1  0  0  0  0  0  0  0  0
    2.7115    3.5359    1.7457 C   0  0  0  1  0  0  0  0  0  0  0  0
    2.2190    4.8169    1.9085 C   0  0  0  1  0  0  0  0  0  0  0  0
    2.8482    5.8852    1.2885 C   0  0  0  1  0  0  0  0  0  0  0  0
    3.9649    5.6687    0.5033 C   0  0  0  1  0  0  0  0  0  0  0  0
    4.4587    4.3838    0.3401 C   0  0  0  1  0  0  0  0  0  0  0  0
    3.8314    3.3185    0.9582 C   0  0  0  1  0  0  0  0  0  0  0  0
    4.6542    6.6241   -0.1500 O   0  0  0  1  0  0  0  0  0  0  0  0
    4.1869    7.9753    0.0705 C   0  0  0  1  0  0  0  0  0  0  0  0
    3.3627   -1.2066   -0.0753 N   0  0  0  1  0  0  0  0  0  0  0  0
    4.2482   -0.4836   -0.9923 C   0  0  0  1  0  0  0  0  0  0  0  0
    3.5200   -0.1902   -2.3056 C   0  0  0  1  0  0  0  0  0  0  0  0
    4.2066   -1.0409   -3.3655 C   0  0  0  1  0  0  0  0  0  0  0  0
    4.9618   -2.1330   -2.6203 C   0  0  0  1  0  0  0  0  0  0  0  0
    5.4875   -1.3654   -1.3501 C   0  0  0  1  0  0  0  0  0  0  0  0
    6.1043   -2.6695   -3.4469 N   0  0  0  1  0  0  0  0  0  0  0  0
    0.6873   -1.5506    3.3242 H   0  0  0  1  0  0  0  0  0  0  0  0
    0.1416    1.2479    4.5836 H   0  0  0  1  0  0  0  0  0  0  0  0
    1.3764    4.9794    2.4960 H   0  0  0  1  0  0  0  0  0  0  0  0
    2.4800    6.8496    1.4142 H   0  0  0  1  0  0  0  0  0  0  0  0
    5.3013    4.2213   -0.2475 H   0  0  0  1  0  0  0  0  0  0  0  0
    4.1996    2.3540    0.8325 H   0  0  0  1  0  0  0  0  0  0  0  0
    4.6368    8.6302   -0.6461 H   0  0  0  1  0  0  0  0  0  0  0  0
    4.4556    8.2886    1.0577 H   0  0  0  1  0  0  0  0  0  0  0  0
    3.1228    8.0064   -0.0369 H   0  0  0  1  0  0  0  0  0  0  0  0
    3.2596   -2.1732   -0.2002 H   0  0  0  1  0  0  0  0  0  0  0  0
    4.5662    0.4303   -0.5355 H   0  0  0  1  0  0  0  0  0  0  0  0
    3.6017    0.8479   -2.5520 H   0  0  0  1  0  0  0  0  0  0  0  0
    2.4872   -0.4581   -2.2258 H   0  0  0  1  0  0  0  0  0  0  0  0
    3.4792   -1.4748   -4.0193 H   0  0  0  1  0  0  0  0  0  0  0  0
    4.8875   -0.4433   -3.9349 H   0  0  0  1  0  0  0  0  0  0  0  0
    4.3110   -2.9368   -2.3461 H   0  0  0  1  0  0  0  0  0  0  0  0
    6.3423   -0.7647   -1.5812 H   0  0  0  1  0  0  0  0  0  0  0  0
    5.7299   -2.0410   -0.5565 H   0  0  0  1  0  0  0  0  0  0  0  0
    6.6198   -1.9225   -3.8164 H   0  0  0  1  0  0  0  0  0  0  0  0
    5.7491   -3.2150   -4.1795 H   0  0  0  1  0  0  0  0  0  0  0  0
  1  2  4  0  0  0  0
  1  6  4  0  0  0  0
  1 18  1  0  0  0  0
  2  3  4  0  0  0  0
  3  4  4  0  0  0  0
  3 25  1  0  0  0  0
  4  5  4  0  0  0  0
  4  7  4  0  0  0  0
  5  6  4  0  0  0  0
  5  9  4  0  0  0  0
  7  8  4  0  0  0  0
  7 26  1  0  0  0  0
  8  9  4  0  0  0  0
  9 10  1  0  0  0  0
 10 11  4  0  0  0  0
 10 15  4  0  0  0  0
 11 12  4  0  0  0  0
 11 27  1  0  0  0  0
 12 13  4  0  0  0  0
 12 28  1  0  0  0  0
 13 14  4  0  0  0  0
 13 16  1  0  0  0  0
 14 15  4  0  0  0  0
 14 29  1  0  0  0  0
 15 30  1  0  0  0  0
 16 17  1  0  0  0  0
 17 31  1  0  0  0  0
 17 32  1  0  0  0  0
 17 33  1  0  0  0  0
 18 19  1  0  0  0  0
 18 34  1  0  0  0  0
 19 20  1  0  0  0  0
 19 23  1  0  0  0  0
 19 35  1  0  0  0  0
 20 21  1  0  0  0  0
 20 36  1  0  0  0  0
 20 37  1  0  0  0  0
 21 22  1  0  0  0  0
 21 38  1  0  0  0  0
 21 39  1  0  0  0  0
 22 23  1  0  0  0  0
 22 24  1  0  0  0  0
 22 40  1  0  0  0  0
 23 41  1  0  0  0  0
 23 42  1  0  0  0  0
 24 43  1  0  0  0  0
 24 44  1  0  0  0  0
M  END
> <ConfClashScore>
0 

> <ConfOneFourInteractionScore>
-0.984337 

> <ConfScore>
-0.112554 

> <ConfScorePBest>
0.005046 

> <ConfTolerance>
0.277843 

$$$$
c22.sdf
 OpenBabel04162418103D

 44 47  0  0  0  0  0  0  0  0999 V2000
    3.6848    1.1375    0.5234 C   0  0  0  1  0  0  0  0  0  0  0  0
    2.8547    1.2179    1.5681 N   0  0  0  1  0  0  0  0  0  0  0  0
    2.7734    2.3929    2.2240 C   0  0  0  1  0  0  0  0  0  0  0  0
    3.5681    3.4854    1.7694 C   0  0  0  1  0  0  0  0  0  0  0  0
    4.3705    3.2250    0.6655 C   0  0  0  1  0  0  0  0  0  0  0  0
    4.4782    2.0551   -0.0083 N   0  0  0  1  0  0  0  0  0  0  0  0
    3.8251    4.8381    2.0710 C   0  0  0  1  0  0  0  0  0  0  0  0
    4.7010    5.3641    1.2462 N   0  0  0  1  0  0  0  0  0  0  0  0
    5.0382    4.3647    0.3761 N   0  0  0  1  0  0  0  0  0  0  0  0
    5.9549    4.5033   -0.6768 C   0  0  0  1  0  0  0  0  0  0  0  0
    6.1437    5.6629   -1.4047 C   0  0  0  1  0  0  0  0  0  0  0  0
    7.0819    5.6957   -2.4247 C   0  0  0  1  0  0  0  0  0  0  0  0
    7.8246    4.5674   -2.7173 C   0  0  0  1  0  0  0  0  0  0  0  0
    7.6350    3.4045   -1.9872 C   0  0  0  1  0  0  0  0  0  0  0  0
    6.6996    3.3716   -0.9701 C   0  0  0  1  0  0  0  0  0  0  0  0
    8.6500    4.6083   -3.7901 O   0  0  0  1  0  0  0  0  0  0  0  0
    8.5556    5.7568   -4.6472 C   0  0  0  1  0  0  0  0  0  0  0  0
    3.7204   -0.0800   -0.0910 N   0  0  0  1  0  0  0  0  0  0  0  0
    4.6012   -0.3409   -1.2298 C   0  0  0  1  0  0  0  0  0  0  0  0
    3.8313   -0.1772   -2.5454 C   0  0  0  1  0  0  0  0  0  0  0  0
    3.7777   -1.5711   -3.1584 C   0  0  0  1  0  0  0  0  0  0  0  0
    5.0495   -2.2664   -2.6556 C   0  0  0  1  0  0  0  0  0  0  0  0
    5.0941   -1.7963   -1.1992 C   0  0  0  1  0  0  0  0  0  0  0  0
    6.2606   -1.8123   -3.4162 N   0  0  0  1  0  0  0  0  0  0  0  0
    2.1437    2.5000    3.0448 H   0  0  0  1  0  0  0  0  0  0  0  0
    3.3753    5.3568    2.8522 H   0  0  0  1  0  0  0  0  0  0  0  0
    5.5821    6.5107   -1.1872 H   0  0  0  1  0  0  0  0  0  0  0  0
    7.2268    6.5695   -2.9698 H   0  0  0  1  0  0  0  0  0  0  0  0
    8.1967    2.5566   -2.2046 H   0  0  0  1  0  0  0  0  0  0  0  0
    6.5546    2.4979   -0.4250 H   0  0  0  1  0  0  0  0  0  0  0  0
    7.5554    5.8455   -5.0168 H   0  0  0  1  0  0  0  0  0  0  0  0
    9.2307    5.6441   -5.4697 H   0  0  0  1  0  0  0  0  0  0  0  0
    8.8105    6.6364   -4.0939 H   0  0  0  1  0  0  0  0  0  0  0  0
    3.1409   -0.7982    0.2387 H   0  0  0  1  0  0  0  0  0  0  0  0
    5.4322    0.3325   -1.2003 H   0  0  0  1  0  0  0  0  0  0  0  0
    2.8430    0.1874   -2.3578 H   0  0  0  1  0  0  0  0  0  0  0  0
    4.3437    0.4990   -3.1974 H   0  0  0  1  0  0  0  0  0  0  0  0
    3.7765   -1.5135   -4.2269 H   0  0  0  1  0  0  0  0  0  0  0  0
    2.9054   -2.0952   -2.8280 H   0  0  0  1  0  0  0  0  0  0  0  0
    4.9652   -3.3311   -2.7208 H   0  0  0  1  0  0  0  0  0  0  0  0
    4.4506   -2.3974   -0.5912 H   0  0  0  1  0  0  0  0  0  0  0  0
    6.0932   -1.8460   -0.8195 H   0  0  0  1  0  0  0  0  0  0  0  0
    6.3785   -0.8467   -3.2974 H   0  0  0  1  0  0  0  0  0  0  0  0
    6.1420   -2.0119   -4.3683 H   0  0  0  1  0  0  0  0  0  0  0  0
  1  2  4  0  0  0  0
  1  6  4  0  0  0  0
  1 18  1  0  0  0  0
  2  3  4  0  0  0  0
  3  4  4  0  0  0  0
  3 25  1  0  0  0  0
  4  5  4  0  0  0  0
  4  7  4  0  0  0  0
  5  6  4  0  0  0  0
  5  9  4  0  0  0  0
  7  8  4  0  0  0  0
  7 26  1  0  0  0  0
  8  9  4  0  0  0  0
  9 10  1  0  0  0  0
 10 11  4  0  0  0  0
 10 15  4  0  0  0  0
 11 12  4  0  0  0  0
 11 27  1  0  0  0  0
 12 13  4  0  0  0  0
 12 28  1  0  0  0  0
 13 14  4  0  0  0  0
 13 16  1  0  0  0  0
 14 15  4  0  0  0  0
 14 29  1  0  0  0  0
 15 30  1  0  0  0  0
 16 17  1  0  0  0  0
 17 31  1  0  0  0  0
 17 32  1  0  0  0  0
 17 33  1  0  0  0  0
 18 19  1  0  0  0  0
 18 34  1  0  0  0  0
 19 20  1  0  0  0  0
 19 23  1  0  0  0  0
 19 35  1  0  0  0  0
 20 21  1  0  0  0  0
 20 36  1  0  0  0  0
 20 37  1  0  0  0  0
 21 22  1  0  0  0  0
 21 38  1  0  0  0  0
 21 39  1  0  0  0  0
 22 23  1  0  0  0  0
 22 24  1  0  0  0  0
 22 40  1  0  0  0  0
 23 41  1  0  0  0  0
 23 42  1  0  0  0  0
 24 43  1  0  0  0  0
 24 44  1  0  0  0  0
M  END
> <ConfClashScore>
0 

> <ConfOneFourInteractionScore>
-0.984337 

> <ConfScore>
-0.112554 

> <ConfScorePBest>
0.00503268 

> <ConfTolerance>
0.253686 

$$$$
c22.sdf
 OpenBabel04162418103D

 44 47  0  0  0  0  0  0  0  0999 V2000
    3.0917   -1.1432    1.0608 C   0  0  0  1  0  0  0  0  0  0  0  0
    2.0357   -1.8043    1.5455 N   0  0  0  1  0  0  0  0  0  0  0  0
    1.8463   -1.8048    2.8802 C   0  0  0  1  0  0  0  0  0  0  0  0
    2.7733   -1.0998    3.7020 C   0  0  0  1  0  0  0  0  0  0  0  0
    3.8094   -0.4644    3.0286 C   0  0  0  1  0  0  0  0  0  0  0  0
    4.0289   -0.4524    1.6923 N   0  0  0  1  0  0  0  0  0  0  0  0
    3.0057   -0.7950    5.0584 C   0  0  0  1  0  0  0  0  0  0  0  0
    4.0779   -0.0534    5.2153 N   0  0  0  1  0  0  0  0  0  0  0  0
    4.5749    0.1510    3.9579 N   0  0  0  1  0  0  0  0  0  0  0  0
    5.7315    0.9033    3.6690 C   0  0  0  1  0  0  0  0  0  0  0  0
    5.7108    1.9984    2.8261 C   0  0  0  1  0  0  0  0  0  0  0  0
    6.8772    2.7060    2.5806 C   0  0  0  1  0  0  0  0  0  0  0  0
    8.0618    2.3134    3.1745 C   0  0  0  1  0  0  0  0  0  0  0  0
    8.0824    1.2150    4.0199 C   0  0  0  1  0  0  0  0  0  0  0  0
    6.9195    0.5093    4.2647 C   0  0  0  1  0  0  0  0  0  0  0  0
    9.1345    3.0763    2.8566 O   0  0  0  1  0  0  0  0  0  0  0  0
   10.3948    2.7128    3.4414 C   0  0  0  1  0  0  0  0  0  0  0  0
    3.2230   -1.1862   -0.2772 N   0  0  0  1  0  0  0  0  0  0  0  0
    4.2681   -0.4779   -1.0177 C   0  0  0  1  0  0  0  0  0  0  0  0
    3.7966   -0.0957   -2.4268 C   0  0  0  1  0  0  0  0  0  0  0  0
    3.8882   -1.3880   -3.2287 C   0  0  0  1  0  0  0  0  0  0  0  0
    5.0234   -2.1891   -2.5806 C   0  0  0  1  0  0  0  0  0  0  0  0
    5.4508   -1.3970   -1.3348 C   0  0  0  1  0  0  0  0  0  0  0  0
    6.1426   -2.3180   -3.5056 N   0  0  0  1  0  0  0  0  0  0  0  0
    1.0404   -2.3093    3.3016 H   0  0  0  1  0  0  0  0  0  0  0  0
    2.4011   -1.1183    5.8404 H   0  0  0  1  0  0  0  0  0  0  0  0
    4.8202    2.2915    2.3760 H   0  0  0  1  0  0  0  0  0  0  0  0
    6.8608    3.5324    1.9495 H   0  0  0  1  0  0  0  0  0  0  0  0
    8.9730    0.9218    4.4700 H   0  0  0  1  0  0  0  0  0  0  0  0
    6.9357   -0.3172    4.8958 H   0  0  0  1  0  0  0  0  0  0  0  0
   10.7020    1.7598    3.0641 H   0  0  0  1  0  0  0  0  0  0  0  0
   10.2918    2.6587    4.5050 H   0  0  0  1  0  0  0  0  0  0  0  0
   11.1296    3.4491    3.1907 H   0  0  0  1  0  0  0  0  0  0  0  0
    2.5809   -1.7237   -0.7864 H   0  0  0  1  0  0  0  0  0  0  0  0
    4.5789    0.3823   -0.4623 H   0  0  0  1  0  0  0  0  0  0  0  0
    2.7888    0.2629   -2.4030 H   0  0  0  1  0  0  0  0  0  0  0  0
    4.4330    0.6549   -2.8469 H   0  0  0  1  0  0  0  0  0  0  0  0
    2.9674   -1.9301   -3.1714 H   0  0  0  1  0  0  0  0  0  0  0  0
    4.1157   -1.1777   -4.2528 H   0  0  0  1  0  0  0  0  0  0  0  0
    4.6775   -3.1622   -2.3006 H   0  0  0  1  0  0  0  0  0  0  0  0
    6.3290   -0.8211   -1.5396 H   0  0  0  1  0  0  0  0  0  0  0  0
    5.6409   -2.0594   -0.5163 H   0  0  0  1  0  0  0  0  0  0  0  0
    6.5086   -1.4304   -3.7019 H   0  0  0  1  0  0  0  0  0  0  0  0
    5.8327   -2.7344   -4.3369 H   0  0  0  1  0  0  0  0  0  0  0  0
  1  2  4  0  0  0  0
  1  6  4  0  0  0  0
  1 18  1  0  0  0  0
  2  3  4  0  0  0  0
  3  4  4  0  0  0  0
  3 25  1  0  0  0  0
  4  5  4  0  0  0  0
  4  7  4  0  0  0  0
  5  6  4  0  0  0  0
  5  9  4  0  0  0  0
  7  8  4  0  0  0  0
  7 26  1  0  0  0  0
  8  9  4  0  0  0  0
  9 10  1  0  0  0  0
 10 11  4  0  0  0  0
 10 15  4  0  0  0  0
 11 12  4  0  0  0  0
 11 27  1  0  0  0  0
 12 13  4  0  0  0  0
 12 28  1  0  0  0  0
 13 14  4  0  0  0  0
 13 16  1  0  0  0  0
 14 15  4  0  0  0  0
 14 29  1  0  0  0  0
 15 30  1  0  0  0  0
 16 17  1  0  0  0  0
 17 31  1  0  0  0  0
 17 32  1  0  0  0  0
 17 33  1  0  0  0  0
 18 19  1  0  0  0  0
 18 34  1  0  0  0  0
 19 20  1  0  0  0  0
 19 23  1  0  0  0  0
 19 35  1  0  0  0  0
 20 21  1  0  0  0  0
 20 36  1  0  0  0  0
 20 37  1  0  0  0  0
 21 22  1  0  0  0  0
 21 38  1  0  0  0  0
 21 39  1  0  0  0  0
 22 23  1  0  0  0  0
 22 24  1  0  0  0  0
 22 40  1  0  0  0  0
 23 41  1  0  0  0  0
 23 42  1  0  0  0  0
 24 43  1  0  0  0  0
 24 44  1  0  0  0  0
M  END
> <ConfClashScore>
0 

> <ConfOneFourInteractionScore>
-0.984337 

> <ConfScore>
-0.112076 

> <ConfScorePBest>
0.00501935 

> <ConfTolerance>
0.225319 

$$$$
c22.sdf
 OpenBabel04162418103D

 44 47  0  0  0  0  0  0  0  0999 V2000
    2.6087   -0.4431    0.8134 C   0  0  0  1  0  0  0  0  0  0  0  0
    2.0128   -1.1797    1.7564 N   0  0  0  1  0  0  0  0  0  0  0  0
    1.1085   -0.5770    2.5541 C   0  0  0  1  0  0  0  0  0  0  0  0
    0.8311    0.8061    2.3492 C   0  0  0  1  0  0  0  0  0  0  0  0
    1.5395    1.4139    1.3199 C   0  0  0  1  0  0  0  0  0  0  0  0
    2.4574    0.8369    0.5084 N   0  0  0  1  0  0  0  0  0  0  0  0
    0.0165    1.8357    2.8619 C   0  0  0  1  0  0  0  0  0  0  0  0
    0.2022    2.9684    2.2242 N   0  0  0  1  0  0  0  0  0  0  0  0
    1.1453    2.7063    1.2694 N   0  0  0  1  0  0  0  0  0  0  0  0
    1.6462    3.6675    0.3441 C   0  0  0  1  0  0  0  0  0  0  0  0
    2.0049    4.9283    0.7822 C   0  0  0  1  0  0  0  0  0  0  0  0
    2.4089    5.8902   -0.1305 C   0  0  0  1  0  0  0  0  0  0  0  0
    2.4479    5.5902   -1.4791 C   0  0  0  1  0  0  0  0  0  0  0  0
    2.0881    4.3256   -1.9184 C   0  0  0  1  0  0  0  0  0  0  0  0
    1.6853    3.3664   -1.0084 C   0  0  0  1  0  0  0  0  0  0  0  0
    2.8505    6.6037   -2.2701 O   0  0  0  1  0  0  0  0  0  0  0  0
    2.8747    6.3036   -3.6850 C   0  0  0  1  0  0  0  0  0  0  0  0
    3.5143   -1.1146    0.0452 N   0  0  0  1  0  0  0  0  0  0  0  0
    4.3018   -0.4345   -0.9914 C   0  0  0  1  0  0  0  0  0  0  0  0
    3.4536   -0.2583   -2.2825 C   0  0  0  1  0  0  0  0  0  0  0  0
    4.0998   -1.1473   -3.3596 C   0  0  0  1  0  0  0  0  0  0  0  0
    5.0023   -2.1427   -2.6051 C   0  0  0  1  0  0  0  0  0  0  0  0
    5.5380   -1.3078   -1.3930 C   0  0  0  1  0  0  0  0  0  0  0  0
    6.1321   -2.6078   -3.4762 N   0  0  0  1  0  0  0  0  0  0  0  0
    0.6232   -1.1103    3.3036 H   0  0  0  1  0  0  0  0  0  0  0  0
   -0.6510    1.7132    3.6500 H   0  0  0  1  0  0  0  0  0  0  0  0
    1.9717    5.1554    1.7966 H   0  0  0  1  0  0  0  0  0  0  0  0
    2.6826    6.8376    0.1995 H   0  0  0  1  0  0  0  0  0  0  0  0
    2.1213    4.0985   -2.9328 H   0  0  0  1  0  0  0  0  0  0  0  0
    1.4115    2.4189   -1.3384 H   0  0  0  1  0  0  0  0  0  0  0  0
    3.6286    5.5703   -3.8817 H   0  0  0  1  0  0  0  0  0  0  0  0
    3.0927    7.1953   -4.2347 H   0  0  0  1  0  0  0  0  0  0  0  0
    1.9206    5.9233   -3.9850 H   0  0  0  1  0  0  0  0  0  0  0  0
    3.6427   -2.0754    0.1888 H   0  0  0  1  0  0  0  0  0  0  0  0
    4.6242    0.5185   -0.6273 H   0  0  0  1  0  0  0  0  0  0  0  0
    2.4445   -0.5674   -2.1059 H   0  0  0  1  0  0  0  0  0  0  0  0
    3.4643    0.7653   -2.5939 H   0  0  0  1  0  0  0  0  0  0  0  0
    4.6831   -0.5525   -4.0312 H   0  0  0  1  0  0  0  0  0  0  0  0
    3.3465   -1.6719   -3.9093 H   0  0  0  1  0  0  0  0  0  0  0  0
    4.4399   -2.9882   -2.2678 H   0  0  0  1  0  0  0  0  0  0  0  0
    6.3640   -0.6934   -1.6847 H   0  0  0  1  0  0  0  0  0  0  0  0
    5.8349   -1.9467   -0.5876 H   0  0  0  1  0  0  0  0  0  0  0  0
    6.6509   -1.8339   -3.7801 H   0  0  0  1  0  0  0  0  0  0  0  0
    5.7708   -3.0839   -4.2529 H   0  0  0  1  0  0  0  0  0  0  0  0
  1  2  4  0  0  0  0
  1  6  4  0  0  0  0
  1 18  1  0  0  0  0
  2  3  4  0  0  0  0
  3  4  4  0  0  0  0
  3 25  1  0  0  0  0
  4  5  4  0  0  0  0
  4  7  4  0  0  0  0
  5  6  4  0  0  0  0
  5  9  4  0  0  0  0
  7  8  4  0  0  0  0
  7 26  1  0  0  0  0
  8  9  4  0  0  0  0
  9 10  1  0  0  0  0
 10 11  4  0  0  0  0
 10 15  4  0  0  0  0
 11 12  4  0  0  0  0
 11 27  1  0  0  0  0
 12 13  4  0  0  0  0
 12 28  1  0  0  0  0
 13 14  4  0  0  0  0
 13 16  1  0  0  0  0
 14 15  4  0  0  0  0
 14 29  1  0  0  0  0
 15 30  1  0  0  0  0
 16 17  1  0  0  0  0
 17 31  1  0  0  0  0
 17 32  1  0  0  0  0
 17 33  1  0  0  0  0
 18 19  1  0  0  0  0
 18 34  1  0  0  0  0
 19 20  1  0  0  0  0
 19 23  1  0  0  0  0
 19 35  1  0  0  0  0
 20 21  1  0  0  0  0
 20 36  1  0  0  0  0
 20 37  1  0  0  0  0
 21 22  1  0  0  0  0
 21 38  1  0  0  0  0
 21 39  1  0  0  0  0
 22 23  1  0  0  0  0
 22 24  1  0  0  0  0
 22 40  1  0  0  0  0
 23 41  1  0  0  0  0
 23 42  1  0  0  0  0
 24 43  1  0  0  0  0
 24 44  1  0  0  0  0
M  END
> <ConfClashScore>
0 

> <ConfOneFourInteractionScore>
-0.984337 

> <ConfScore>
-0.111618 

> <ConfScorePBest>
0.00500602 

> <ConfTolerance>
0.251875 

$$$$
c22.sdf
 OpenBabel04162418103D

 44 47  0  0  0  0  0  0  0  0999 V2000
    4.2310    0.2850    1.1123 C   0  0  0  1  0  0  0  0  0  0  0  0
    5.5533    0.4688    1.1822 N   0  0  0  1  0  0  0  0  0  0  0  0
    6.0712    0.9091    2.3463 C   0  0  0  1  0  0  0  0  0  0  0  0
    5.1883    1.1497    3.4393 C   0  0  0  1  0  0  0  0  0  0  0  0
    3.8442    0.9006    3.1906 C   0  0  0  1  0  0  0  0  0  0  0  0
    3.2949    0.4656    2.0317 N   0  0  0  1  0  0  0  0  0  0  0  0
    5.2179    1.5708    4.7841 C   0  0  0  1  0  0  0  0  0  0  0  0
    4.0176    1.5891    5.3163 N   0  0  0  1  0  0  0  0  0  0  0  0
    3.1676    1.1738    4.3290 N   0  0  0  1  0  0  0  0  0  0  0  0
    1.7668    1.0468    4.4787 C   0  0  0  1  0  0  0  0  0  0  0  0
    1.2268    0.7707    5.7205 C   0  0  0  1  0  0  0  0  0  0  0  0
   -0.1464    0.6516    5.8682 C   0  0  0  1  0  0  0  0  0  0  0  0
   -0.9751    0.8037    4.7726 C   0  0  0  1  0  0  0  0  0  0  0  0
   -0.4334    1.0807    3.5270 C   0  0  0  1  0  0  0  0  0  0  0  0
    0.9358    1.1995    3.3797 C   0  0  0  1  0  0  0  0  0  0  0  0
   -2.2954    0.6604    5.0373 O   0  0  0  1  0  0  0  0  0  0  0  0
   -3.2130    0.9376    3.9679 C   0  0  0  1  0  0  0  0  0  0  0  0
    3.7809   -0.1517   -0.0778 N   0  0  0  1  0  0  0  0  0  0  0  0
    4.5777   -0.3475   -1.2899 C   0  0  0  1  0  0  0  0  0  0  0  0
    3.6873   -0.2418   -2.5336 C   0  0  0  1  0  0  0  0  0  0  0  0
    3.6841   -1.6361   -3.1479 C   0  0  0  1  0  0  0  0  0  0  0  0
    5.0422   -2.2353   -2.7602 C   0  0  0  1  0  0  0  0  0  0  0  0
    5.1772   -1.7624   -1.3103 C   0  0  0  1  0  0  0  0  0  0  0  0
    6.1466   -1.6932   -3.6194 N   0  0  0  1  0  0  0  0  0  0  0  0
    7.0940    1.0700    2.4450 H   0  0  0  1  0  0  0  0  0  0  0  0
    6.0853    1.8350    5.2933 H   0  0  0  1  0  0  0  0  0  0  0  0
    1.8506    0.6522    6.5442 H   0  0  0  1  0  0  0  0  0  0  0  0
   -0.5530    0.4478    6.8034 H   0  0  0  1  0  0  0  0  0  0  0  0
   -1.0572    1.1992    2.7034 H   0  0  0  1  0  0  0  0  0  0  0  0
    1.3425    1.4033    2.4445 H   0  0  0  1  0  0  0  0  0  0  0  0
   -4.2169    0.8700    4.3320 H   0  0  0  1  0  0  0  0  0  0  0  0
   -3.0702    0.2255    3.1821 H   0  0  0  1  0  0  0  0  0  0  0  0
   -3.0356    1.9238    3.5927 H   0  0  0  1  0  0  0  0  0  0  0  0
    2.8251   -0.3592   -0.1393 H   0  0  0  1  0  0  0  0  0  0  0  0
    5.3562    0.3856   -1.3280 H   0  0  0  1  0  0  0  0  0  0  0  0
    4.0905    0.4701   -3.2232 H   0  0  0  1  0  0  0  0  0  0  0  0
    2.6947    0.0489   -2.2597 H   0  0  0  1  0  0  0  0  0  0  0  0
    3.5867   -1.5793   -4.2119 H   0  0  0  1  0  0  0  0  0  0  0  0
    2.8845   -2.2232   -2.7468 H   0  0  0  1  0  0  0  0  0  0  0  0
    5.0314   -3.3033   -2.8241 H   0  0  0  1  0  0  0  0  0  0  0  0
    6.2063   -1.7379   -1.0181 H   0  0  0  1  0  0  0  0  0  0  0  0
    4.6346   -2.4091   -0.6528 H   0  0  0  1  0  0  0  0  0  0  0  0
    7.0128   -1.9338   -3.2291 H   0  0  0  1  0  0  0  0  0  0  0  0
    6.0714   -0.7174   -3.6706 H   0  0  0  1  0  0  0  0  0  0  0  0
  1  2  4  0  0  0  0
  1  6  4  0  0  0  0
  1 18  1  0  0  0  0
  2  3  4  0  0  0  0
  3  4  4  0  0  0  0
  3 25  1  0  0  0  0
  4  5  4  0  0  0  0
  4  7  4  0  0  0  0
  5  6  4  0  0  0  0
  5  9  4  0  0  0  0
  7  8  4  0  0  0  0
  7 26  1  0  0  0  0
  8  9  4  0  0  0  0
  9 10  1  0  0  0  0
 10 11  4  0  0  0  0
 10 15  4  0  0  0  0
 11 12  4  0  0  0  0
 11 27  1  0  0  0  0
 12 13  4  0  0  0  0
 12 28  1  0  0  0  0
 13 14  4  0  0  0  0
 13 16  1  0  0  0  0
 14 15  4  0  0  0  0
 14 29  1  0  0  0  0
 15 30  1  0  0  0  0
 16 17  1  0  0  0  0
 17 31  1  0  0  0  0
 17 32  1  0  0  0  0
 17 33  1  0  0  0  0
 18 19  1  0  0  0  0
 18 34  1  0  0  0  0
 19 20  1  0  0  0  0
 19 23  1  0  0  0  0
 19 35  1  0  0  0  0
 20 21  1  0  0  0  0
 20 36  1  0  0  0  0
 20 37  1  0  0  0  0
 21 22  1  0  0  0  0
 21 38  1  0  0  0  0
 21 39  1  0  0  0  0
 22 23  1  0  0  0  0
 22 24  1  0  0  0  0
 22 40  1  0  0  0  0
 23 41  1  0  0  0  0
 23 42  1  0  0  0  0
 24 43  1  0  0  0  0
 24 44  1  0  0  0  0
M  END
> <ConfClashScore>
0 

> <ConfOneFourInteractionScore>
-0.984337 

> <ConfScore>
-0.110422 

> <ConfScorePBest>
0.00499269 

> <ConfTolerance>
0.244502 

$$$$
c22.sdf
 OpenBabel04162418103D

 44 47  0  0  0  0  0  0  0  0999 V2000
    5.1340    1.0089    0.7128 C   0  0  0  1  0  0  0  0  0  0  0  0
    4.6176    1.4722    1.8555 N   0  0  0  1  0  0  0  0  0  0  0  0
    5.3966    2.2502    2.6334 C   0  0  0  1  0  0  0  0  0  0  0  0
    6.7221    2.5423    2.1979 C   0  0  0  1  0  0  0  0  0  0  0  0
    7.0913    1.9809    0.9817 C   0  0  0  1  0  0  0  0  0  0  0  0
    6.3343    1.1911    0.1833 N   0  0  0  1  0  0  0  0  0  0  0  0
    7.8607    3.2682    2.6022 C   0  0  0  1  0  0  0  0  0  0  0  0
    8.8395    3.1647    1.7331 N   0  0  0  1  0  0  0  0  0  0  0  0
    8.3623    2.3675    0.7298 N   0  0  0  1  0  0  0  0  0  0  0  0
    9.1000    1.9968   -0.4186 C   0  0  0  1  0  0  0  0  0  0  0  0
    8.8698    0.7754   -1.0232 C   0  0  0  1  0  0  0  0  0  0  0  0
    9.5890    0.4144   -2.1518 C   0  0  0  1  0  0  0  0  0  0  0  0
   10.5401    1.2733   -2.6695 C   0  0  0  1  0  0  0  0  0  0  0  0
   10.7709    2.4983   -2.0630 C   0  0  0  1  0  0  0  0  0  0  0  0
   10.0538    2.8584   -0.9376 C   0  0  0  1  0  0  0  0  0  0  0  0
   11.3050    1.0285   -3.7598 O   0  0  0  1  0  0  0  0  0  0  0  0
   11.0203   -0.1647   -4.5066 C   0  0  0  1  0  0  0  0  0  0  0  0
    4.2932    0.2260   -0.0230 N   0  0  0  1  0  0  0  0  0  0  0  0
    4.6603   -0.2552   -1.3612 C   0  0  0  1  0  0  0  0  0  0  0  0
    3.4383   -0.3648   -2.2628 C   0  0  0  1  0  0  0  0  0  0  0  0
    3.7870   -1.3812   -3.3415 C   0  0  0  1  0  0  0  0  0  0  0  0
    4.9711   -2.1836   -2.7982 C   0  0  0  1  0  0  0  0  0  0  0  0
    5.1711   -1.7437   -1.3122 C   0  0  0  1  0  0  0  0  0  0  0  0
    6.1917   -1.8887   -3.5862 N   0  0  0  1  0  0  0  0  0  0  0  0
    5.0379    2.6296    3.5328 H   0  0  0  1  0  0  0  0  0  0  0  0
    7.9185    3.8190    3.4824 H   0  0  0  1  0  0  0  0  0  0  0  0
    8.1570    0.1273   -0.6314 H   0  0  0  1  0  0  0  0  0  0  0  0
    9.4130   -0.5029   -2.6092 H   0  0  0  1  0  0  0  0  0  0  0  0
   11.4837    3.1464   -2.4548 H   0  0  0  1  0  0  0  0  0  0  0  0
   10.2298    3.7757   -0.4803 H   0  0  0  1  0  0  0  0  0  0  0  0
   11.5152   -0.1196   -5.4542 H   0  0  0  1  0  0  0  0  0  0  0  0
    9.9644   -0.2460   -4.6595 H   0  0  0  1  0  0  0  0  0  0  0  0
   11.3691   -1.0175   -3.9626 H   0  0  0  1  0  0  0  0  0  0  0  0
    3.4219   -0.0216    0.3510 H   0  0  0  1  0  0  0  0  0  0  0  0
    5.3977    0.3943   -1.7845 H   0  0  0  1  0  0  0  0  0  0  0  0
    3.2197    0.5842   -2.7060 H   0  0  0  1  0  0  0  0  0  0  0  0
    2.5922   -0.6993   -1.6996 H   0  0  0  1  0  0  0  0  0  0  0  0
    2.9542   -2.0270   -3.5269 H   0  0  0  1  0  0  0  0  0  0  0  0
    4.0607   -0.8823   -4.2477 H   0  0  0  1  0  0  0  0  0  0  0  0
    4.7592   -3.2313   -2.8467 H   0  0  0  1  0  0  0  0  0  0  0  0
    6.2001   -1.7955   -1.0234 H   0  0  0  1  0  0  0  0  0  0  0  0
    4.5826   -2.3382   -0.6451 H   0  0  0  1  0  0  0  0  0  0  0  0
    6.9042   -2.5113   -3.3311 H   0  0  0  1  0  0  0  0  0  0  0  0
    6.4816   -0.9698   -3.4073 H   0  0  0  1  0  0  0  0  0  0  0  0
  1  2  4  0  0  0  0
  1  6  4  0  0  0  0
  1 18  1  0  0  0  0
  2  3  4  0  0  0  0
  3  4  4  0  0  0  0
  3 25  1  0  0  0  0
  4  5  4  0  0  0  0
  4  7  4  0  0  0  0
  5  6  4  0  0  0  0
  5  9  4  0  0  0  0
  7  8  4  0  0  0  0
  7 26  1  0  0  0  0
  8  9  4  0  0  0  0
  9 10  1  0  0  0  0
 10 11  4  0  0  0  0
 10 15  4  0  0  0  0
 11 12  4  0  0  0  0
 11 27  1  0  0  0  0
 12 13  4  0  0  0  0
 12 28  1  0  0  0  0
 13 14  4  0  0  0  0
 13 16  1  0  0  0  0
 14 15  4  0  0  0  0
 14 29  1  0  0  0  0
 15 30  1  0  0  0  0
 16 17  1  0  0  0  0
 17 31  1  0  0  0  0
 17 32  1  0  0  0  0
 17 33  1  0  0  0  0
 18 19  1  0  0  0  0
 18 34  1  0  0  0  0
 19 20  1  0  0  0  0
 19 23  1  0  0  0  0
 19 35  1  0  0  0  0
 20 21  1  0  0  0  0
 20 36  1  0  0  0  0
 20 37  1  0  0  0  0
 21 22  1  0  0  0  0
 21 38  1  0  0  0  0
 21 39  1  0  0  0  0
 22 23  1  0  0  0  0
 22 24  1  0  0  0  0
 22 40  1  0  0  0  0
 23 41  1  0  0  0  0
 23 42  1  0  0  0  0
 24 43  1  0  0  0  0
 24 44  1  0  0  0  0
M  END
> <ConfClashScore>
0 

> <ConfOneFourInteractionScore>
-0.984337 

> <ConfScore>
-0.110422 

> <ConfScorePBest>
0.00497936 

> <ConfTolerance>
0.281738 

$$$$
c22.sdf
 OpenBabel04162418103D

 44 47  0  0  0  0  0  0  0  0999 V2000
    4.0246   -0.9478    1.3319 C   0  0  0  1  0  0  0  0  0  0  0  0
    5.1665   -0.2869    1.5472 N   0  0  0  1  0  0  0  0  0  0  0  0
    5.6152   -0.1932    2.8149 C   0  0  0  1  0  0  0  0  0  0  0  0
    4.8566   -0.8050    3.8551 C   0  0  0  1  0  0  0  0  0  0  0  0
    3.6975   -1.4550    3.4495 C   0  0  0  1  0  0  0  0  0  0  0  0
    3.2186   -1.5592    2.1869 N   0  0  0  1  0  0  0  0  0  0  0  0
    4.8910   -1.0004    5.2506 C   0  0  0  1  0  0  0  0  0  0  0  0
    3.8583   -1.6934    5.6720 N   0  0  0  1  0  0  0  0  0  0  0  0
    3.1198   -1.9746    4.5561 N   0  0  0  1  0  0  0  0  0  0  0  0
    1.9040   -2.7162    4.5590 C   0  0  0  1  0  0  0  0  0  0  0  0
    0.8993   -2.3993    3.6645 C   0  0  0  1  0  0  0  0  0  0  0  0
   -0.2820   -3.1246    3.6638 C   0  0  0  1  0  0  0  0  0  0  0  0
   -0.4573   -4.1611    4.5612 C   0  0  0  1  0  0  0  0  0  0  0  0
    0.5506   -4.4788    5.4583 C   0  0  0  1  0  0  0  0  0  0  0  0
    1.7285   -3.7557    5.4591 C   0  0  0  1  0  0  0  0  0  0  0  0
   -1.5594   -4.9299    4.6570 O   0  0  0  1  0  0  0  0  0  0  0  0
   -2.6485   -4.5500    3.7840 C   0  0  0  1  0  0  0  0  0  0  0  0
    3.6329   -1.0002    0.0461 N   0  0  0  1  0  0  0  0  0  0  0  0
    4.3722   -0.3847   -1.0583 C   0  0  0  1  0  0  0  0  0  0  0  0
    3.4446   -0.2062   -2.2933 C   0  0  0  1  0  0  0  0  0  0  0  0
    3.9772   -1.1509   -3.3851 C   0  0  0  1  0  0  0  0  0  0  0  0
    4.8875   -2.1642   -2.6647 C   0  0  0  1  0  0  0  0  0  0  0  0
    5.5402   -1.3214   -1.5171 C   0  0  0  1  0  0  0  0  0  0  0  0
    5.9302   -2.6992   -3.5933 N   0  0  0  1  0  0  0  0  0  0  0  0
    6.4968    0.3150    3.0296 H   0  0  0  1  0  0  0  0  0  0  0  0
    5.6433   -0.6395    5.8714 H   0  0  0  1  0  0  0  0  0  0  0  0
    1.0295   -1.6168    2.9919 H   0  0  0  1  0  0  0  0  0  0  0  0
   -1.0365   -2.8888    2.9880 H   0  0  0  1  0  0  0  0  0  0  0  0
    0.4204   -5.2613    6.1309 H   0  0  0  1  0  0  0  0  0  0  0  0
    2.4830   -3.9915    6.1349 H   0  0  0  1  0  0  0  0  0  0  0  0
   -2.3350   -4.6341    2.7644 H   0  0  0  1  0  0  0  0  0  0  0  0
   -2.9321   -3.5386    3.9874 H   0  0  0  1  0  0  0  0  0  0  0  0
   -3.4840   -5.1964    3.9545 H   0  0  0  1  0  0  0  0  0  0  0  0
    2.8037   -1.4785   -0.1641 H   0  0  0  1  0  0  0  0  0  0  0  0
    4.7585    0.5628   -0.7454 H   0  0  0  1  0  0  0  0  0  0  0  0
    3.4763    0.8073   -2.6349 H   0  0  0  1  0  0  0  0  0  0  0  0
    2.4383   -0.4663   -2.0393 H   0  0  0  1  0  0  0  0  0  0  0  0
    4.5367   -0.6002   -4.1122 H   0  0  0  1  0  0  0  0  0  0  0  0
    3.1664   -1.6567   -3.8665 H   0  0  0  1  0  0  0  0  0  0  0  0
    4.3152   -2.9751   -2.2651 H   0  0  0  1  0  0  0  0  0  0  0  0
    5.8654   -1.9509   -0.7153 H   0  0  0  1  0  0  0  0  0  0  0  0
    6.3688   -0.7515   -1.8824 H   0  0  0  1  0  0  0  0  0  0  0  0
    6.6295   -3.1497   -3.0752 H   0  0  0  1  0  0  0  0  0  0  0  0
    6.3253   -1.9601   -4.1013 H   0  0  0  1  0  0  0  0  0  0  0  0
  1  2  4  0  0  0  0
  1  6  4  0  0  0  0
  1 18  1  0  0  0  0
  2  3  4  0  0  0  0
  3  4  4  0  0  0  0
  3 25  1  0  0  0  0
  4  5  4  0  0  0  0
  4  7  4  0  0  0  0
  5  6  4  0  0  0  0
  5  9  4  0  0  0  0
  7  8  4  0  0  0  0
  7 26  1  0  0  0  0
  8  9  4  0  0  0  0
  9 10  1  0  0  0  0
 10 11  4  0  0  0  0
 10 15  4  0  0  0  0
 11 12  4  0  0  0  0
 11 27  1  0  0  0  0
 12 13  4  0  0  0  0
 12 28  1  0  0  0  0
 13 14  4  0  0  0  0
 13 16  1  0  0  0  0
 14 15  4  0  0  0  0
 14 29  1  0  0  0  0
 15 30  1  0  0  0  0
 16 17  1  0  0  0  0
 17 31  1  0  0  0  0
 17 32  1  0  0  0  0
 17 33  1  0  0  0  0
 18 19  1  0  0  0  0
 18 34  1  0  0  0  0
 19 20  1  0  0  0  0
 19 23  1  0  0  0  0
 19 35  1  0  0  0  0
 20 21  1  0  0  0  0
 20 36  1  0  0  0  0
 20 37  1  0  0  0  0
 21 22  1  0  0  0  0
 21 38  1  0  0  0  0
 21 39  1  0  0  0  0
 22 23  1  0  0  0  0
 22 24  1  0  0  0  0
 22 40  1  0  0  0  0
 23 41  1  0  0  0  0
 23 42  1  0  0  0  0
 24 43  1  0  0  0  0
 24 44  1  0  0  0  0
M  END
> <ConfClashScore>
0 

> <ConfOneFourInteractionScore>
-0.984337 

> <ConfScore>
-0.110422 

> <ConfScorePBest>
0.00496604 

> <ConfTolerance>
0.199168 

$$$$
c22.sdf
 OpenBabel04162418103D

 44 47  0  0  0  0  0  0  0  0999 V2000
    4.2063    1.5155    0.3633 C   0  0  0  1  0  0  0  0  0  0  0  0
    3.8564    1.6887    1.6418 N   0  0  0  1  0  0  0  0  0  0  0  0
    3.7550    2.9504    2.1057 C   0  0  0  1  0  0  0  0  0  0  0  0
    4.0190    4.0298    1.2129 C   0  0  0  1  0  0  0  0  0  0  0  0
    4.3649    3.6658   -0.0826 C   0  0  0  1  0  0  0  0  0  0  0  0
    4.4815    2.4094   -0.5745 N   0  0  0  1  0  0  0  0  0  0  0  0
    4.0370    5.4391    1.1915 C   0  0  0  1  0  0  0  0  0  0  0  0
    4.3663    5.9050    0.0089 N   0  0  0  1  0  0  0  0  0  0  0  0
    4.5690    4.8064   -0.7796 N   0  0  0  1  0  0  0  0  0  0  0  0
    4.9451    4.8568   -2.1522 C   0  0  0  1  0  0  0  0  0  0  0  0
    4.0908    5.4178   -3.0826 C   0  0  0  1  0  0  0  0  0  0  0  0
    4.4592    5.4716   -4.4178 C   0  0  0  1  0  0  0  0  0  0  0  0
    5.6784    4.9595   -4.8197 C   0  0  0  1  0  0  0  0  0  0  0  0
    6.5352    4.3968   -3.8864 C   0  0  0  1  0  0  0  0  0  0  0  0
    6.1680    4.3431   -2.5550 C   0  0  0  1  0  0  0  0  0  0  0  0
    5.9262    5.0633   -6.1469 O   0  0  0  1  0  0  0  0  0  0  0  0
    7.1949    4.5819   -6.6172 C   0  0  0  1  0  0  0  0  0  0  0  0
    4.2917    0.2399   -0.0305 N   0  0  0  1  0  0  0  0  0  0  0  0
    4.6707   -0.2362   -1.3648 C   0  0  0  1  0  0  0  0  0  0  0  0
    3.4382   -0.3345   -2.2844 C   0  0  0  1  0  0  0  0  0  0  0  0
    3.7721   -1.4136   -3.3294 C   0  0  0  1  0  0  0  0  0  0  0  0
    4.9664   -2.2305   -2.7605 C   0  0  0  1  0  0  0  0  0  0  0  0
    5.2020   -1.7084   -1.3031 C   0  0  0  1  0  0  0  0  0  0  0  0
    6.1861   -2.0095   -3.5919 N   0  0  0  1  0  0  0  0  0  0  0  0
    3.4895    3.1325    3.0946 H   0  0  0  1  0  0  0  0  0  0  0  0
    3.8162    6.0374    2.0130 H   0  0  0  1  0  0  0  0  0  0  0  0
    3.1716    5.7996   -2.7809 H   0  0  0  1  0  0  0  0  0  0  0  0
    3.8181    5.8974   -5.1173 H   0  0  0  1  0  0  0  0  0  0  0  0
    7.4543    4.0151   -4.1881 H   0  0  0  1  0  0  0  0  0  0  0  0
    6.8090    3.9173   -1.8555 H   0  0  0  1  0  0  0  0  0  0  0  0
    7.9815    5.0398   -6.0546 H   0  0  0  1  0  0  0  0  0  0  0  0
    7.3077    4.8273   -7.6526 H   0  0  0  1  0  0  0  0  0  0  0  0
    7.2408    3.5199   -6.4948 H   0  0  0  1  0  0  0  0  0  0  0  0
    4.0802   -0.4440    0.6387 H   0  0  0  1  0  0  0  0  0  0  0  0
    5.4072    0.4185   -1.7818 H   0  0  0  1  0  0  0  0  0  0  0  0
    3.2573    0.6044   -2.7647 H   0  0  0  1  0  0  0  0  0  0  0  0
    2.5750   -0.6188   -1.7196 H   0  0  0  1  0  0  0  0  0  0  0  0
    4.0466   -0.9563   -4.2570 H   0  0  0  1  0  0  0  0  0  0  0  0
    2.9277   -2.0527   -3.4824 H   0  0  0  1  0  0  0  0  0  0  0  0
    4.7281   -3.2736   -2.7461 H   0  0  0  1  0  0  0  0  0  0  0  0
    6.2414   -1.7315   -1.0500 H   0  0  0  1  0  0  0  0  0  0  0  0
    4.6486   -2.2872   -0.5934 H   0  0  0  1  0  0  0  0  0  0  0  0
    6.9580   -2.4299   -3.1585 H   0  0  0  1  0  0  0  0  0  0  0  0
    6.3478   -1.0474   -3.6849 H   0  0  0  1  0  0  0  0  0  0  0  0
  1  2  4  0  0  0  0
  1  6  4  0  0  0  0
  1 18  1  0  0  0  0
  2  3  4  0  0  0  0
  3  4  4  0  0  0  0
  3 25  1  0  0  0  0
  4  5  4  0  0  0  0
  4  7  4  0  0  0  0
  5  6  4  0  0  0  0
  5  9  4  0  0  0  0
  7  8  4  0  0  0  0
  7 26  1  0  0  0  0
  8  9  4  0  0  0  0
  9 10  1  0  0  0  0
 10 11  4  0  0  0  0
 10 15  4  0  0  0  0
 11 12  4  0  0  0  0
 11 27  1  0  0  0  0
 12 13  4  0  0  0  0
 12 28  1  0  0  0  0
 13 14  4  0  0  0  0
 13 16  1  0  0  0  0
 14 15  4  0  0  0  0
 14 29  1  0  0  0  0
 15 30  1  0  0  0  0
 16 17  1  0  0  0  0
 17 31  1  0  0  0  0
 17 32  1  0  0  0  0
 17 33  1  0  0  0  0
 18 19  1  0  0  0  0
 18 34  1  0  0  0  0
 19 20  1  0  0  0  0
 19 23  1  0  0  0  0
 19 35  1  0  0  0  0
 20 21  1  0  0  0  0
 20 36  1  0  0  0  0
 20 37  1  0  0  0  0
 21 22  1  0  0  0  0
 21 38  1  0  0  0  0
 21 39  1  0  0  0  0
 22 23  1  0  0  0  0
 22 24  1  0  0  0  0
 22 40  1  0  0  0  0
 23 41  1  0  0  0  0
 23 42  1  0  0  0  0
 24 43  1  0  0  0  0
 24 44  1  0  0  0  0
M  END
> <ConfClashScore>
0 

> <ConfOneFourInteractionScore>
-0.984337 

> <ConfScore>
-0.104873 

> <ConfScorePBest>
0.00495271 

> <ConfTolerance>
0.236363 

$$$$
c22.sdf
 OpenBabel04162418103D

 44 47  0  0  0  0  0  0  0  0999 V2000
    3.6048    0.7601    0.8942 C   0  0  0  1  0  0  0  0  0  0  0  0
    3.0904    0.4969    2.0997 N   0  0  0  1  0  0  0  0  0  0  0  0
    2.7434    1.5387    2.8818 C   0  0  0  1  0  0  0  0  0  0  0  0
    2.9363    2.8605    2.3843 C   0  0  0  1  0  0  0  0  0  0  0  0
    3.4780    2.9479    1.1078 C   0  0  0  1  0  0  0  0  0  0  0  0
    3.8423    1.9213    0.3031 N   0  0  0  1  0  0  0  0  0  0  0  0
    2.7383    4.2025    2.7673 C   0  0  0  1  0  0  0  0  0  0  0  0
    3.1227    5.0390    1.8311 N   0  0  0  1  0  0  0  0  0  0  0  0
    3.5805    4.2614    0.8037 N   0  0  0  1  0  0  0  0  0  0  0  0
    4.0913    4.7625   -0.4107 C   0  0  0  1  0  0  0  0  0  0  0  0
    3.2119    5.4129   -1.2555 C   0  0  0  1  0  0  0  0  0  0  0  0
    3.6625    5.9298   -2.4602 C   0  0  0  1  0  0  0  0  0  0  0  0
    4.9899    5.7902   -2.8190 C   0  0  0  1  0  0  0  0  0  0  0  0
    5.8718    5.1378   -1.9716 C   0  0  0  1  0  0  0  0  0  0  0  0
    5.4227    4.6223   -0.7704 C   0  0  0  1  0  0  0  0  0  0  0  0
    5.3110    6.3285   -4.0157 O   0  0  0  1  0  0  0  0  0  0  0  0
    6.6919    6.4353   -4.3954 C   0  0  0  1  0  0  0  0  0  0  0  0
    3.9334   -0.3279    0.1653 N   0  0  0  1  0  0  0  0  0  0  0  0
    4.4850   -0.2664   -1.1921 C   0  0  0  1  0  0  0  0  0  0  0  0
    3.3707   -0.3737   -2.2257 C   0  0  0  1  0  0  0  0  0  0  0  0
    4.0184   -1.0790   -3.4243 C   0  0  0  1  0  0  0  0  0  0  0  0
    4.8637   -2.1468   -2.7248 C   0  0  0  1  0  0  0  0  0  0  0  0
    5.3999   -1.4684   -1.4543 C   0  0  0  1  0  0  0  0  0  0  0  0
    5.9855   -2.5773   -3.5980 N   0  0  0  1  0  0  0  0  0  0  0  0
    2.3433    1.3812    3.8287 H   0  0  0  1  0  0  0  0  0  0  0  0
    2.3364    4.4946    3.6810 H   0  0  0  1  0  0  0  0  0  0  0  0
    2.2122    5.5145   -0.9875 H   0  0  0  1  0  0  0  0  0  0  0  0
    3.0016    6.4228   -3.0941 H   0  0  0  1  0  0  0  0  0  0  0  0
    6.8715    5.0362   -2.2396 H   0  0  0  1  0  0  0  0  0  0  0  0
    6.0835    4.1293   -0.1364 H   0  0  0  1  0  0  0  0  0  0  0  0
    6.7636    6.9072   -5.3530 H   0  0  0  1  0  0  0  0  0  0  0  0
    7.1241    5.4578   -4.4465 H   0  0  0  1  0  0  0  0  0  0  0  0
    7.2169    7.0204   -3.6695 H   0  0  0  1  0  0  0  0  0  0  0  0
    3.7951   -1.2110    0.5671 H   0  0  0  1  0  0  0  0  0  0  0  0
    5.0247    0.6491   -1.3172 H   0  0  0  1  0  0  0  0  0  0  0  0
    3.0197    0.5980   -2.5043 H   0  0  0  1  0  0  0  0  0  0  0  0
    2.5557   -0.9518   -1.8431 H   0  0  0  1  0  0  0  0  0  0  0  0
    4.6279   -0.4069   -3.9914 H   0  0  0  1  0  0  0  0  0  0  0  0
    3.2823   -1.5196   -4.0638 H   0  0  0  1  0  0  0  0  0  0  0  0
    4.2623   -2.9949   -2.4717 H   0  0  0  1  0  0  0  0  0  0  0  0
    5.3652   -2.1478   -0.6283 H   0  0  0  1  0  0  0  0  0  0  0  0
    6.4074   -1.1414   -1.6056 H   0  0  0  1  0  0  0  0  0  0  0  0
    6.6117   -3.1249   -3.0800 H   0  0  0  1  0  0  0  0  0  0  0  0
    6.4514   -1.7876   -3.9440 H   0  0  0  1  0  0  0  0  0  0  0  0
  1  2  4  0  0  0  0
  1  6  4  0  0  0  0
  1 18  1  0  0  0  0
  2  3  4  0  0  0  0
  3  4  4  0  0  0  0
  3 25  1  0  0  0  0
  4  5  4  0  0  0  0
  4  7  4  0  0  0  0
  5  6  4  0  0  0  0
  5  9  4  0  0  0  0
  7  8  4  0  0  0  0
  7 26  1  0  0  0  0
  8  9  4  0  0  0  0
  9 10  1  0  0  0  0
 10 11  4  0  0  0  0
 10 15  4  0  0  0  0
 11 12  4  0  0  0  0
 11 27  1  0  0  0  0
 12 13  4  0  0  0  0
 12 28  1  0  0  0  0
 13 14  4  0  0  0  0
 13 16  1  0  0  0  0
 14 15  4  0  0  0  0
 14 29  1  0  0  0  0
 15 30  1  0  0  0  0
 16 17  1  0  0  0  0
 17 31  1  0  0  0  0
 17 32  1  0  0  0  0
 17 33  1  0  0  0  0
 18 19  1  0  0  0  0
 18 34  1  0  0  0  0
 19 20  1  0  0  0  0
 19 23  1  0  0  0  0
 19 35  1  0  0  0  0
 20 21  1  0  0  0  0
 20 36  1  0  0  0  0
 20 37  1  0  0  0  0
 21 22  1  0  0  0  0
 21 38  1  0  0  0  0
 21 39  1  0  0  0  0
 22 23  1  0  0  0  0
 22 24  1  0  0  0  0
 22 40  1  0  0  0  0
 23 41  1  0  0  0  0
 23 42  1  0  0  0  0
 24 43  1  0  0  0  0
 24 44  1  0  0  0  0
M  END
> <ConfClashScore>
0 

> <ConfOneFourInteractionScore>
-0.984337 

> <ConfScore>
-0.104873 

> <ConfScorePBest>
0.00493938 

> <ConfTolerance>
0.330865 

$$$$
c22.sdf
 OpenBabel04162418103D

 44 47  0  0  0  0  0  0  0  0999 V2000
    4.2623    1.4479    0.4032 C   0  0  0  1  0  0  0  0  0  0  0  0
    4.6133    2.3657   -0.5032 N   0  0  0  1  0  0  0  0  0  0  0  0
    4.6021    3.6611   -0.1304 C   0  0  0  1  0  0  0  0  0  0  0  0
    4.2240    3.9844    1.2055 C   0  0  0  1  0  0  0  0  0  0  0  0
    3.8948    2.9034    2.0140 C   0  0  0  1  0  0  0  0  0  0  0  0
    3.8900    1.5946    1.6658 N   0  0  0  1  0  0  0  0  0  0  0  0
    4.0728    5.1040    2.0484 C   0  0  0  1  0  0  0  0  0  0  0  0
    3.6835    4.7583    3.2538 N   0  0  0  1  0  0  0  0  0  0  0  0
    3.5736    3.3955    3.2318 N   0  0  0  1  0  0  0  0  0  0  0  0
    3.1739    2.5998    4.3441 C   0  0  0  1  0  0  0  0  0  0  0  0
    3.9525    2.5747    5.4858 C   0  0  0  1  0  0  0  0  0  0  0  0
    3.5191    1.8812    6.6050 C   0  0  0  1  0  0  0  0  0  0  0  0
    2.3111    1.2103    6.5776 C   0  0  0  1  0  0  0  0  0  0  0  0
    1.5303    1.2355    5.4325 C   0  0  0  1  0  0  0  0  0  0  0  0
    1.9622    1.9270    4.3164 C   0  0  0  1  0  0  0  0  0  0  0  0
    1.9974    0.5684    7.7198 O   0  0  0  1  0  0  0  0  0  0  0  0
    0.7810   -0.2129    7.6687 C   0  0  0  1  0  0  0  0  0  0  0  0
    4.2919    0.1766   -0.0356 N   0  0  0  1  0  0  0  0  0  0  0  0
    4.6972   -0.2722   -1.3619 C   0  0  0  1  0  0  0  0  0  0  0  0
    3.5006   -0.2916   -2.3322 C   0  0  0  1  0  0  0  0  0  0  0  0
    3.7472   -1.4587   -3.2752 C   0  0  0  1  0  0  0  0  0  0  0  0
    4.9795   -2.2264   -2.7690 C   0  0  0  1  0  0  0  0  0  0  0  0
    5.1306   -1.7355   -1.3398 C   0  0  0  1  0  0  0  0  0  0  0  0
    6.1884   -1.8932   -3.5802 N   0  0  0  1  0  0  0  0  0  0  0  0
    4.8638    4.4094   -0.8036 H   0  0  0  1  0  0  0  0  0  0  0  0
    4.2484    6.0851    1.7515 H   0  0  0  1  0  0  0  0  0  0  0  0
    4.8634    3.0762    5.5051 H   0  0  0  1  0  0  0  0  0  0  0  0
    4.1031    1.8657    7.4654 H   0  0  0  1  0  0  0  0  0  0  0  0
    0.6194    0.7340    5.4131 H   0  0  0  1  0  0  0  0  0  0  0  0
    1.3783    1.9425    3.4560 H   0  0  0  1  0  0  0  0  0  0  0  0
    0.8152   -0.8724    6.8268 H   0  0  0  1  0  0  0  0  0  0  0  0
   -0.0597    0.4423    7.5743 H   0  0  0  1  0  0  0  0  0  0  0  0
    0.6878   -0.7864    8.5672 H   0  0  0  1  0  0  0  0  0  0  0  0
    4.0135   -0.5162    0.5991 H   0  0  0  1  0  0  0  0  0  0  0  0
    5.4811    0.3574   -1.7279 H   0  0  0  1  0  0  0  0  0  0  0  0
    2.5872   -0.4351   -1.7936 H   0  0  0  1  0  0  0  0  0  0  0  0
    3.4515    0.6258   -2.8806 H   0  0  0  1  0  0  0  0  0  0  0  0
    3.9281   -1.0939   -4.2647 H   0  0  0  1  0  0  0  0  0  0  0  0
    2.8948   -2.1054   -3.2832 H   0  0  0  1  0  0  0  0  0  0  0  0
    4.8112   -3.2827   -2.7960 H   0  0  0  1  0  0  0  0  0  0  0  0
    4.5038   -2.3009   -0.6823 H   0  0  0  1  0  0  0  0  0  0  0  0
    6.1489   -1.8188   -1.0219 H   0  0  0  1  0  0  0  0  0  0  0  0
    6.9621   -2.3826   -3.2305 H   0  0  0  1  0  0  0  0  0  0  0  0
    6.3609   -0.9299   -3.5285 H   0  0  0  1  0  0  0  0  0  0  0  0
  1  2  4  0  0  0  0
  1  6  4  0  0  0  0
  1 18  1  0  0  0  0
  2  3  4  0  0  0  0
  3  4  4  0  0  0  0
  3 25  1  0  0  0  0
  4  5  4  0  0  0  0
  4  7  4  0  0  0  0
  5  6  4  0  0  0  0
  5  9  4  0  0  0  0
  7  8  4  0  0  0  0
  7 26  1  0  0  0  0
  8  9  4  0  0  0  0
  9 10  1  0  0  0  0
 10 11  4  0  0  0  0
 10 15  4  0  0  0  0
 11 12  4  0  0  0  0
 11 27  1  0  0  0  0
 12 13  4  0  0  0  0
 12 28  1  0  0  0  0
 13 14  4  0  0  0  0
 13 16  1  0  0  0  0
 14 15  4  0  0  0  0
 14 29  1  0  0  0  0
 15 30  1  0  0  0  0
 16 17  1  0  0  0  0
 17 31  1  0  0  0  0
 17 32  1  0  0  0  0
 17 33  1  0  0  0  0
 18 19  1  0  0  0  0
 18 34  1  0  0  0  0
 19 20  1  0  0  0  0
 19 23  1  0  0  0  0
 19 35  1  0  0  0  0
 20 21  1  0  0  0  0
 20 36  1  0  0  0  0
 20 37  1  0  0  0  0
 21 22  1  0  0  0  0
 21 38  1  0  0  0  0
 21 39  1  0  0  0  0
 22 23  1  0  0  0  0
 22 24  1  0  0  0  0
 22 40  1  0  0  0  0
 23 41  1  0  0  0  0
 23 42  1  0  0  0  0
 24 43  1  0  0  0  0
 24 44  1  0  0  0  0
M  END
> <ConfClashScore>
0 

> <ConfOneFourInteractionScore>
-0.984337 

> <ConfScore>
-0.104873 

> <ConfScorePBest>
0.00492605 

> <ConfTolerance>
0.268605 

$$$$
c22.sdf
 OpenBabel04162418103D

 44 47  0  0  0  0  0  0  0  0999 V2000
    3.3476    0.7137    0.7617 C   0  0  0  1  0  0  0  0  0  0  0  0
    3.3952    1.8474    0.0549 N   0  0  0  1  0  0  0  0  0  0  0  0
    2.8272    2.9490    0.5850 C   0  0  0  1  0  0  0  0  0  0  0  0
    2.2130    2.8512    1.8676 C   0  0  0  1  0  0  0  0  0  0  0  0
    2.2609    1.5959    2.4614 C   0  0  0  1  0  0  0  0  0  0  0  0
    2.8170    0.4715    1.9509 N   0  0  0  1  0  0  0  0  0  0  0  0
    1.5385    3.6529    2.8104 C   0  0  0  1  0  0  0  0  0  0  0  0
    1.1955    2.9682    3.8770 N   0  0  0  1  0  0  0  0  0  0  0  0
    1.6433    1.6946    3.6603 N   0  0  0  1  0  0  0  0  0  0  0  0
    1.4820    0.6228    4.5692 C   0  0  0  1  0  0  0  0  0  0  0  0
    0.2491    0.0587    4.8371 C   0  0  0  1  0  0  0  0  0  0  0  0
    0.1488   -0.9940    5.7333 C   0  0  0  1  0  0  0  0  0  0  0  0
    1.2808   -1.4760    6.3630 C   0  0  0  1  0  0  0  0  0  0  0  0
    2.5174   -0.9100    6.0942 C   0  0  0  1  0  0  0  0  0  0  0  0
    2.6175    0.1397    5.2007 C   0  0  0  1  0  0  0  0  0  0  0  0
    1.0590   -2.5009    7.2199 O   0  0  0  1  0  0  0  0  0  0  0  0
    2.1850   -2.9872    7.9668 C   0  0  0  1  0  0  0  0  0  0  0  0
    3.9351   -0.3566    0.1679 N   0  0  0  1  0  0  0  0  0  0  0  0
    4.4876   -0.2782   -1.1853 C   0  0  0  1  0  0  0  0  0  0  0  0
    3.3565   -0.3351   -2.2298 C   0  0  0  1  0  0  0  0  0  0  0  0
    4.0163   -1.0694   -3.3940 C   0  0  0  1  0  0  0  0  0  0  0  0
    4.8789   -2.1463   -2.7595 C   0  0  0  1  0  0  0  0  0  0  0  0
    5.3744   -1.4814   -1.4648 C   0  0  0  1  0  0  0  0  0  0  0  0
    6.0078   -2.5027   -3.6355 N   0  0  0  1  0  0  0  0  0  0  0  0
    2.8368    3.8518    0.0688 H   0  0  0  1  0  0  0  0  0  0  0  0
    1.3368    4.6645    2.6774 H   0  0  0  1  0  0  0  0  0  0  0  0
   -0.6033    0.4239    4.3663 H   0  0  0  1  0  0  0  0  0  0  0  0
   -0.7784   -1.4213    5.9319 H   0  0  0  1  0  0  0  0  0  0  0  0
    3.3698   -1.2752    6.5650 H   0  0  0  1  0  0  0  0  0  0  0  0
    3.5447    0.5669    5.0021 H   0  0  0  1  0  0  0  0  0  0  0  0
    1.8664   -3.7676    8.6259 H   0  0  0  1  0  0  0  0  0  0  0  0
    2.6056   -2.1869    8.5392 H   0  0  0  1  0  0  0  0  0  0  0  0
    2.9221   -3.3695    7.2920 H   0  0  0  1  0  0  0  0  0  0  0  0
    3.9906   -1.2036    0.6578 H   0  0  0  1  0  0  0  0  0  0  0  0
    5.0463    0.6282   -1.2910 H   0  0  0  1  0  0  0  0  0  0  0  0
    3.0475    0.6478   -2.5185 H   0  0  0  1  0  0  0  0  0  0  0  0
    2.5140   -0.8795   -1.8575 H   0  0  0  1  0  0  0  0  0  0  0  0
    4.6198   -0.3963   -3.9663 H   0  0  0  1  0  0  0  0  0  0  0  0
    3.2742   -1.5097   -4.0266 H   0  0  0  1  0  0  0  0  0  0  0  0
    4.3030   -3.0221   -2.5448 H   0  0  0  1  0  0  0  0  0  0  0  0
    5.3109   -2.1755   -0.6529 H   0  0  0  1  0  0  0  0  0  0  0  0
    6.3893   -1.1643   -1.5850 H   0  0  0  1  0  0  0  0  0  0  0  0
    6.4761   -3.2802   -3.2658 H   0  0  0  1  0  0  0  0  0  0  0  0
    6.6275   -1.7457   -3.6938 H   0  0  0  1  0  0  0  0  0  0  0  0
  1  2  4  0  0  0  0
  1  6  4  0  0  0  0
  1 18  1  0  0  0  0
  2  3  4  0  0  0  0
  3  4  4  0  0  0  0
  3 25  1  0  0  0  0
  4  5  4  0  0  0  0
  4  7  4  0  0  0  0
  5  6  4  0  0  0  0
  5  9  4  0  0  0  0
  7  8  4  0  0  0  0
  7 26  1  0  0  0  0
  8  9  4  0  0  0  0
  9 10  1  0  0  0  0
 10 11  4  0  0  0  0
 10 15  4  0  0  0  0
 11 12  4  0  0  0  0
 11 27  1  0  0  0  0
 12 13  4  0  0  0  0
 12 28  1  0  0  0  0
 13 14  4  0  0  0  0
 13 16  1  0  0  0  0
 14 15  4  0  0  0  0
 14 29  1  0  0  0  0
 15 30  1  0  0  0  0
 16 17  1  0  0  0  0
 17 31  1  0  0  0  0
 17 32  1  0  0  0  0
 17 33  1  0  0  0  0
 18 19  1  0  0  0  0
 18 34  1  0  0  0  0
 19 20  1  0  0  0  0
 19 23  1  0  0  0  0
 19 35  1  0  0  0  0
 20 21  1  0  0  0  0
 20 36  1  0  0  0  0
 20 37  1  0  0  0  0
 21 22  1  0  0  0  0
 21 38  1  0  0  0  0
 21 39  1  0  0  0  0
 22 23  1  0  0  0  0
 22 24  1  0  0  0  0
 22 40  1  0  0  0  0
 23 41  1  0  0  0  0
 23 42  1  0  0  0  0
 24 43  1  0  0  0  0
 24 44  1  0  0  0  0
M  END
> <ConfClashScore>
0 

> <ConfOneFourInteractionScore>
-0.984337 

> <ConfScore>
-0.102479 

> <ConfScorePBest>
0.00491272 

> <ConfTolerance>
0.298651 

$$$$
c22.sdf
 OpenBabel04162418103D

 44 47  0  0  0  0  0  0  0  0999 V2000
    3.1638    0.1403    1.1006 C   0  0  0  1  0  0  0  0  0  0  0  0
    2.5573   -0.3692    2.1774 N   0  0  0  1  0  0  0  0  0  0  0  0
    2.0902    0.4883    3.1069 C   0  0  0  1  0  0  0  0  0  0  0  0
    2.2609    1.8872    2.8929 C   0  0  0  1  0  0  0  0  0  0  0  0
    2.9098    2.2392    1.7158 C   0  0  0  1  0  0  0  0  0  0  0  0
    3.3953    1.4015    0.7688 N   0  0  0  1  0  0  0  0  0  0  0  0
    1.9629    3.1216    3.5047 C   0  0  0  1  0  0  0  0  0  0  0  0
    2.3876    4.1366    2.7880 N   0  0  0  1  0  0  0  0  0  0  0  0
    2.9737    3.5894    1.6804 N   0  0  0  1  0  0  0  0  0  0  0  0
    3.5717    4.3415    0.6293 C   0  0  0  1  0  0  0  0  0  0  0  0
    4.5864    3.7869   -0.1278 C   0  0  0  1  0  0  0  0  0  0  0  0
    5.2273    4.5490   -1.0921 C   0  0  0  1  0  0  0  0  0  0  0  0
    4.8554    5.8649   -1.2929 C   0  0  0  1  0  0  0  0  0  0  0  0
    3.8377    6.4210   -0.5335 C   0  0  0  1  0  0  0  0  0  0  0  0
    3.1985    5.6612    0.4280 C   0  0  0  1  0  0  0  0  0  0  0  0
    5.5548    6.5101   -2.2565 O   0  0  0  1  0  0  0  0  0  0  0  0
    5.1416    7.8459   -2.5842 C   0  0  0  1  0  0  0  0  0  0  0  0
    3.6101   -0.7734    0.2125 N   0  0  0  1  0  0  0  0  0  0  0  0
    4.3070   -0.4316   -1.0318 C   0  0  0  1  0  0  0  0  0  0  0  0
    3.3341   -0.4300   -2.2044 C   0  0  0  1  0  0  0  0  0  0  0  0
    4.1778   -0.8625   -3.4106 C   0  0  0  1  0  0  0  0  0  0  0  0
    5.0308   -1.9764   -2.7976 C   0  0  0  1  0  0  0  0  0  0  0  0
    5.3522   -1.5003   -1.3721 C   0  0  0  1  0  0  0  0  0  0  0  0
    6.2772   -2.1636   -3.5757 N   0  0  0  1  0  0  0  0  0  0  0  0
    1.6152    0.1364    3.9625 H   0  0  0  1  0  0  0  0  0  0  0  0
    1.4668    3.2169    4.4137 H   0  0  0  1  0  0  0  0  0  0  0  0
    4.8690    2.7979    0.0261 H   0  0  0  1  0  0  0  0  0  0  0  0
    5.9881    4.1305   -1.6645 H   0  0  0  1  0  0  0  0  0  0  0  0
    3.5550    7.4100   -0.6873 H   0  0  0  1  0  0  0  0  0  0  0  0
    2.4377    6.0796    1.0005 H   0  0  0  1  0  0  0  0  0  0  0  0
    4.2263    7.8110   -3.1373 H   0  0  0  1  0  0  0  0  0  0  0  0
    5.8979    8.3178   -3.1760 H   0  0  0  1  0  0  0  0  0  0  0  0
    4.9927    8.4040   -1.6835 H   0  0  0  1  0  0  0  0  0  0  0  0
    3.4595   -1.7212    0.4111 H   0  0  0  1  0  0  0  0  0  0  0  0
    4.7713    0.5269   -0.9294 H   0  0  0  1  0  0  0  0  0  0  0  0
    2.5367   -1.1228   -2.0340 H   0  0  0  1  0  0  0  0  0  0  0  0
    2.9301    0.5488   -2.3581 H   0  0  0  1  0  0  0  0  0  0  0  0
    3.5639   -1.2320   -4.2053 H   0  0  0  1  0  0  0  0  0  0  0  0
    4.7846   -0.0588   -3.7721 H   0  0  0  1  0  0  0  0  0  0  0  0
    4.4844   -2.8960   -2.7717 H   0  0  0  1  0  0  0  0  0  0  0  0
    5.2846   -2.3173   -0.6844 H   0  0  0  1  0  0  0  0  0  0  0  0
    6.3362   -1.0819   -1.3340 H   0  0  0  1  0  0  0  0  0  0  0  0
    6.0544   -2.4459   -4.4874 H   0  0  0  1  0  0  0  0  0  0  0  0
    6.8295   -2.8504   -3.1471 H   0  0  0  1  0  0  0  0  0  0  0  0
  1  2  4  0  0  0  0
  1  6  4  0  0  0  0
  1 18  1  0  0  0  0
  2  3  4  0  0  0  0
  3  4  4  0  0  0  0
  3 25  1  0  0  0  0
  4  5  4  0  0  0  0
  4  7  4  0  0  0  0
  5  6  4  0  0  0  0
  5  9  4  0  0  0  0
  7  8  4  0  0  0  0
  7 26  1  0  0  0  0
  8  9  4  0  0  0  0
  9 10  1  0  0  0  0
 10 11  4  0  0  0  0
 10 15  4  0  0  0  0
 11 12  4  0  0  0  0
 11 27  1  0  0  0  0
 12 13  4  0  0  0  0
 12 28  1  0  0  0  0
 13 14  4  0  0  0  0
 13 16  1  0  0  0  0
 14 15  4  0  0  0  0
 14 29  1  0  0  0  0
 15 30  1  0  0  0  0
 16 17  1  0  0  0  0
 17 31  1  0  0  0  0
 17 32  1  0  0  0  0
 17 33  1  0  0  0  0
 18 19  1  0  0  0  0
 18 34  1  0  0  0  0
 19 20  1  0  0  0  0
 19 23  1  0  0  0  0
 19 35  1  0  0  0  0
 20 21  1  0  0  0  0
 20 36  1  0  0  0  0
 20 37  1  0  0  0  0
 21 22  1  0  0  0  0
 21 38  1  0  0  0  0
 21 39  1  0  0  0  0
 22 23  1  0  0  0  0
 22 24  1  0  0  0  0
 22 40  1  0  0  0  0
 23 41  1  0  0  0  0
 23 42  1  0  0  0  0
 24 43  1  0  0  0  0
 24 44  1  0  0  0  0
M  END
> <ConfClashScore>
0 

> <ConfOneFourInteractionScore>
-0.984337 

> <ConfScore>
-0.0981937 

> <ConfScorePBest>
0.00489939 

> <ConfTolerance>
0.330692 

$$$$
c22.sdf
 OpenBabel04162418103D

 44 47  0  0  0  0  0  0  0  0999 V2000
    4.0609    0.1115    1.2291 C   0  0  0  1  0  0  0  0  0  0  0  0
    3.0918    0.2193    2.1437 N   0  0  0  1  0  0  0  0  0  0  0  0
    3.4407    0.5661    3.3988 C   0  0  0  1  0  0  0  0  0  0  0  0
    4.8167    0.8045    3.6842 C   0  0  0  1  0  0  0  0  0  0  0  0
    5.6870    0.6514    2.6120 C   0  0  0  1  0  0  0  0  0  0  0  0
    5.3672    0.2975    1.3445 N   0  0  0  1  0  0  0  0  0  0  0  0
    5.6520    1.1821    4.7550 C   0  0  0  1  0  0  0  0  0  0  0  0
    6.9117    1.2505    4.3907 N   0  0  0  1  0  0  0  0  0  0  0  0
    6.9326    0.9218    3.0636 N   0  0  0  1  0  0  0  0  0  0  0  0
    8.1095    0.8711    2.2634 C   0  0  0  1  0  0  0  0  0  0  0  0
    9.1470    0.0276    2.6131 C   0  0  0  1  0  0  0  0  0  0  0  0
   10.2904   -0.0256    1.8313 C   0  0  0  1  0  0  0  0  0  0  0  0
   10.3952    0.7687    0.7050 C   0  0  0  1  0  0  0  0  0  0  0  0
    9.3546    1.6147    0.3544 C   0  0  0  1  0  0  0  0  0  0  0  0
    8.2145    1.6679    1.1339 C   0  0  0  1  0  0  0  0  0  0  0  0
   11.4610    0.8062   -0.1296 O   0  0  0  1  0  0  0  0  0  0  0  0
   12.6384    0.0914    0.2770 C   0  0  0  1  0  0  0  0  0  0  0  0
    3.6443   -0.2409   -0.0004 N   0  0  0  1  0  0  0  0  0  0  0  0
    4.5335   -0.3687   -1.1595 C   0  0  0  1  0  0  0  0  0  0  0  0
    3.7591   -0.1006   -2.4552 C   0  0  0  1  0  0  0  0  0  0  0  0
    3.7426   -1.4305   -3.1986 C   0  0  0  1  0  0  0  0  0  0  0  0
    5.0326   -2.1366   -2.7616 C   0  0  0  1  0  0  0  0  0  0  0  0
    5.0650   -1.8067   -1.2668 C   0  0  0  1  0  0  0  0  0  0  0  0
    6.2254   -1.5824   -3.4693 N   0  0  0  1  0  0  0  0  0  0  0  0
    2.7206    0.6579    4.1435 H   0  0  0  1  0  0  0  0  0  0  0  0
    5.3117    1.3824    5.7171 H   0  0  0  1  0  0  0  0  0  0  0  0
    9.0698   -0.5671    3.4628 H   0  0  0  1  0  0  0  0  0  0  0  0
   11.0694   -0.6633    2.0921 H   0  0  0  1  0  0  0  0  0  0  0  0
    9.4317    2.2094   -0.4952 H   0  0  0  1  0  0  0  0  0  0  0  0
    7.4354    2.3055    0.8731 H   0  0  0  1  0  0  0  0  0  0  0  0
   13.3803    0.1590   -0.4911 H   0  0  0  1  0  0  0  0  0  0  0  0
   12.3914   -0.9361    0.4446 H   0  0  0  1  0  0  0  0  0  0  0  0
   13.0206    0.5188    1.1803 H   0  0  0  1  0  0  0  0  0  0  0  0
    2.6900   -0.4231   -0.1292 H   0  0  0  1  0  0  0  0  0  0  0  0
    5.3462    0.3207   -1.0639 H   0  0  0  1  0  0  0  0  0  0  0  0
    4.2531    0.6482   -3.0384 H   0  0  0  1  0  0  0  0  0  0  0  0
    2.7615    0.2180   -2.2359 H   0  0  0  1  0  0  0  0  0  0  0  0
    2.8847   -2.0068   -2.9217 H   0  0  0  1  0  0  0  0  0  0  0  0
    3.7396   -1.2712   -4.2567 H   0  0  0  1  0  0  0  0  0  0  0  0
    4.9768   -3.1921   -2.9283 H   0  0  0  1  0  0  0  0  0  0  0  0
    4.4381   -2.4801   -0.7205 H   0  0  0  1  0  0  0  0  0  0  0  0
    6.0652   -1.8659   -0.8913 H   0  0  0  1  0  0  0  0  0  0  0  0
    6.1582   -1.7792   -4.4270 H   0  0  0  1  0  0  0  0  0  0  0  0
    7.0389   -1.9924   -3.1081 H   0  0  0  1  0  0  0  0  0  0  0  0
  1  2  4  0  0  0  0
  1  6  4  0  0  0  0
  1 18  1  0  0  0  0
  2  3  4  0  0  0  0
  3  4  4  0  0  0  0
  3 25  1  0  0  0  0
  4  5  4  0  0  0  0
  4  7  4  0  0  0  0
  5  6  4  0  0  0  0
  5  9  4  0  0  0  0
  7  8  4  0  0  0  0
  7 26  1  0  0  0  0
  8  9  4  0  0  0  0
  9 10  1  0  0  0  0
 10 11  4  0  0  0  0
 10 15  4  0  0  0  0
 11 12  4  0  0  0  0
 11 27  1  0  0  0  0
 12 13  4  0  0  0  0
 12 28  1  0  0  0  0
 13 14  4  0  0  0  0
 13 16  1  0  0  0  0
 14 15  4  0  0  0  0
 14 29  1  0  0  0  0
 15 30  1  0  0  0  0
 16 17  1  0  0  0  0
 17 31  1  0  0  0  0
 17 32  1  0  0  0  0
 17 33  1  0  0  0  0
 18 19  1  0  0  0  0
 18 34  1  0  0  0  0
 19 20  1  0  0  0  0
 19 23  1  0  0  0  0
 19 35  1  0  0  0  0
 20 21  1  0  0  0  0
 20 36  1  0  0  0  0
 20 37  1  0  0  0  0
 21 22  1  0  0  0  0
 21 38  1  0  0  0  0
 21 39  1  0  0  0  0
 22 23  1  0  0  0  0
 22 24  1  0  0  0  0
 22 40  1  0  0  0  0
 23 41  1  0  0  0  0
 23 42  1  0  0  0  0
 24 43  1  0  0  0  0
 24 44  1  0  0  0  0
M  END
> <ConfClashScore>
0 

> <ConfOneFourInteractionScore>
-0.984337 

> <ConfScore>
-0.0977162 

> <ConfScorePBest>
0.00488607 

> <ConfTolerance>
0.202887 

$$$$
c22.sdf
 OpenBabel04162418103D

 44 47  0  0  0  0  0  0  0  0999 V2000
    3.6478    0.7713    0.8759 C   0  0  0  1  0  0  0  0  0  0  0  0
    4.4959    1.7683    0.6040 N   0  0  0  1  0  0  0  0  0  0  0  0
    4.5180    2.8268    1.4384 C   0  0  0  1  0  0  0  0  0  0  0  0
    3.6448    2.8269    2.5651 C   0  0  0  1  0  0  0  0  0  0  0  0
    2.8344    1.7059    2.6960 C   0  0  0  1  0  0  0  0  0  0  0  0
    2.7852    0.6328    1.8714 N   0  0  0  1  0  0  0  0  0  0  0  0
    3.3097    3.6263    3.6766 C   0  0  0  1  0  0  0  0  0  0  0  0
    2.3826    3.0661    4.4189 N   0  0  0  1  0  0  0  0  0  0  0  0
    2.0889    1.8769    3.8111 N   0  0  0  1  0  0  0  0  0  0  0  0
    1.1261    0.9428    4.2890 C   0  0  0  1  0  0  0  0  0  0  0  0
    0.7627    0.9525    5.6225 C   0  0  0  1  0  0  0  0  0  0  0  0
   -0.2439    0.1125    6.0725 C   0  0  0  1  0  0  0  0  0  0  0  0
   -0.8806   -0.7386    5.1889 C   0  0  0  1  0  0  0  0  0  0  0  0
   -0.5160   -0.7482    3.8516 C   0  0  0  1  0  0  0  0  0  0  0  0
    0.4877    0.0893    3.4027 C   0  0  0  1  0  0  0  0  0  0  0  0
   -1.8586   -1.5940    5.5082 O   0  0  0  1  0  0  0  0  0  0  0  0
   -2.3534   -2.5910    4.5521 C   0  0  0  1  0  0  0  0  0  0  0  0
    3.6747   -0.2509    0.0019 N   0  0  0  1  0  0  0  0  0  0  0  0
    4.5406   -0.3703   -1.1636 C   0  0  0  1  0  0  0  0  0  0  0  0
    3.7437   -0.1071   -2.4466 C   0  0  0  1  0  0  0  0  0  0  0  0
    3.7254   -1.4365   -3.1908 C   0  0  0  1  0  0  0  0  0  0  0  0
    5.0275   -2.1331   -2.7749 C   0  0  0  1  0  0  0  0  0  0  0  0
    5.0812   -1.8041   -1.2806 C   0  0  0  1  0  0  0  0  0  0  0  0
    6.2047   -1.5694   -3.5010 N   0  0  0  1  0  0  0  0  0  0  0  0
    5.1590    3.6269    1.2637 H   0  0  0  1  0  0  0  0  0  0  0  0
    3.7441    4.5482    3.8838 H   0  0  0  1  0  0  0  0  0  0  0  0
    1.2445    1.5900    6.2881 H   0  0  0  1  0  0  0  0  0  0  0  0
   -0.5201    0.1227    7.0751 H   0  0  0  1  0  0  0  0  0  0  0  0
   -0.9977   -1.3857    3.1859 H   0  0  0  1  0  0  0  0  0  0  0  0
    0.7639    0.0792    2.4001 H   0  0  0  1  0  0  0  0  0  0  0  0
   -2.6774   -2.0991    3.6588 H   0  0  0  1  0  0  0  0  0  0  0  0
   -3.1753   -3.1223    4.9846 H   0  0  0  1  0  0  0  0  0  0  0  0
   -1.5683   -3.2785    4.3157 H   0  0  0  1  0  0  0  0  0  0  0  0
    3.0500   -0.9881    0.1653 H   0  0  0  1  0  0  0  0  0  0  0  0
    5.3494    0.3252   -1.0803 H   0  0  0  1  0  0  0  0  0  0  0  0
    2.7473    0.2038   -2.2112 H   0  0  0  1  0  0  0  0  0  0  0  0
    4.2227    0.6459   -3.0370 H   0  0  0  1  0  0  0  0  0  0  0  0
    3.7044   -1.2764   -4.2486 H   0  0  0  1  0  0  0  0  0  0  0  0
    2.8764   -2.0195   -2.9008 H   0  0  0  1  0  0  0  0  0  0  0  0
    4.9771   -3.1888   -2.9417 H   0  0  0  1  0  0  0  0  0  0  0  0
    4.4681   -2.4826   -0.7250 H   0  0  0  1  0  0  0  0  0  0  0  0
    6.0877   -1.8560   -0.9211 H   0  0  0  1  0  0  0  0  0  0  0  0
    6.2043   -1.8933   -4.4259 H   0  0  0  1  0  0  0  0  0  0  0  0
    7.0299   -1.8542   -3.0557 H   0  0  0  1  0  0  0  0  0  0  0  0
  1  2  4  0  0  0  0
  1  6  4  0  0  0  0
  1 18  1  0  0  0  0
  2  3  4  0  0  0  0
  3  4  4  0  0  0  0
  3 25  1  0  0  0  0
  4  5  4  0  0  0  0
  4  7  4  0  0  0  0
  5  6  4  0  0  0  0
  5  9  4  0  0  0  0
  7  8  4  0  0  0  0
  7 26  1  0  0  0  0
  8  9  4  0  0  0  0
  9 10  1  0  0  0  0
 10 11  4  0  0  0  0
 10 15  4  0  0  0  0
 11 12  4  0  0  0  0
 11 27  1  0  0  0  0
 12 13  4  0  0  0  0
 12 28  1  0  0  0  0
 13 14  4  0  0  0  0
 13 16  1  0  0  0  0
 14 15  4  0  0  0  0
 14 29  1  0  0  0  0
 15 30  1  0  0  0  0
 16 17  1  0  0  0  0
 17 31  1  0  0  0  0
 17 32  1  0  0  0  0
 17 33  1  0  0  0  0
 18 19  1  0  0  0  0
 18 34  1  0  0  0  0
 19 20  1  0  0  0  0
 19 23  1  0  0  0  0
 19 35  1  0  0  0  0
 20 21  1  0  0  0  0
 20 36  1  0  0  0  0
 20 37  1  0  0  0  0
 21 22  1  0  0  0  0
 21 38  1  0  0  0  0
 21 39  1  0  0  0  0
 22 23  1  0  0  0  0
 22 24  1  0  0  0  0
 22 40  1  0  0  0  0
 23 41  1  0  0  0  0
 23 42  1  0  0  0  0
 24 43  1  0  0  0  0
 24 44  1  0  0  0  0
M  END
> <ConfClashScore>
0 

> <ConfOneFourInteractionScore>
-0.984337 

> <ConfScore>
-0.0973993 

> <ConfScorePBest>
0.00487274 

> <ConfTolerance>
0.33565 

$$$$
c22.sdf
 OpenBabel04162418103D

 44 47  0  0  0  0  0  0  0  0999 V2000
    2.4973   -0.8675    0.7684 C   0  0  0  1  0  0  0  0  0  0  0  0
    1.6988   -1.7961    1.3044 N   0  0  0  1  0  0  0  0  0  0  0  0
    0.9199   -1.4380    2.3448 C   0  0  0  1  0  0  0  0  0  0  0  0
    0.9828   -0.0937    2.8145 C   0  0  0  1  0  0  0  0  0  0  0  0
    1.8648    0.7382    2.1358 C   0  0  0  1  0  0  0  0  0  0  0  0
    2.6637    0.4055    1.0941 N   0  0  0  1  0  0  0  0  0  0  0  0
    0.4049    0.7410    3.7922 C   0  0  0  1  0  0  0  0  0  0  0  0
    0.8815    1.9632    3.7342 N   0  0  0  1  0  0  0  0  0  0  0  0
    1.7854    1.9607    2.7081 N   0  0  0  1  0  0  0  0  0  0  0  0
    2.5423    3.0947    2.2970 C   0  0  0  1  0  0  0  0  0  0  0  0
    2.5226    3.4961    0.9746 C   0  0  0  1  0  0  0  0  0  0  0  0
    3.2552    4.6031    0.5755 C   0  0  0  1  0  0  0  0  0  0  0  0
    4.0095    5.3024    1.4988 C   0  0  0  1  0  0  0  0  0  0  0  0
    4.0291    4.8997    2.8251 C   0  0  0  1  0  0  0  0  0  0  0  0
    3.2987    3.7959    3.2232 C   0  0  0  1  0  0  0  0  0  0  0  0
    4.7626    6.3861    1.2281 O   0  0  0  1  0  0  0  0  0  0  0  0
    4.8364    6.7464   -0.1709 C   0  0  0  1  0  0  0  0  0  0  0  0
    3.2450   -1.2901   -0.2572 N   0  0  0  1  0  0  0  0  0  0  0  0
    4.2563   -0.5096   -0.9775 C   0  0  0  1  0  0  0  0  0  0  0  0
    3.7066    0.0010   -2.3517 C   0  0  0  1  0  0  0  0  0  0  0  0
    3.8355   -1.2412   -3.2526 C   0  0  0  1  0  0  0  0  0  0  0  0
    5.0332   -2.0913   -2.7023 C   0  0  0  1  0  0  0  0  0  0  0  0
    5.4354   -1.3904   -1.4086 C   0  0  0  1  0  0  0  0  0  0  0  0
    6.1483   -2.0968   -3.6581 N   0  0  0  1  0  0  0  0  0  0  0  0
    0.2862   -2.1285    2.7955 H   0  0  0  1  0  0  0  0  0  0  0  0
   -0.3122    0.4269    4.4768 H   0  0  0  1  0  0  0  0  0  0  0  0
    1.9583    2.9676    0.2791 H   0  0  0  1  0  0  0  0  0  0  0  0
    3.2372    4.9076   -0.4187 H   0  0  0  1  0  0  0  0  0  0  0  0
    4.5934    5.4282    3.5207 H   0  0  0  1  0  0  0  0  0  0  0  0
    3.3166    3.4914    4.2174 H   0  0  0  1  0  0  0  0  0  0  0  0
    3.8561    6.7191   -0.5989 H   0  0  0  1  0  0  0  0  0  0  0  0
    5.4690    6.0530   -0.6846 H   0  0  0  1  0  0  0  0  0  0  0  0
    5.2386    7.7335   -0.2640 H   0  0  0  1  0  0  0  0  0  0  0  0
    3.1031   -2.2123   -0.5567 H   0  0  0  1  0  0  0  0  0  0  0  0
    4.5834    0.3038   -0.3641 H   0  0  0  1  0  0  0  0  0  0  0  0
    2.6862    0.3116   -2.2672 H   0  0  0  1  0  0  0  0  0  0  0  0
    4.2968    0.8113   -2.7258 H   0  0  0  1  0  0  0  0  0  0  0  0
    4.0307   -0.9434   -4.2616 H   0  0  0  1  0  0  0  0  0  0  0  0
    2.9327   -1.8145   -3.2177 H   0  0  0  1  0  0  0  0  0  0  0  0
    4.7249   -3.0972   -2.5074 H   0  0  0  1  0  0  0  0  0  0  0  0
    5.6463   -2.1154   -0.6505 H   0  0  0  1  0  0  0  0  0  0  0  0
    6.3019   -0.7851   -1.5751 H   0  0  0  1  0  0  0  0  0  0  0  0
    5.8806   -2.5752   -4.4704 H   0  0  0  1  0  0  0  0  0  0  0  0
    6.9213   -2.5447   -3.2553 H   0  0  0  1  0  0  0  0  0  0  0  0
  1  2  4  0  0  0  0
  1  6  4  0  0  0  0
  1 18  1  0  0  0  0
  2  3  4  0  0  0  0
  3  4  4  0  0  0  0
  3 25  1  0  0  0  0
  4  5  4  0  0  0  0
  4  7  4  0  0  0  0
  5  6  4  0  0  0  0
  5  9  4  0  0  0  0
  7  8  4  0  0  0  0
  7 26  1  0  0  0  0
  8  9  4  0  0  0  0
  9 10  1  0  0  0  0
 10 11  4  0  0  0  0
 10 15  4  0  0  0  0
 11 12  4  0  0  0  0
 11 27  1  0  0  0  0
 12 13  4  0  0  0  0
 12 28  1  0  0  0  0
 13 14  4  0  0  0  0
 13 16  1  0  0  0  0
 14 15  4  0  0  0  0
 14 29  1  0  0  0  0
 15 30  1  0  0  0  0
 16 17  1  0  0  0  0
 17 31  1  0  0  0  0
 17 32  1  0  0  0  0
 17 33  1  0  0  0  0
 18 19  1  0  0  0  0
 18 34  1  0  0  0  0
 19 20  1  0  0  0  0
 19 23  1  0  0  0  0
 19 35  1  0  0  0  0
 20 21  1  0  0  0  0
 20 36  1  0  0  0  0
 20 37  1  0  0  0  0
 21 22  1  0  0  0  0
 21 38  1  0  0  0  0
 21 39  1  0  0  0  0
 22 23  1  0  0  0  0
 22 24  1  0  0  0  0
 22 40  1  0  0  0  0
 23 41  1  0  0  0  0
 23 42  1  0  0  0  0
 24 43  1  0  0  0  0
 24 44  1  0  0  0  0
M  END
> <ConfClashScore>
0 

> <ConfOneFourInteractionScore>
-0.984337 

> <ConfScore>
-0.097258 

> <ConfScorePBest>
0.00485941 

> <ConfTolerance>
0.277884 

$$$$
c22.sdf
 OpenBabel04162418103D

 44 47  0  0  0  0  0  0  0  0999 V2000
    2.9075    0.6529    0.5539 C   0  0  0  1  0  0  0  0  0  0  0  0
    1.9246    0.4099    1.4269 N   0  0  0  1  0  0  0  0  0  0  0  0
    1.3429    1.4628    2.0354 C   0  0  0  1  0  0  0  0  0  0  0  0
    1.7989    2.7748    1.7149 C   0  0  0  1  0  0  0  0  0  0  0  0
    2.8263    2.8414    0.7818 C   0  0  0  1  0  0  0  0  0  0  0  0
    3.4340    1.8028    0.1604 N   0  0  0  1  0  0  0  0  0  0  0  0
    1.5352    4.1221    2.0341 C   0  0  0  1  0  0  0  0  0  0  0  0
    2.3203    4.9426    1.3748 N   0  0  0  1  0  0  0  0  0  0  0  0
    3.1194    4.1488    0.5994 N   0  0  0  1  0  0  0  0  0  0  0  0
    4.1161    4.6295   -0.2738 C   0  0  0  1  0  0  0  0  0  0  0  0
    4.0120    4.2946   -1.6106 C   0  0  0  1  0  0  0  0  0  0  0  0
    4.9621    4.7453   -2.5138 C   0  0  0  1  0  0  0  0  0  0  0  0
    6.0163    5.5250   -2.0767 C   0  0  0  1  0  0  0  0  0  0  0  0
    6.1205    5.8607   -0.7358 C   0  0  0  1  0  0  0  0  0  0  0  0
    5.1733    5.4115    0.1648 C   0  0  0  1  0  0  0  0  0  0  0  0
    6.9935    5.8801   -2.9334 O   0  0  0  1  0  0  0  0  0  0  0  0
    6.8224    5.4040   -4.2886 C   0  0  0  1  0  0  0  0  0  0  0  0
    3.4534   -0.4569   -0.0216 N   0  0  0  1  0  0  0  0  0  0  0  0
    4.4397   -0.3582   -1.1064 C   0  0  0  1  0  0  0  0  0  0  0  0
    3.7466   -0.1328   -2.4463 C   0  0  0  1  0  0  0  0  0  0  0  0
    3.6959   -1.4838   -3.1703 C   0  0  0  1  0  0  0  0  0  0  0  0
    5.0627   -2.1285   -2.7612 C   0  0  0  1  0  0  0  0  0  0  0  0
    5.2054   -1.7153   -1.2846 C   0  0  0  1  0  0  0  0  0  0  0  0
    6.1843   -1.5809   -3.5845 N   0  0  0  1  0  0  0  0  0  0  0  0
    0.5771    1.3208    2.7246 H   0  0  0  1  0  0  0  0  0  0  0  0
    0.8070    4.4293    2.7100 H   0  0  0  1  0  0  0  0  0  0  0  0
    3.2210    3.7046   -1.9389 H   0  0  0  1  0  0  0  0  0  0  0  0
    4.8817    4.4967   -3.5204 H   0  0  0  1  0  0  0  0  0  0  0  0
    6.9115    6.4508   -0.4075 H   0  0  0  1  0  0  0  0  0  0  0  0
    5.2537    5.6600    1.1715 H   0  0  0  1  0  0  0  0  0  0  0  0
    5.8744    5.7283   -4.6641 H   0  0  0  1  0  0  0  0  0  0  0  0
    6.8629    4.3348   -4.2985 H   0  0  0  1  0  0  0  0  0  0  0  0
    7.6034    5.7967   -4.9056 H   0  0  0  1  0  0  0  0  0  0  0  0
    3.1809   -1.3428    0.2966 H   0  0  0  1  0  0  0  0  0  0  0  0
    5.1237    0.4372   -0.8959 H   0  0  0  1  0  0  0  0  0  0  0  0
    4.2994    0.5738   -3.0294 H   0  0  0  1  0  0  0  0  0  0  0  0
    2.7541    0.2340   -2.2873 H   0  0  0  1  0  0  0  0  0  0  0  0
    3.6302   -1.3537   -4.2304 H   0  0  0  1  0  0  0  0  0  0  0  0
    2.8711   -2.0750   -2.8312 H   0  0  0  1  0  0  0  0  0  0  0  0
    5.0321   -3.1933   -2.8622 H   0  0  0  1  0  0  0  0  0  0  0  0
    6.2388   -1.5882   -1.0379 H   0  0  0  1  0  0  0  0  0  0  0  0
    4.7766   -2.4639   -0.6516 H   0  0  0  1  0  0  0  0  0  0  0  0
    6.1110   -1.9171   -4.5021 H   0  0  0  1  0  0  0  0  0  0  0  0
    7.0400   -1.8647   -3.2003 H   0  0  0  1  0  0  0  0  0  0  0  0
  1  2  4  0  0  0  0
  1  6  4  0  0  0  0
  1 18  1  0  0  0  0
  2  3  4  0  0  0  0
  3  4  4  0  0  0  0
  3 25  1  0  0  0  0
  4  5  4  0  0  0  0
  4  7  4  0  0  0  0
  5  6  4  0  0  0  0
  5  9  4  0  0  0  0
  7  8  4  0  0  0  0
  7 26  1  0  0  0  0
  8  9  4  0  0  0  0
  9 10  1  0  0  0  0
 10 11  4  0  0  0  0
 10 15  4  0  0  0  0
 11 12  4  0  0  0  0
 11 27  1  0  0  0  0
 12 13  4  0  0  0  0
 12 28  1  0  0  0  0
 13 14  4  0  0  0  0
 13 16  1  0  0  0  0
 14 15  4  0  0  0  0
 14 29  1  0  0  0  0
 15 30  1  0  0  0  0
 16 17  1  0  0  0  0
 17 31  1  0  0  0  0
 17 32  1  0  0  0  0
 17 33  1  0  0  0  0
 18 19  1  0  0  0  0
 18 34  1  0  0  0  0
 19 20  1  0  0  0  0
 19 23  1  0  0  0  0
 19 35  1  0  0  0  0
 20 21  1  0  0  0  0
 20 36  1  0  0  0  0
 20 37  1  0  0  0  0
 21 22  1  0  0  0  0
 21 38  1  0  0  0  0
 21 39  1  0  0  0  0
 22 23  1  0  0  0  0
 22 24  1  0  0  0  0
 22 40  1  0  0  0  0
 23 41  1  0  0  0  0
 23 42  1  0  0  0  0
 24 43  1  0  0  0  0
 24 44  1  0  0  0  0
M  END
> <ConfClashScore>
0 

> <ConfOneFourInteractionScore>
-0.984337 

> <ConfScore>
-0.097258 

> <ConfScorePBest>
0.00484608 

> <ConfTolerance>
0.290677 

$$$$
c22.sdf
 OpenBabel04162418103D

 44 47  0  0  0  0  0  0  0  0999 V2000
    2.8297   -0.5583    0.9470 C   0  0  0  1  0  0  0  0  0  0  0  0
    2.1188   -1.3764    1.7297 N   0  0  0  1  0  0  0  0  0  0  0  0
    1.4102   -0.8310    2.7385 C   0  0  0  1  0  0  0  0  0  0  0  0
    1.4500    0.5829    2.9151 C   0  0  0  1  0  0  0  0  0  0  0  0
    2.2370    1.2790    2.0059 C   0  0  0  1  0  0  0  0  0  0  0  0
    2.9644    0.7587    0.9889 N   0  0  0  1  0  0  0  0  0  0  0  0
    0.9151    1.5868    3.7475 C   0  0  0  1  0  0  0  0  0  0  0  0
    1.3304    2.7826    3.3986 N   0  0  0  1  0  0  0  0  0  0  0  0
    2.1488    2.5912    2.3200 N   0  0  0  1  0  0  0  0  0  0  0  0
    2.8144    3.6280    1.6252 C   0  0  0  1  0  0  0  0  0  0  0  0
    2.0886    4.6660    1.0721 C   0  0  0  1  0  0  0  0  0  0  0  0
    2.7414    5.6848    0.3959 C   0  0  0  1  0  0  0  0  0  0  0  0
    4.1176    5.6600    0.2701 C   0  0  0  1  0  0  0  0  0  0  0  0
    4.8455    4.6188    0.8249 C   0  0  0  1  0  0  0  0  0  0  0  0
    4.1946    3.6029    1.4992 C   0  0  0  1  0  0  0  0  0  0  0  0
    4.8619    6.5929   -0.3699 O   0  0  0  1  0  0  0  0  0  0  0  0
    4.1746    7.7501   -0.8708 C   0  0  0  1  0  0  0  0  0  0  0  0
    3.5178   -1.1702   -0.0404 N   0  0  0  1  0  0  0  0  0  0  0  0
    4.3080   -0.4586   -1.0463 C   0  0  0  1  0  0  0  0  0  0  0  0
    3.4592   -0.1930   -2.2913 C   0  0  0  1  0  0  0  0  0  0  0  0
    4.0516   -1.0578   -3.3956 C   0  0  0  1  0  0  0  0  0  0  0  0
    4.8812   -2.1318   -2.7052 C   0  0  0  1  0  0  0  0  0  0  0  0
    5.5159   -1.3387   -1.5023 C   0  0  0  1  0  0  0  0  0  0  0  0
    5.9407   -2.6726   -3.6198 N   0  0  0  1  0  0  0  0  0  0  0  0
    0.8460   -1.4296    3.3749 H   0  0  0  1  0  0  0  0  0  0  0  0
    0.2697    1.4026    4.5419 H   0  0  0  1  0  0  0  0  0  0  0  0
    1.0527    4.6827    1.1632 H   0  0  0  1  0  0  0  0  0  0  0  0
    2.1957    6.4680   -0.0169 H   0  0  0  1  0  0  0  0  0  0  0  0
    5.8813    4.6021    0.7338 H   0  0  0  1  0  0  0  0  0  0  0  0
    4.7404    2.8197    1.9120 H   0  0  0  1  0  0  0  0  0  0  0  0
    4.8807    8.4212   -1.3134 H   0  0  0  1  0  0  0  0  0  0  0  0
    3.6717    8.2425   -0.0649 H   0  0  0  1  0  0  0  0  0  0  0  0
    3.4593    7.4488   -1.6073 H   0  0  0  1  0  0  0  0  0  0  0  0
    3.4864   -2.1486   -0.0864 H   0  0  0  1  0  0  0  0  0  0  0  0
    4.6596    0.4651   -0.6364 H   0  0  0  1  0  0  0  0  0  0  0  0
    3.5095    0.8410   -2.5617 H   0  0  0  1  0  0  0  0  0  0  0  0
    2.4403   -0.4660   -2.1117 H   0  0  0  1  0  0  0  0  0  0  0  0
    3.2704   -1.5078   -3.9719 H   0  0  0  1  0  0  0  0  0  0  0  0
    4.6721   -0.4661   -4.0357 H   0  0  0  1  0  0  0  0  0  0  0  0
    4.2649   -2.9348   -2.3584 H   0  0  0  1  0  0  0  0  0  0  0  0
    6.3408   -0.7367   -1.8217 H   0  0  0  1  0  0  0  0  0  0  0  0
    5.8359   -1.9987   -0.7233 H   0  0  0  1  0  0  0  0  0  0  0  0
    6.5046   -3.3060   -3.1287 H   0  0  0  1  0  0  0  0  0  0  0  0
    6.4926   -1.9343   -3.9526 H   0  0  0  1  0  0  0  0  0  0  0  0
  1  2  4  0  0  0  0
  1  6  4  0  0  0  0
  1 18  1  0  0  0  0
  2  3  4  0  0  0  0
  3  4  4  0  0  0  0
  3 25  1  0  0  0  0
  4  5  4  0  0  0  0
  4  7  4  0  0  0  0
  5  6  4  0  0  0  0
  5  9  4  0  0  0  0
  7  8  4  0  0  0  0
  7 26  1  0  0  0  0
  8  9  4  0  0  0  0
  9 10  1  0  0  0  0
 10 11  4  0  0  0  0
 10 15  4  0  0  0  0
 11 12  4  0  0  0  0
 11 27  1  0  0  0  0
 12 13  4  0  0  0  0
 12 28  1  0  0  0  0
 13 14  4  0  0  0  0
 13 16  1  0  0  0  0
 14 15  4  0  0  0  0
 14 29  1  0  0  0  0
 15 30  1  0  0  0  0
 16 17  1  0  0  0  0
 17 31  1  0  0  0  0
 17 32  1  0  0  0  0
 17 33  1  0  0  0  0
 18 19  1  0  0  0  0
 18 34  1  0  0  0  0
 19 20  1  0  0  0  0
 19 23  1  0  0  0  0
 19 35  1  0  0  0  0
 20 21  1  0  0  0  0
 20 36  1  0  0  0  0
 20 37  1  0  0  0  0
 21 22  1  0  0  0  0
 21 38  1  0  0  0  0
 21 39  1  0  0  0  0
 22 23  1  0  0  0  0
 22 24  1  0  0  0  0
 22 40  1  0  0  0  0
 23 41  1  0  0  0  0
 23 42  1  0  0  0  0
 24 43  1  0  0  0  0
 24 44  1  0  0  0  0
M  END
> <ConfClashScore>
0 

> <ConfOneFourInteractionScore>
-0.984337 

> <ConfScore>
-0.0967773 

> <ConfScorePBest>
0.00483275 

> <ConfTolerance>
0.343683 

$$$$
c22.sdf
 OpenBabel04162418103D

 44 47  0  0  0  0  0  0  0  0999 V2000
    4.5429    1.5962    0.2736 C   0  0  0  1  0  0  0  0  0  0  0  0
    5.0716    2.3743   -0.6762 N   0  0  0  1  0  0  0  0  0  0  0  0
    5.2750    3.6756   -0.3888 C   0  0  0  1  0  0  0  0  0  0  0  0
    4.9233    4.1519    0.9078 C   0  0  0  1  0  0  0  0  0  0  0  0
    4.3904    3.2028    1.7714 C   0  0  0  1  0  0  0  0  0  0  0  0
    4.1682    1.8929    1.5088 N   0  0  0  1  0  0  0  0  0  0  0  0
    4.9459    5.3374    1.6701 C   0  0  0  1  0  0  0  0  0  0  0  0
    4.4707    5.1491    2.8795 N   0  0  0  1  0  0  0  0  0  0  0  0
    4.1270    3.8270    2.9416 N   0  0  0  1  0  0  0  0  0  0  0  0
    3.5659    3.1916    4.0872 C   0  0  0  1  0  0  0  0  0  0  0  0
    4.3423    2.9801    5.2109 C   0  0  0  1  0  0  0  0  0  0  0  0
    3.8224    2.2845    6.2914 C   0  0  0  1  0  0  0  0  0  0  0  0
    2.5296    1.7980    6.2430 C   0  0  0  1  0  0  0  0  0  0  0  0
    1.7511    2.0103    5.1158 C   0  0  0  1  0  0  0  0  0  0  0  0
    2.2694    2.7038    4.0384 C   0  0  0  1  0  0  0  0  0  0  0  0
    2.0842    1.1229    7.3291 O   0  0  0  1  0  0  0  0  0  0  0  0
    2.8508    1.2446    8.5373 C   0  0  0  1  0  0  0  0  0  0  0  0
    4.3635    0.3109   -0.0806 N   0  0  0  1  0  0  0  0  0  0  0  0
    4.6719   -0.2196   -1.4081 C   0  0  0  1  0  0  0  0  0  0  0  0
    3.4045   -0.4387   -2.2230 C   0  0  0  1  0  0  0  0  0  0  0  0
    3.7406   -1.4922   -3.2697 C   0  0  0  1  0  0  0  0  0  0  0  0
    4.9972   -2.2037   -2.7637 C   0  0  0  1  0  0  0  0  0  0  0  0
    5.2640   -1.6757   -1.3175 C   0  0  0  1  0  0  0  0  0  0  0  0
    6.1575   -1.8877   -3.6480 N   0  0  0  1  0  0  0  0  0  0  0  0
    5.6803    4.3187   -1.0985 H   0  0  0  1  0  0  0  0  0  0  0  0
    5.2967    6.2507    1.3172 H   0  0  0  1  0  0  0  0  0  0  0  0
    5.3164    3.3426    5.2458 H   0  0  0  1  0  0  0  0  0  0  0  0
    4.4052    2.1288    7.1385 H   0  0  0  1  0  0  0  0  0  0  0  0
    0.7770    1.6477    5.0809 H   0  0  0  1  0  0  0  0  0  0  0  0
    1.6866    2.8595    3.1912 H   0  0  0  1  0  0  0  0  0  0  0  0
    3.7522    0.6751    8.4473 H   0  0  0  1  0  0  0  0  0  0  0  0
    2.2773    0.8761    9.3620 H   0  0  0  1  0  0  0  0  0  0  0  0
    3.0943    2.2733    8.7029 H   0  0  0  1  0  0  0  0  0  0  0  0
    4.0049   -0.3065    0.5907 H   0  0  0  1  0  0  0  0  0  0  0  0
    5.3460    0.4428   -1.9097 H   0  0  0  1  0  0  0  0  0  0  0  0
    2.6138   -0.7849   -1.5908 H   0  0  0  1  0  0  0  0  0  0  0  0
    3.1086    0.4732   -2.6983 H   0  0  0  1  0  0  0  0  0  0  0  0
    3.9310   -1.0291   -4.2153 H   0  0  0  1  0  0  0  0  0  0  0  0
    2.9340   -2.1882   -3.3688 H   0  0  0  1  0  0  0  0  0  0  0  0
    4.8393   -3.2618   -2.7460 H   0  0  0  1  0  0  0  0  0  0  0  0
    6.3101   -1.6599   -1.0929 H   0  0  0  1  0  0  0  0  0  0  0  0
    4.7503   -2.2627   -0.5851 H   0  0  0  1  0  0  0  0  0  0  0  0
    6.9737   -2.2744   -3.2674 H   0  0  0  1  0  0  0  0  0  0  0  0
    6.2590   -0.9156   -3.7185 H   0  0  0  1  0  0  0  0  0  0  0  0
  1  2  4  0  0  0  0
  1  6  4  0  0  0  0
  1 18  1  0  0  0  0
  2  3  4  0  0  0  0
  3  4  4  0  0  0  0
  3 25  1  0  0  0  0
  4  5  4  0  0  0  0
  4  7  4  0  0  0  0
  5  6  4  0  0  0  0
  5  9  4  0  0  0  0
  7  8  4  0  0  0  0
  7 26  1  0  0  0  0
  8  9  4  0  0  0  0
  9 10  1  0  0  0  0
 10 11  4  0  0  0  0
 10 15  4  0  0  0  0
 11 12  4  0  0  0  0
 11 27  1  0  0  0  0
 12 13  4  0  0  0  0
 12 28  1  0  0  0  0
 13 14  4  0  0  0  0
 13 16  1  0  0  0  0
 14 15  4  0  0  0  0
 14 29  1  0  0  0  0
 15 30  1  0  0  0  0
 16 17  1  0  0  0  0
 17 31  1  0  0  0  0
 17 32  1  0  0  0  0
 17 33  1  0  0  0  0
 18 19  1  0  0  0  0
 18 34  1  0  0  0  0
 19 20  1  0  0  0  0
 19 23  1  0  0  0  0
 19 35  1  0  0  0  0
 20 21  1  0  0  0  0
 20 36  1  0  0  0  0
 20 37  1  0  0  0  0
 21 22  1  0  0  0  0
 21 38  1  0  0  0  0
 21 39  1  0  0  0  0
 22 23  1  0  0  0  0
 22 24  1  0  0  0  0
 22 40  1  0  0  0  0
 23 41  1  0  0  0  0
 23 42  1  0  0  0  0
 24 43  1  0  0  0  0
 24 44  1  0  0  0  0
M  END
> <ConfClashScore>
0 

> <ConfOneFourInteractionScore>
-0.984337 

> <ConfScore>
-0.0967773 

> <ConfScorePBest>
0.00481943 

> <ConfTolerance>
0.302615 

$$$$
c22.sdf
 OpenBabel04162418103D

 44 47  0  0  0  0  0  0  0  0999 V2000
    4.9885    1.0199    0.7779 C   0  0  0  1  0  0  0  0  0  0  0  0
    4.4148    1.3013    1.9521 N   0  0  0  1  0  0  0  0  0  0  0  0
    5.0706    2.1214    2.7974 C   0  0  0  1  0  0  0  0  0  0  0  0
    6.3328    2.6485    2.3964 C   0  0  0  1  0  0  0  0  0  0  0  0
    6.7756    2.2542    1.1398 C   0  0  0  1  0  0  0  0  0  0  0  0
    6.1432    1.4275    0.2732 N   0  0  0  1  0  0  0  0  0  0  0  0
    7.3495    3.5036    2.8674 C   0  0  0  1  0  0  0  0  0  0  0  0
    8.3269    3.6245    1.9989 N   0  0  0  1  0  0  0  0  0  0  0  0
    7.9707    2.8506    0.9293 N   0  0  0  1  0  0  0  0  0  0  0  0
    8.7463    2.6953   -0.2374 C   0  0  0  1  0  0  0  0  0  0  0  0
    8.6452    1.4971   -0.9189 C   0  0  0  1  0  0  0  0  0  0  0  0
    9.3817    1.2934   -2.0753 C   0  0  0  1  0  0  0  0  0  0  0  0
   10.2213    2.2863   -2.5441 C   0  0  0  1  0  0  0  0  0  0  0  0
   10.3226    3.4880   -1.8605 C   0  0  0  1  0  0  0  0  0  0  0  0
    9.5882    3.6912   -0.7073 C   0  0  0  1  0  0  0  0  0  0  0  0
   10.8720    1.9307   -3.6772 O   0  0  0  1  0  0  0  0  0  0  0  0
   11.5776    2.9649   -4.3807 C   0  0  0  1  0  0  0  0  0  0  0  0
    4.2827    0.1937   -0.0151 N   0  0  0  1  0  0  0  0  0  0  0  0
    4.6591   -0.2571   -1.3491 C   0  0  0  1  0  0  0  0  0  0  0  0
    3.4352   -0.3597   -2.2674 C   0  0  0  1  0  0  0  0  0  0  0  0
    3.7662   -1.3729   -3.3585 C   0  0  0  1  0  0  0  0  0  0  0  0
    4.9727   -2.1914   -2.7803 C   0  0  0  1  0  0  0  0  0  0  0  0
    5.1772   -1.7343   -1.3241 C   0  0  0  1  0  0  0  0  0  0  0  0
    6.2106   -1.9185   -3.5832 N   0  0  0  1  0  0  0  0  0  0  0  0
    4.6639    2.3646    3.7232 H   0  0  0  1  0  0  0  0  0  0  0  0
    7.3281    3.9811    3.7910 H   0  0  0  1  0  0  0  0  0  0  0  0
    8.0165    0.7485   -0.5640 H   0  0  0  1  0  0  0  0  0  0  0  0
    9.3026    0.3934   -2.5903 H   0  0  0  1  0  0  0  0  0  0  0  0
   10.9512    4.2366   -2.2153 H   0  0  0  1  0  0  0  0  0  0  0  0
    9.6673    4.5913   -0.1923 H   0  0  0  1  0  0  0  0  0  0  0  0
   10.8756    3.6584   -4.7944 H   0  0  0  1  0  0  0  0  0  0  0  0
   12.1552    2.5294   -5.1692 H   0  0  0  1  0  0  0  0  0  0  0  0
   12.2278    3.4774   -3.7028 H   0  0  0  1  0  0  0  0  0  0  0  0
    3.4312   -0.1379    0.3392 H   0  0  0  1  0  0  0  0  0  0  0  0
    5.3947    0.4052   -1.7556 H   0  0  0  1  0  0  0  0  0  0  0  0
    3.2259    0.5938   -2.7055 H   0  0  0  1  0  0  0  0  0  0  0  0
    2.5851   -0.6900   -1.7078 H   0  0  0  1  0  0  0  0  0  0  0  0
    2.9299   -2.0135   -3.5461 H   0  0  0  1  0  0  0  0  0  0  0  0
    4.0456   -0.8760   -4.2640 H   0  0  0  1  0  0  0  0  0  0  0  0
    4.7523   -3.2381   -2.8082 H   0  0  0  1  0  0  0  0  0  0  0  0
    6.2103   -1.7757   -1.0486 H   0  0  0  1  0  0  0  0  0  0  0  0
    4.6029   -2.3327   -0.6480 H   0  0  0  1  0  0  0  0  0  0  0  0
    6.9305   -2.5138   -3.2869 H   0  0  0  1  0  0  0  0  0  0  0  0
    6.4842   -0.9863   -3.4547 H   0  0  0  1  0  0  0  0  0  0  0  0
  1  2  4  0  0  0  0
  1  6  4  0  0  0  0
  1 18  1  0  0  0  0
  2  3  4  0  0  0  0
  3  4  4  0  0  0  0
  3 25  1  0  0  0  0
  4  5  4  0  0  0  0
  4  7  4  0  0  0  0
  5  6  4  0  0  0  0
  5  9  4  0  0  0  0
  7  8  4  0  0  0  0
  7 26  1  0  0  0  0
  8  9  4  0  0  0  0
  9 10  1  0  0  0  0
 10 11  4  0  0  0  0
 10 15  4  0  0  0  0
 11 12  4  0  0  0  0
 11 27  1  0  0  0  0
 12 13  4  0  0  0  0
 12 28  1  0  0  0  0
 13 14  4  0  0  0  0
 13 16  1  0  0  0  0
 14 15  4  0  0  0  0
 14 29  1  0  0  0  0
 15 30  1  0  0  0  0
 16 17  1  0  0  0  0
 17 31  1  0  0  0  0
 17 32  1  0  0  0  0
 17 33  1  0  0  0  0
 18 19  1  0  0  0  0
 18 34  1  0  0  0  0
 19 20  1  0  0  0  0
 19 23  1  0  0  0  0
 19 35  1  0  0  0  0
 20 21  1  0  0  0  0
 20 36  1  0  0  0  0
 20 37  1  0  0  0  0
 21 22  1  0  0  0  0
 21 38  1  0  0  0  0
 21 39  1  0  0  0  0
 22 23  1  0  0  0  0
 22 24  1  0  0  0  0
 22 40  1  0  0  0  0
 23 41  1  0  0  0  0
 23 42  1  0  0  0  0
 24 43  1  0  0  0  0
 24 44  1  0  0  0  0
M  END
> <ConfClashScore>
0 

> <ConfOneFourInteractionScore>
-0.984337 

> <ConfScore>
-0.095711 

> <ConfScorePBest>
0.0048061 

> <ConfTolerance>
0.247392 

$$$$
c22.sdf
 OpenBabel04162418103D

 44 47  0  0  0  0  0  0  0  0999 V2000
    3.5089   -1.3942    1.1005 C   0  0  0  1  0  0  0  0  0  0  0  0
    4.6822   -0.9866    1.5946 N   0  0  0  1  0  0  0  0  0  0  0  0
    4.9190   -1.1811    2.9074 C   0  0  0  1  0  0  0  0  0  0  0  0
    3.9141   -1.8131    3.6965 C   0  0  0  1  0  0  0  0  0  0  0  0
    2.7578   -2.1759    3.0169 C   0  0  0  1  0  0  0  0  0  0  0  0
    2.4893   -1.9872    1.7030 N   0  0  0  1  0  0  0  0  0  0  0  0
    3.6831   -2.2371    5.0208 C   0  0  0  1  0  0  0  0  0  0  0  0
    2.5039   -2.7989    5.1547 N   0  0  0  1  0  0  0  0  0  0  0  0
    1.9315   -2.7608    3.9134 N   0  0  0  1  0  0  0  0  0  0  0  0
    0.6361   -3.2700    3.6054 C   0  0  0  1  0  0  0  0  0  0  0  0
   -0.4850   -2.6634    4.1394 C   0  0  0  1  0  0  0  0  0  0  0  0
   -1.7491   -3.0924    3.7661 C   0  0  0  1  0  0  0  0  0  0  0  0
   -1.8885   -4.1303    2.8640 C   0  0  0  1  0  0  0  0  0  0  0  0
   -0.7638   -4.7386    2.3285 C   0  0  0  1  0  0  0  0  0  0  0  0
    0.4967   -4.3109    2.7007 C   0  0  0  1  0  0  0  0  0  0  0  0
   -3.0934   -4.5999    2.4623 O   0  0  0  1  0  0  0  0  0  0  0  0
   -3.1102   -5.8604    1.7743 C   0  0  0  1  0  0  0  0  0  0  0  0
    3.3362   -1.1656   -0.2190 N   0  0  0  1  0  0  0  0  0  0  0  0
    4.3069   -0.4588   -1.0597 C   0  0  0  1  0  0  0  0  0  0  0  0
    3.7121   -0.1079   -2.4297 C   0  0  0  1  0  0  0  0  0  0  0  0
    3.7508   -1.4138   -3.2137 C   0  0  0  1  0  0  0  0  0  0  0  0
    4.9470   -2.1904   -2.6512 C   0  0  0  1  0  0  0  0  0  0  0  0
    5.4694   -1.3709   -1.4607 C   0  0  0  1  0  0  0  0  0  0  0  0
    6.0102   -2.3277   -3.6912 N   0  0  0  1  0  0  0  0  0  0  0  0
    5.8164   -0.8764    3.3357 H   0  0  0  1  0  0  0  0  0  0  0  0
    4.3642   -2.1192    5.7978 H   0  0  0  1  0  0  0  0  0  0  0  0
   -0.3803   -1.8851    4.8212 H   0  0  0  1  0  0  0  0  0  0  0  0
   -2.5928   -2.6333    4.1648 H   0  0  0  1  0  0  0  0  0  0  0  0
   -0.8686   -5.5169    1.6467 H   0  0  0  1  0  0  0  0  0  0  0  0
    1.3404   -4.7700    2.3020 H   0  0  0  1  0  0  0  0  0  0  0  0
   -2.5318   -5.7855    0.8772 H   0  0  0  1  0  0  0  0  0  0  0  0
   -4.1189   -6.1183    1.5274 H   0  0  0  1  0  0  0  0  0  0  0  0
   -2.6925   -6.6167    2.4056 H   0  0  0  1  0  0  0  0  0  0  0  0
    2.5132   -1.4916   -0.6394 H   0  0  0  1  0  0  0  0  0  0  0  0
    4.6533    0.4148   -0.5481 H   0  0  0  1  0  0  0  0  0  0  0  0
    2.7056    0.2402   -2.3261 H   0  0  0  1  0  0  0  0  0  0  0  0
    4.3010    0.6416   -2.9159 H   0  0  0  1  0  0  0  0  0  0  0  0
    3.8875   -1.2200   -4.2571 H   0  0  0  1  0  0  0  0  0  0  0  0
    2.8451   -1.9646   -3.0684 H   0  0  0  1  0  0  0  0  0  0  0  0
    4.6384   -3.1618   -2.3257 H   0  0  0  1  0  0  0  0  0  0  0  0
    5.7369   -2.0159   -0.6499 H   0  0  0  1  0  0  0  0  0  0  0  0
    6.3197   -0.7894   -1.7500 H   0  0  0  1  0  0  0  0  0  0  0  0
    6.8074   -2.7347   -3.2923 H   0  0  0  1  0  0  0  0  0  0  0  0
    6.2376   -1.4422   -4.0443 H   0  0  0  1  0  0  0  0  0  0  0  0
  1  2  4  0  0  0  0
  1  6  4  0  0  0  0
  1 18  1  0  0  0  0
  2  3  4  0  0  0  0
  3  4  4  0  0  0  0
  3 25  1  0  0  0  0
  4  5  4  0  0  0  0
  4  7  4  0  0  0  0
  5  6  4  0  0  0  0
  5  9  4  0  0  0  0
  7  8  4  0  0  0  0
  7 26  1  0  0  0  0
  8  9  4  0  0  0  0
  9 10  1  0  0  0  0
 10 11  4  0  0  0  0
 10 15  4  0  0  0  0
 11 12  4  0  0  0  0
 11 27  1  0  0  0  0
 12 13  4  0  0  0  0
 12 28  1  0  0  0  0
 13 14  4  0  0  0  0
 13 16  1  0  0  0  0
 14 15  4  0  0  0  0
 14 29  1  0  0  0  0
 15 30  1  0  0  0  0
 16 17  1  0  0  0  0
 17 31  1  0  0  0  0
 17 32  1  0  0  0  0
 17 33  1  0  0  0  0
 18 19  1  0  0  0  0
 18 34  1  0  0  0  0
 19 20  1  0  0  0  0
 19 23  1  0  0  0  0
 19 35  1  0  0  0  0
 20 21  1  0  0  0  0
 20 36  1  0  0  0  0
 20 37  1  0  0  0  0
 21 22  1  0  0  0  0
 21 38  1  0  0  0  0
 21 39  1  0  0  0  0
 22 23  1  0  0  0  0
 22 24  1  0  0  0  0
 22 40  1  0  0  0  0
 23 41  1  0  0  0  0
 23 42  1  0  0  0  0
 24 43  1  0  0  0  0
 24 44  1  0  0  0  0
M  END
> <ConfClashScore>
0 

> <ConfOneFourInteractionScore>
-0.984337 

> <ConfScore>
-0.095355 

> <ConfScorePBest>
0.00479277 

> <ConfTolerance>
0.2586 

$$$$
c22.sdf
 OpenBabel04162418103D

 44 47  0  0  0  0  0  0  0  0999 V2000
    4.0669   -0.9129    1.3528 C   0  0  0  1  0  0  0  0  0  0  0  0
    3.3108   -1.5735    2.2354 N   0  0  0  1  0  0  0  0  0  0  0  0
    3.6256   -1.4703    3.5421 C   0  0  0  1  0  0  0  0  0  0  0  0
    4.7391   -0.6622    3.9149 C   0  0  0  1  0  0  0  0  0  0  0  0
    5.4092   -0.0439    2.8664 C   0  0  0  1  0  0  0  0  0  0  0  0
    5.1209   -0.1346    1.5463 N   0  0  0  1  0  0  0  0  0  0  0  0
    5.4322   -0.2362    5.0659 C   0  0  0  1  0  0  0  0  0  0  0  0
    6.4336    0.5586    4.7664 N   0  0  0  1  0  0  0  0  0  0  0  0
    6.4185    0.6774    3.4043 N   0  0  0  1  0  0  0  0  0  0  0  0
    7.3430    1.4570    2.6522 C   0  0  0  1  0  0  0  0  0  0  0  0
    8.7005    1.3255    2.8761 C   0  0  0  1  0  0  0  0  0  0  0  0
    9.6005    2.0804    2.1403 C   0  0  0  1  0  0  0  0  0  0  0  0
    9.1403    2.9686    1.1865 C   0  0  0  1  0  0  0  0  0  0  0  0
    7.7787    3.1004    0.9620 C   0  0  0  1  0  0  0  0  0  0  0  0
    6.8812    2.3477    1.6957 C   0  0  0  1  0  0  0  0  0  0  0  0
   10.1055    3.6500    0.5392 O   0  0  0  1  0  0  0  0  0  0  0  0
    9.6701    4.3454   -0.6522 C   0  0  0  1  0  0  0  0  0  0  0  0
    3.6986   -1.0627    0.0625 N   0  0  0  1  0  0  0  0  0  0  0  0
    4.3599   -0.4033   -1.0501 C   0  0  0  1  0  0  0  0  0  0  0  0
    3.3857   -0.2738   -2.2549 C   0  0  0  1  0  0  0  0  0  0  0  0
    3.9397   -1.1788   -3.3694 C   0  0  0  1  0  0  0  0  0  0  0  0
    4.9307   -2.1398   -2.6847 C   0  0  0  1  0  0  0  0  0  0  0  0
    5.5670   -1.2658   -1.5512 C   0  0  0  1  0  0  0  0  0  0  0  0
    5.9702   -2.6043   -3.6447 N   0  0  0  1  0  0  0  0  0  0  0  0
    3.0675   -1.9701    4.2635 H   0  0  0  1  0  0  0  0  0  0  0  0
    5.1809   -0.5174    6.0351 H   0  0  0  1  0  0  0  0  0  0  0  0
    9.0466    0.6601    3.5966 H   0  0  0  1  0  0  0  0  0  0  0  0
   10.6221    1.9786    2.3059 H   0  0  0  1  0  0  0  0  0  0  0  0
    7.4325    3.7657    0.2416 H   0  0  0  1  0  0  0  0  0  0  0  0
    5.8596    2.4495    1.5300 H   0  0  0  1  0  0  0  0  0  0  0  0
   10.5239    4.6989   -1.1916 H   0  0  0  1  0  0  0  0  0  0  0  0
    9.0546    5.1757   -0.3753 H   0  0  0  1  0  0  0  0  0  0  0  0
    9.1098    3.6760   -1.2708 H   0  0  0  1  0  0  0  0  0  0  0  0
    2.9401   -1.6510   -0.1351 H   0  0  0  1  0  0  0  0  0  0  0  0
    4.6984    0.5638   -0.7421 H   0  0  0  1  0  0  0  0  0  0  0  0
    2.4050   -0.5951   -1.9723 H   0  0  0  1  0  0  0  0  0  0  0  0
    3.3463    0.7416   -2.5898 H   0  0  0  1  0  0  0  0  0  0  0  0
    4.4427   -0.5916   -4.1091 H   0  0  0  1  0  0  0  0  0  0  0  0
    3.1461   -1.7295   -3.8296 H   0  0  0  1  0  0  0  0  0  0  0  0
    4.4204   -2.9857   -2.2738 H   0  0  0  1  0  0  0  0  0  0  0  0
    5.9538   -1.8792   -0.7644 H   0  0  0  1  0  0  0  0  0  0  0  0
    6.3485   -0.6453   -1.9374 H   0  0  0  1  0  0  0  0  0  0  0  0
    6.6063   -3.1881   -3.1810 H   0  0  0  1  0  0  0  0  0  0  0  0
    6.4456   -1.8297   -4.0113 H   0  0  0  1  0  0  0  0  0  0  0  0
  1  2  4  0  0  0  0
  1  6  4  0  0  0  0
  1 18  1  0  0  0  0
  2  3  4  0  0  0  0
  3  4  4  0  0  0  0
  3 25  1  0  0  0  0
  4  5  4  0  0  0  0
  4  7  4  0  0  0  0
  5  6  4  0  0  0  0
  5  9  4  0  0  0  0
  7  8  4  0  0  0  0
  7 26  1  0  0  0  0
  8  9  4  0  0  0  0
  9 10  1  0  0  0  0
 10 11  4  0  0  0  0
 10 15  4  0  0  0  0
 11 12  4  0  0  0  0
 11 27  1  0  0  0  0
 12 13  4  0  0  0  0
 12 28  1  0  0  0  0
 13 14  4  0  0  0  0
 13 16  1  0  0  0  0
 14 15  4  0  0  0  0
 14 29  1  0  0  0  0
 15 30  1  0  0  0  0
 16 17  1  0  0  0  0
 17 31  1  0  0  0  0
 17 32  1  0  0  0  0
 17 33  1  0  0  0  0
 18 19  1  0  0  0  0
 18 34  1  0  0  0  0
 19 20  1  0  0  0  0
 19 23  1  0  0  0  0
 19 35  1  0  0  0  0
 20 21  1  0  0  0  0
 20 36  1  0  0  0  0
 20 37  1  0  0  0  0
 21 22  1  0  0  0  0
 21 38  1  0  0  0  0
 21 39  1  0  0  0  0
 22 23  1  0  0  0  0
 22 24  1  0  0  0  0
 22 40  1  0  0  0  0
 23 41  1  0  0  0  0
 23 42  1  0  0  0  0
 24 43  1  0  0  0  0
 24 44  1  0  0  0  0
M  END
> <ConfClashScore>
0 

> <ConfOneFourInteractionScore>
-0.984337 

> <ConfScore>
-0.0947753 

> <ConfScorePBest>
0.00477944 

> <ConfTolerance>
0.246641 

$$$$
c22.sdf
 OpenBabel04162418103D

 44 47  0  0  0  0  0  0  0  0999 V2000
    4.2783    1.5546    0.4082 C   0  0  0  1  0  0  0  0  0  0  0  0
    3.8250    1.7176    1.6552 N   0  0  0  1  0  0  0  0  0  0  0  0
    3.7735    2.9697    2.1522 C   0  0  0  1  0  0  0  0  0  0  0  0
    4.1974    4.0508    1.3255 C   0  0  0  1  0  0  0  0  0  0  0  0
    4.6343    3.6985    0.0545 C   0  0  0  1  0  0  0  0  0  0  0  0
    4.7039    2.4513   -0.4688 N   0  0  0  1  0  0  0  0  0  0  0  0
    4.3202    5.4547    1.3555 C   0  0  0  1  0  0  0  0  0  0  0  0
    4.7908    5.9276    0.2246 N   0  0  0  1  0  0  0  0  0  0  0  0
    4.9849    4.8396   -0.5806 N   0  0  0  1  0  0  0  0  0  0  0  0
    5.4841    4.8996   -1.8974 C   0  0  0  1  0  0  0  0  0  0  0  0
    6.6962    4.3405   -2.2558 C   0  0  0  1  0  0  0  0  0  0  0  0
    7.1371    4.4240   -3.5673 C   0  0  0  1  0  0  0  0  0  0  0  0
    6.3673    5.0710   -4.5155 C   0  0  0  1  0  0  0  0  0  0  0  0
    5.1517    5.6318   -4.1559 C   0  0  0  1  0  0  0  0  0  0  0  0
    4.7119    5.5486   -2.8482 C   0  0  0  1  0  0  0  0  0  0  0  0
    6.9022    5.0938   -5.7593 O   0  0  0  1  0  0  0  0  0  0  0  0
    6.2878    5.9646   -6.7220 C   0  0  0  1  0  0  0  0  0  0  0  0
    4.3067    0.2809   -0.0234 N   0  0  0  1  0  0  0  0  0  0  0  0
    4.6828   -0.2286   -1.3307 C   0  0  0  1  0  0  0  0  0  0  0  0
    3.4609   -0.4026   -2.2367 C   0  0  0  1  0  0  0  0  0  0  0  0
    3.8717   -1.4651   -3.2683 C   0  0  0  1  0  0  0  0  0  0  0  0
    5.0594   -2.2180   -2.6578 C   0  0  0  1  0  0  0  0  0  0  0  0
    5.2015   -1.6698   -1.2433 C   0  0  0  1  0  0  0  0  0  0  0  0
    6.2818   -1.9645   -3.4324 N   0  0  0  1  0  0  0  0  0  0  0  0
    3.4316    3.1432    3.1189 H   0  0  0  1  0  0  0  0  0  0  0  0
    4.0685    6.0445    2.1742 H   0  0  0  1  0  0  0  0  0  0  0  0
    7.2773    3.8571   -1.5415 H   0  0  0  1  0  0  0  0  0  0  0  0
    8.0473    3.9998   -3.8378 H   0  0  0  1  0  0  0  0  0  0  0  0
    4.5705    6.1152   -4.8701 H   0  0  0  1  0  0  0  0  0  0  0  0
    3.8017    5.9728   -2.5776 H   0  0  0  1  0  0  0  0  0  0  0  0
    6.8875    5.9978   -7.6076 H   0  0  0  1  0  0  0  0  0  0  0  0
    6.2050    6.9489   -6.3106 H   0  0  0  1  0  0  0  0  0  0  0  0
    5.3132    5.5960   -6.9651 H   0  0  0  1  0  0  0  0  0  0  0  0
    4.0370   -0.3949    0.6331 H   0  0  0  1  0  0  0  0  0  0  0  0
    5.4081    0.4223   -1.7725 H   0  0  0  1  0  0  0  0  0  0  0  0
    2.6178   -0.7373   -1.6691 H   0  0  0  1  0  0  0  0  0  0  0  0
    3.2205    0.5195   -2.7233 H   0  0  0  1  0  0  0  0  0  0  0  0
    4.1612   -0.9979   -4.1864 H   0  0  0  1  0  0  0  0  0  0  0  0
    3.0601   -2.1382   -3.4505 H   0  0  0  1  0  0  0  0  0  0  0  0
    4.8636   -3.2697   -2.6337 H   0  0  0  1  0  0  0  0  0  0  0  0
    6.2258   -1.6840   -0.9343 H   0  0  0  1  0  0  0  0  0  0  0  0
    4.6131   -2.2415   -0.5563 H   0  0  0  1  0  0  0  0  0  0  0  0
    6.4777   -1.0043   -3.4294 H   0  0  0  1  0  0  0  0  0  0  0  0
    6.1524   -2.2683   -4.3551 H   0  0  0  1  0  0  0  0  0  0  0  0
  1  2  4  0  0  0  0
  1  6  4  0  0  0  0
  1 18  1  0  0  0  0
  2  3  4  0  0  0  0
  3  4  4  0  0  0  0
  3 25  1  0  0  0  0
  4  5  4  0  0  0  0
  4  7  4  0  0  0  0
  5  6  4  0  0  0  0
  5  9  4  0  0  0  0
  7  8  4  0  0  0  0
  7 26  1  0  0  0  0
  8  9  4  0  0  0  0
  9 10  1  0  0  0  0
 10 11  4  0  0  0  0
 10 15  4  0  0  0  0
 11 12  4  0  0  0  0
 11 27  1  0  0  0  0
 12 13  4  0  0  0  0
 12 28  1  0  0  0  0
 13 14  4  0  0  0  0
 13 16  1  0  0  0  0
 14 15  4  0  0  0  0
 14 29  1  0  0  0  0
 15 30  1  0  0  0  0
 16 17  1  0  0  0  0
 17 31  1  0  0  0  0
 17 32  1  0  0  0  0
 17 33  1  0  0  0  0
 18 19  1  0  0  0  0
 18 34  1  0  0  0  0
 19 20  1  0  0  0  0
 19 23  1  0  0  0  0
 19 35  1  0  0  0  0
 20 21  1  0  0  0  0
 20 36  1  0  0  0  0
 20 37  1  0  0  0  0
 21 22  1  0  0  0  0
 21 38  1  0  0  0  0
 21 39  1  0  0  0  0
 22 23  1  0  0  0  0
 22 24  1  0  0  0  0
 22 40  1  0  0  0  0
 23 41  1  0  0  0  0
 23 42  1  0  0  0  0
 24 43  1  0  0  0  0
 24 44  1  0  0  0  0
M  END
> <ConfClashScore>
0 

> <ConfOneFourInteractionScore>
-0.984337 

> <ConfScore>
-0.0937748 

> <ConfScorePBest>
0.00476611 

> <ConfTolerance>
0.309655 

$$$$
c22.sdf
 OpenBabel04162418103D

 44 47  0  0  0  0  0  0  0  0999 V2000
    3.0497   -1.3254    1.0573 C   0  0  0  1  0  0  0  0  0  0  0  0
    3.8713   -0.5186    1.7363 N   0  0  0  1  0  0  0  0  0  0  0  0
    3.7515   -0.4761    3.0784 C   0  0  0  1  0  0  0  0  0  0  0  0
    2.7641   -1.2932    3.7024 C   0  0  0  1  0  0  0  0  0  0  0  0
    2.0011   -2.0740    2.8428 C   0  0  0  1  0  0  0  0  0  0  0  0
    2.0937   -2.1320    1.4930 N   0  0  0  1  0  0  0  0  0  0  0  0
    2.2728   -1.6113    4.9846 C   0  0  0  1  0  0  0  0  0  0  0  0
    1.3009   -2.4924    4.9302 N   0  0  0  1  0  0  0  0  0  0  0  0
    1.1333   -2.7786    3.6036 N   0  0  0  1  0  0  0  0  0  0  0  0
    0.1824   -3.6873    3.0966 C   0  0  0  1  0  0  0  0  0  0  0  0
   -0.4217   -3.3770    1.8930 C   0  0  0  1  0  0  0  0  0  0  0  0
   -1.3602   -4.2383    1.3463 C   0  0  0  1  0  0  0  0  0  0  0  0
   -1.6958   -5.4047    2.0074 C   0  0  0  1  0  0  0  0  0  0  0  0
   -1.0898   -5.7158    3.2147 C   0  0  0  1  0  0  0  0  0  0  0  0
   -0.1540   -4.8571    3.7599 C   0  0  0  1  0  0  0  0  0  0  0  0
   -2.5985   -6.3171    1.5755 O   0  0  0  1  0  0  0  0  0  0  0  0
   -3.3464   -5.9915    0.3935 C   0  0  0  1  0  0  0  0  0  0  0  0
    3.2221   -1.3167   -0.2894 N   0  0  0  1  0  0  0  0  0  0  0  0
    4.2416   -0.5184   -0.9778 C   0  0  0  1  0  0  0  0  0  0  0  0
    3.7440   -0.0307   -2.3447 C   0  0  0  1  0  0  0  0  0  0  0  0
    3.8599   -1.2471   -3.2547 C   0  0  0  1  0  0  0  0  0  0  0  0
    5.0231   -2.0695   -2.6880 C   0  0  0  1  0  0  0  0  0  0  0  0
    5.4441   -1.3750   -1.3832 C   0  0  0  1  0  0  0  0  0  0  0  0
    6.1459   -2.0892   -3.6408 N   0  0  0  1  0  0  0  0  0  0  0  0
    4.3668    0.1402    3.6468 H   0  0  0  1  0  0  0  0  0  0  0  0
    2.6362   -1.1980    5.8671 H   0  0  0  1  0  0  0  0  0  0  0  0
   -0.1722   -2.4973    1.3974 H   0  0  0  1  0  0  0  0  0  0  0  0
   -1.8119   -4.0068    0.4386 H   0  0  0  1  0  0  0  0  0  0  0  0
   -1.3392   -6.5955    3.7103 H   0  0  0  1  0  0  0  0  0  0  0  0
    0.2977   -5.0886    4.6677 H   0  0  0  1  0  0  0  0  0  0  0  0
   -3.9856   -6.8108    0.1383 H   0  0  0  1  0  0  0  0  0  0  0  0
   -2.6712   -5.8012   -0.4144 H   0  0  0  1  0  0  0  0  0  0  0  0
   -3.9397   -5.1200    0.5760 H   0  0  0  1  0  0  0  0  0  0  0  0
    2.6303   -1.8770   -0.8336 H   0  0  0  1  0  0  0  0  0  0  0  0
    4.5363    0.2995   -0.3540 H   0  0  0  1  0  0  0  0  0  0  0  0
    2.7275    0.2973   -2.2810 H   0  0  0  1  0  0  0  0  0  0  0  0
    4.3556    0.7698   -2.7052 H   0  0  0  1  0  0  0  0  0  0  0  0
    2.9544   -1.8168   -3.2353 H   0  0  0  1  0  0  0  0  0  0  0  0
    4.0700   -0.9444   -4.2593 H   0  0  0  1  0  0  0  0  0  0  0  0
    4.7061   -3.0718   -2.4888 H   0  0  0  1  0  0  0  0  0  0  0  0
    6.3046   -0.7602   -1.5464 H   0  0  0  1  0  0  0  0  0  0  0  0
    5.6610   -2.0992   -0.6260 H   0  0  0  1  0  0  0  0  0  0  0  0
    5.8277   -2.3972   -4.5151 H   0  0  0  1  0  0  0  0  0  0  0  0
    6.8411   -2.6976   -3.3136 H   0  0  0  1  0  0  0  0  0  0  0  0
  1  2  4  0  0  0  0
  1  6  4  0  0  0  0
  1 18  1  0  0  0  0
  2  3  4  0  0  0  0
  3  4  4  0  0  0  0
  3 25  1  0  0  0  0
  4  5  4  0  0  0  0
  4  7  4  0  0  0  0
  5  6  4  0  0  0  0
  5  9  4  0  0  0  0
  7  8  4  0  0  0  0
  7 26  1  0  0  0  0
  8  9  4  0  0  0  0
  9 10  1  0  0  0  0
 10 11  4  0  0  0  0
 10 15  4  0  0  0  0
 11 12  4  0  0  0  0
 11 27  1  0  0  0  0
 12 13  4  0  0  0  0
 12 28  1  0  0  0  0
 13 14  4  0  0  0  0
 13 16  1  0  0  0  0
 14 15  4  0  0  0  0
 14 29  1  0  0  0  0
 15 30  1  0  0  0  0
 16 17  1  0  0  0  0
 17 31  1  0  0  0  0
 17 32  1  0  0  0  0
 17 33  1  0  0  0  0
 18 19  1  0  0  0  0
 18 34  1  0  0  0  0
 19 20  1  0  0  0  0
 19 23  1  0  0  0  0
 19 35  1  0  0  0  0
 20 21  1  0  0  0  0
 20 36  1  0  0  0  0
 20 37  1  0  0  0  0
 21 22  1  0  0  0  0
 21 38  1  0  0  0  0
 21 39  1  0  0  0  0
 22 23  1  0  0  0  0
 22 24  1  0  0  0  0
 22 40  1  0  0  0  0
 23 41  1  0  0  0  0
 23 42  1  0  0  0  0
 24 43  1  0  0  0  0
 24 44  1  0  0  0  0
M  END
> <ConfClashScore>
0 

> <ConfOneFourInteractionScore>
-0.984337 

> <ConfScore>
-0.0930591 

> <ConfScorePBest>
0.00475278 

> <ConfTolerance>
0.211888 

$$$$
c22.sdf
 OpenBabel04162418103D

 44 47  0  0  0  0  0  0  0  0999 V2000
    4.3721   -0.1018    1.3646 C   0  0  0  1  0  0  0  0  0  0  0  0
    3.8395   -0.4923    2.5269 N   0  0  0  1  0  0  0  0  0  0  0  0
    4.3923   -0.0274    3.6652 C   0  0  0  1  0  0  0  0  0  0  0  0
    5.5068    0.8563    3.5722 C   0  0  0  1  0  0  0  0  0  0  0  0
    5.9257    1.1598    2.2826 C   0  0  0  1  0  0  0  0  0  0  0  0
    5.3957    0.7032    1.1230 N   0  0  0  1  0  0  0  0  0  0  0  0
    6.3812    1.5890    4.4000 C   0  0  0  1  0  0  0  0  0  0  0  0
    7.2578    2.2721    3.7006 N   0  0  0  1  0  0  0  0  0  0  0  0
    6.9751    2.0059    2.3895 N   0  0  0  1  0  0  0  0  0  0  0  0
    7.6832    2.5422    1.2951 C   0  0  0  1  0  0  0  0  0  0  0  0
    7.8610    1.7330    0.1888 C   0  0  0  1  0  0  0  0  0  0  0  0
    8.5453    2.2122   -0.9173 C   0  0  0  1  0  0  0  0  0  0  0  0
    9.0545    3.4971   -0.9120 C   0  0  0  1  0  0  0  0  0  0  0  0
    8.8761    4.3085    0.1977 C   0  0  0  1  0  0  0  0  0  0  0  0
    8.1937    3.8309    1.3007 C   0  0  0  1  0  0  0  0  0  0  0  0
    9.7420    4.0707   -1.9279 O   0  0  0  1  0  0  0  0  0  0  0  0
   10.0230    3.2525   -3.0743 C   0  0  0  1  0  0  0  0  0  0  0  0
    3.7582   -0.6192    0.2384 N   0  0  0  1  0  0  0  0  0  0  0  0
    4.3778   -0.3531   -1.0628 C   0  0  0  1  0  0  0  0  0  0  0  0
    3.3395   -0.4364   -2.1747 C   0  0  0  1  0  0  0  0  0  0  0  0
    4.1181   -0.9390   -3.3973 C   0  0  0  1  0  0  0  0  0  0  0  0
    5.0188   -2.0030   -2.7644 C   0  0  0  1  0  0  0  0  0  0  0  0
    5.4153   -1.4323   -1.3936 C   0  0  0  1  0  0  0  0  0  0  0  0
    6.2107   -2.2275   -3.5928 N   0  0  0  1  0  0  0  0  0  0  0  0
    4.0133   -0.3079    4.5922 H   0  0  0  1  0  0  0  0  0  0  0  0
    6.3374    1.5887    5.4391 H   0  0  0  1  0  0  0  0  0  0  0  0
    7.4814    0.7648    0.1863 H   0  0  0  1  0  0  0  0  0  0  0  0
    8.6757    1.6047   -1.7513 H   0  0  0  1  0  0  0  0  0  0  0  0
    9.2557    5.2768    0.2003 H   0  0  0  1  0  0  0  0  0  0  0  0
    8.0634    4.4383    2.1348 H   0  0  0  1  0  0  0  0  0  0  0  0
   10.6246    2.4184   -2.7790 H   0  0  0  1  0  0  0  0  0  0  0  0
   10.5493    3.8309   -3.8046 H   0  0  0  1  0  0  0  0  0  0  0  0
    9.1042    2.8987   -3.4934 H   0  0  0  1  0  0  0  0  0  0  0  0
    2.9353   -1.1469    0.3083 H   0  0  0  1  0  0  0  0  0  0  0  0
    4.8352    0.6142   -1.0494 H   0  0  0  1  0  0  0  0  0  0  0  0
    2.5619   -1.1237   -1.9140 H   0  0  0  1  0  0  0  0  0  0  0  0
    2.9150    0.5267   -2.3674 H   0  0  0  1  0  0  0  0  0  0  0  0
    4.6930   -0.1551   -3.8445 H   0  0  0  1  0  0  0  0  0  0  0  0
    3.4644   -1.3648   -4.1297 H   0  0  0  1  0  0  0  0  0  0  0  0
    4.4865   -2.9238   -2.6476 H   0  0  0  1  0  0  0  0  0  0  0  0
    5.3975   -2.2033   -0.6519 H   0  0  0  1  0  0  0  0  0  0  0  0
    6.3945   -1.0035   -1.4397 H   0  0  0  1  0  0  0  0  0  0  0  0
    5.9364   -2.4670   -4.5026 H   0  0  0  1  0  0  0  0  0  0  0  0
    6.7421   -2.9562   -3.2095 H   0  0  0  1  0  0  0  0  0  0  0  0
  1  2  4  0  0  0  0
  1  6  4  0  0  0  0
  1 18  1  0  0  0  0
  2  3  4  0  0  0  0
  3  4  4  0  0  0  0
  3 25  1  0  0  0  0
  4  5  4  0  0  0  0
  4  7  4  0  0  0  0
  5  6  4  0  0  0  0
  5  9  4  0  0  0  0
  7  8  4  0  0  0  0
  7 26  1  0  0  0  0
  8  9  4  0  0  0  0
  9 10  1  0  0  0  0
 10 11  4  0  0  0  0
 10 15  4  0  0  0  0
 11 12  4  0  0  0  0
 11 27  1  0  0  0  0
 12 13  4  0  0  0  0
 12 28  1  0  0  0  0
 13 14  4  0  0  0  0
 13 16  1  0  0  0  0
 14 15  4  0  0  0  0
 14 29  1  0  0  0  0
 15 30  1  0  0  0  0
 16 17  1  0  0  0  0
 17 31  1  0  0  0  0
 17 32  1  0  0  0  0
 17 33  1  0  0  0  0
 18 19  1  0  0  0  0
 18 34  1  0  0  0  0
 19 20  1  0  0  0  0
 19 23  1  0  0  0  0
 19 35  1  0  0  0  0
 20 21  1  0  0  0  0
 20 36  1  0  0  0  0
 20 37  1  0  0  0  0
 21 22  1  0  0  0  0
 21 38  1  0  0  0  0
 21 39  1  0  0  0  0
 22 23  1  0  0  0  0
 22 24  1  0  0  0  0
 22 40  1  0  0  0  0
 23 41  1  0  0  0  0
 23 42  1  0  0  0  0
 24 43  1  0  0  0  0
 24 44  1  0  0  0  0
M  END
> <ConfClashScore>
0 

> <ConfOneFourInteractionScore>
-0.984337 

> <ConfScore>
-0.0930591 

> <ConfScorePBest>
0.00473946 

> <ConfTolerance>
0.285548 

$$$$
c22.sdf
 OpenBabel04162418103D

 44 47  0  0  0  0  0  0  0  0999 V2000
    2.1261   -0.6433    0.2675 C   0  0  0  1  0  0  0  0  0  0  0  0
    1.2983   -1.5136    0.8544 N   0  0  0  1  0  0  0  0  0  0  0  0
    0.1773   -1.0334    1.4289 C   0  0  0  1  0  0  0  0  0  0  0  0
   -0.0700    0.3695    1.3769 C   0  0  0  1  0  0  0  0  0  0  0  0
    0.8950    1.1248    0.7219 C   0  0  0  1  0  0  0  0  0  0  0  0
    2.0323    0.6720    0.1427 N   0  0  0  1  0  0  0  0  0  0  0  0
   -1.0336    1.3159    1.7799 C   0  0  0  1  0  0  0  0  0  0  0  0
   -0.7013    2.5343    1.4202 N   0  0  0  1  0  0  0  0  0  0  0  0
    0.4930    2.4151    0.7650 N   0  0  0  1  0  0  0  0  0  0  0  0
    1.2096    3.4938    0.2085 C   0  0  0  1  0  0  0  0  0  0  0  0
    2.5646    3.4249   -0.0549 C   0  0  0  1  0  0  0  0  0  0  0  0
    3.2192    4.5144   -0.6080 C   0  0  0  1  0  0  0  0  0  0  0  0
    2.5181    5.6714   -0.8912 C   0  0  0  1  0  0  0  0  0  0  0  0
    1.1591    5.7403   -0.6269 C   0  0  0  1  0  0  0  0  0  0  0  0
    0.5063    4.6540   -0.0754 C   0  0  0  1  0  0  0  0  0  0  0  0
    3.2127    6.7452   -1.3264 O   0  0  0  1  0  0  0  0  0  0  0  0
    4.6568    6.6840   -1.3835 C   0  0  0  1  0  0  0  0  0  0  0  0
    3.2199   -1.1855   -0.2792 N   0  0  0  1  0  0  0  0  0  0  0  0
    4.2633   -0.4782   -1.0124 C   0  0  0  1  0  0  0  0  0  0  0  0
    3.7954   -0.0918   -2.4215 C   0  0  0  1  0  0  0  0  0  0  0  0
    3.8883   -1.3819   -3.2269 C   0  0  0  1  0  0  0  0  0  0  0  0
    5.0216   -2.1853   -2.5783 C   0  0  0  1  0  0  0  0  0  0  0  0
    5.4463   -1.3970   -1.3292 C   0  0  0  1  0  0  0  0  0  0  0  0
    6.1610   -2.3142   -3.5158 N   0  0  0  1  0  0  0  0  0  0  0  0
   -0.4933   -1.6733    1.9004 H   0  0  0  1  0  0  0  0  0  0  0  0
   -1.9027    1.0780    2.2992 H   0  0  0  1  0  0  0  0  0  0  0  0
    3.0931    2.5558    0.1619 H   0  0  0  1  0  0  0  0  0  0  0  0
    4.2381    4.4612   -0.8100 H   0  0  0  1  0  0  0  0  0  0  0  0
    0.6307    6.6094   -0.8437 H   0  0  0  1  0  0  0  0  0  0  0  0
   -0.5126    4.7072    0.1266 H   0  0  0  1  0  0  0  0  0  0  0  0
    5.0461    7.6513   -1.6238 H   0  0  0  1  0  0  0  0  0  0  0  0
    4.9544    5.9833   -2.1354 H   0  0  0  1  0  0  0  0  0  0  0  0
    5.0382    6.3721   -0.4337 H   0  0  0  1  0  0  0  0  0  0  0  0
    3.3311   -2.1538   -0.1768 H   0  0  0  1  0  0  0  0  0  0  0  0
    4.5731    0.3802   -0.4538 H   0  0  0  1  0  0  0  0  0  0  0  0
    2.7877    0.2672   -2.3992 H   0  0  0  1  0  0  0  0  0  0  0  0
    4.4332    0.6597   -2.8380 H   0  0  0  1  0  0  0  0  0  0  0  0
    2.9672   -1.9237   -3.1734 H   0  0  0  1  0  0  0  0  0  0  0  0
    4.1185   -1.1688   -4.2499 H   0  0  0  1  0  0  0  0  0  0  0  0
    4.6746   -3.1590   -2.3019 H   0  0  0  1  0  0  0  0  0  0  0  0
    6.3253   -0.8209   -1.5303 H   0  0  0  1  0  0  0  0  0  0  0  0
    5.6341   -2.0618   -0.5121 H   0  0  0  1  0  0  0  0  0  0  0  0
    6.4886   -1.4226   -3.7569 H   0  0  0  1  0  0  0  0  0  0  0  0
    5.8670   -2.7836   -4.3243 H   0  0  0  1  0  0  0  0  0  0  0  0
  1  2  4  0  0  0  0
  1  6  4  0  0  0  0
  1 18  1  0  0  0  0
  2  3  4  0  0  0  0
  3  4  4  0  0  0  0
  3 25  1  0  0  0  0
  4  5  4  0  0  0  0
  4  7  4  0  0  0  0
  5  6  4  0  0  0  0
  5  9  4  0  0  0  0
  7  8  4  0  0  0  0
  7 26  1  0  0  0  0
  8  9  4  0  0  0  0
  9 10  1  0  0  0  0
 10 11  4  0  0  0  0
 10 15  4  0  0  0  0
 11 12  4  0  0  0  0
 11 27  1  0  0  0  0
 12 13  4  0  0  0  0
 12 28  1  0  0  0  0
 13 14  4  0  0  0  0
 13 16  1  0  0  0  0
 14 15  4  0  0  0  0
 14 29  1  0  0  0  0
 15 30  1  0  0  0  0
 16 17  1  0  0  0  0
 17 31  1  0  0  0  0
 17 32  1  0  0  0  0
 17 33  1  0  0  0  0
 18 19  1  0  0  0  0
 18 34  1  0  0  0  0
 19 20  1  0  0  0  0
 19 23  1  0  0  0  0
 19 35  1  0  0  0  0
 20 21  1  0  0  0  0
 20 36  1  0  0  0  0
 20 37  1  0  0  0  0
 21 22  1  0  0  0  0
 21 38  1  0  0  0  0
 21 39  1  0  0  0  0
 22 23  1  0  0  0  0
 22 24  1  0  0  0  0
 22 40  1  0  0  0  0
 23 41  1  0  0  0  0
 23 42  1  0  0  0  0
 24 43  1  0  0  0  0
 24 44  1  0  0  0  0
M  END
> <ConfClashScore>
0 

> <ConfOneFourInteractionScore>
-0.984337 

> <ConfScore>
-0.089401 

> <ConfScorePBest>
0.00472613 

> <ConfTolerance>
0.294225 

$$$$
c22.sdf
 OpenBabel04162418103D

 44 47  0  0  0  0  0  0  0  0999 V2000
    4.2887    0.4370    1.2332 C   0  0  0  1  0  0  0  0  0  0  0  0
    3.4900    0.4875    2.3040 N   0  0  0  1  0  0  0  0  0  0  0  0
    3.9108    1.1883    3.3760 C   0  0  0  1  0  0  0  0  0  0  0  0
    5.1764    1.8409    3.3117 C   0  0  0  1  0  0  0  0  0  0  0  0
    5.8712    1.6861    2.1184 C   0  0  0  1  0  0  0  0  0  0  0  0
    5.4777    0.9836    1.0294 N   0  0  0  1  0  0  0  0  0  0  0  0
    6.0158    2.6578    4.0958 C   0  0  0  1  0  0  0  0  0  0  0  0
    7.1210    2.9735    3.4610 N   0  0  0  1  0  0  0  0  0  0  0  0
    7.0307    2.3716    2.2366 N   0  0  0  1  0  0  0  0  0  0  0  0
    8.0243    2.4555    1.2221 C   0  0  0  1  0  0  0  0  0  0  0  0
    9.3421    2.2746    1.5975 C   0  0  0  1  0  0  0  0  0  0  0  0
   10.3559    2.4315    0.6654 C   0  0  0  1  0  0  0  0  0  0  0  0
   10.0495    2.7740   -0.6381 C   0  0  0  1  0  0  0  0  0  0  0  0
    8.7278    2.9554   -1.0145 C   0  0  0  1  0  0  0  0  0  0  0  0
    7.7168    2.7990   -0.0852 C   0  0  0  1  0  0  0  0  0  0  0  0
   10.9467    2.9581   -1.6261 O   0  0  0  1  0  0  0  0  0  0  0  0
   12.3285    2.7715   -1.2408 C   0  0  0  1  0  0  0  0  0  0  0  0
    3.8099   -0.2812    0.2015 N   0  0  0  1  0  0  0  0  0  0  0  0
    4.4509   -0.3472   -1.1159 C   0  0  0  1  0  0  0  0  0  0  0  0
    3.4009   -0.3054   -2.2314 C   0  0  0  1  0  0  0  0  0  0  0  0
    4.1624   -0.9021   -3.4036 C   0  0  0  1  0  0  0  0  0  0  0  0
    4.9820   -2.0416   -2.7888 C   0  0  0  1  0  0  0  0  0  0  0  0
    5.1599   -1.6911   -1.3054 C   0  0  0  1  0  0  0  0  0  0  0  0
    6.3020   -2.1412   -3.4543 N   0  0  0  1  0  0  0  0  0  0  0  0
    3.3240    1.2515    4.2323 H   0  0  0  1  0  0  0  0  0  0  0  0
    5.7874    2.9724    5.0604 H   0  0  0  1  0  0  0  0  0  0  0  0
    9.5730    2.0208    2.5793 H   0  0  0  1  0  0  0  0  0  0  0  0
   11.3473    2.2915    0.9468 H   0  0  0  1  0  0  0  0  0  0  0  0
    8.4968    3.2092   -1.9963 H   0  0  0  1  0  0  0  0  0  0  0  0
    6.7254    2.9390   -0.3666 H   0  0  0  1  0  0  0  0  0  0  0  0
   12.4652    1.7765   -0.8718 H   0  0  0  1  0  0  0  0  0  0  0  0
   12.5828    3.4738   -0.4746 H   0  0  0  1  0  0  0  0  0  0  0  0
   12.9596    2.9263   -2.0909 H   0  0  0  1  0  0  0  0  0  0  0  0
    2.9838   -0.7904    0.3382 H   0  0  0  1  0  0  0  0  0  0  0  0
    5.1427    0.4627   -1.2175 H   0  0  0  1  0  0  0  0  0  0  0  0
    3.0931    0.6983   -2.4383 H   0  0  0  1  0  0  0  0  0  0  0  0
    2.5450   -0.8972   -1.9821 H   0  0  0  1  0  0  0  0  0  0  0  0
    3.4855   -1.2788   -4.1417 H   0  0  0  1  0  0  0  0  0  0  0  0
    4.8051   -0.1713   -3.8482 H   0  0  0  1  0  0  0  0  0  0  0  0
    4.4600   -2.9701   -2.8901 H   0  0  0  1  0  0  0  0  0  0  0  0
    4.7117   -2.4409   -0.6876 H   0  0  0  1  0  0  0  0  0  0  0  0
    6.1986   -1.6033   -1.0638 H   0  0  0  1  0  0  0  0  0  0  0  0
    6.1746   -2.2309   -4.4219 H   0  0  0  1  0  0  0  0  0  0  0  0
    6.7808   -2.9256   -3.1140 H   0  0  0  1  0  0  0  0  0  0  0  0
  1  2  4  0  0  0  0
  1  6  4  0  0  0  0
  1 18  1  0  0  0  0
  2  3  4  0  0  0  0
  3  4  4  0  0  0  0
  3 25  1  0  0  0  0
  4  5  4  0  0  0  0
  4  7  4  0  0  0  0
  5  6  4  0  0  0  0
  5  9  4  0  0  0  0
  7  8  4  0  0  0  0
  7 26  1  0  0  0  0
  8  9  4  0  0  0  0
  9 10  1  0  0  0  0
 10 11  4  0  0  0  0
 10 15  4  0  0  0  0
 11 12  4  0  0  0  0
 11 27  1  0  0  0  0
 12 13  4  0  0  0  0
 12 28  1  0  0  0  0
 13 14  4  0  0  0  0
 13 16  1  0  0  0  0
 14 15  4  0  0  0  0
 14 29  1  0  0  0  0
 15 30  1  0  0  0  0
 16 17  1  0  0  0  0
 17 31  1  0  0  0  0
 17 32  1  0  0  0  0
 17 33  1  0  0  0  0
 18 19  1  0  0  0  0
 18 34  1  0  0  0  0
 19 20  1  0  0  0  0
 19 23  1  0  0  0  0
 19 35  1  0  0  0  0
 20 21  1  0  0  0  0
 20 36  1  0  0  0  0
 20 37  1  0  0  0  0
 21 22  1  0  0  0  0
 21 38  1  0  0  0  0
 21 39  1  0  0  0  0
 22 23  1  0  0  0  0
 22 24  1  0  0  0  0
 22 40  1  0  0  0  0
 23 41  1  0  0  0  0
 23 42  1  0  0  0  0
 24 43  1  0  0  0  0
 24 44  1  0  0  0  0
M  END
> <ConfClashScore>
0 

> <ConfOneFourInteractionScore>
-0.984337 

> <ConfScore>
-0.0888154 

> <ConfScorePBest>
0.0047128 

> <ConfTolerance>
0.243643 

$$$$
c22.sdf
 OpenBabel04162418103D

 44 47  0  0  0  0  0  0  0  0999 V2000
    2.3132   -0.8458    0.5795 C   0  0  0  1  0  0  0  0  0  0  0  0
    2.3107    0.4809    0.7436 N   0  0  0  1  0  0  0  0  0  0  0  0
    1.4128    1.0122    1.5974 C   0  0  0  1  0  0  0  0  0  0  0  0
    0.5204    0.1368    2.2823 C   0  0  0  1  0  0  0  0  0  0  0  0
    0.6671   -1.2146    1.9946 C   0  0  0  1  0  0  0  0  0  0  0  0
    1.5532   -1.7758    1.1379 N   0  0  0  1  0  0  0  0  0  0  0  0
   -0.5240    0.1765    3.2281 C   0  0  0  1  0  0  0  0  0  0  0  0
   -0.9850   -1.0233    3.4967 N   0  0  0  1  0  0  0  0  0  0  0  0
   -0.2468   -1.8842    2.7327 N   0  0  0  1  0  0  0  0  0  0  0  0
   -0.4179   -3.2979    2.7164 C   0  0  0  1  0  0  0  0  0  0  0  0
   -0.2723   -4.0249    3.8828 C   0  0  0  1  0  0  0  0  0  0  0  0
   -0.4441   -5.4003    3.8680 C   0  0  0  1  0  0  0  0  0  0  0  0
   -0.7556   -6.0453    2.6859 C   0  0  0  1  0  0  0  0  0  0  0  0
   -0.9015   -5.3160    1.5162 C   0  0  0  1  0  0  0  0  0  0  0  0
   -0.7303   -3.9446    1.5308 C   0  0  0  1  0  0  0  0  0  0  0  0
   -0.8930   -7.3813    2.7927 O   0  0  0  1  0  0  0  0  0  0  0  0
   -1.4367   -8.0361    1.6230 C   0  0  0  1  0  0  0  0  0  0  0  0
    3.2310   -1.3085   -0.2883 N   0  0  0  1  0  0  0  0  0  0  0  0
    4.2470   -0.5153   -0.9863 C   0  0  0  1  0  0  0  0  0  0  0  0
    3.7387   -0.0259   -2.3486 C   0  0  0  1  0  0  0  0  0  0  0  0
    3.8408   -1.2432   -3.2592 C   0  0  0  1  0  0  0  0  0  0  0  0
    5.0057   -2.0704   -2.7030 C   0  0  0  1  0  0  0  0  0  0  0  0
    5.4419   -1.3773   -1.4026 C   0  0  0  1  0  0  0  0  0  0  0  0
    6.1194   -2.0954   -3.6663 N   0  0  0  1  0  0  0  0  0  0  0  0
    1.3721    2.0396    1.7532 H   0  0  0  1  0  0  0  0  0  0  0  0
   -0.8856    1.0503    3.6608 H   0  0  0  1  0  0  0  0  0  0  0  0
   -0.0340   -3.5401    4.7715 H   0  0  0  1  0  0  0  0  0  0  0  0
   -0.3385   -5.9470    4.7464 H   0  0  0  1  0  0  0  0  0  0  0  0
   -1.1399   -5.8008    0.6275 H   0  0  0  1  0  0  0  0  0  0  0  0
   -0.8358   -3.3979    0.6524 H   0  0  0  1  0  0  0  0  0  0  0  0
   -1.5667   -9.0787    1.8255 H   0  0  0  1  0  0  0  0  0  0  0  0
   -0.7630   -7.9140    0.8007 H   0  0  0  1  0  0  0  0  0  0  0  0
   -2.3825   -7.6000    1.3777 H   0  0  0  1  0  0  0  0  0  0  0  0
    3.2191   -2.2711   -0.4720 H   0  0  0  1  0  0  0  0  0  0  0  0
    4.5510    0.3015   -0.3656 H   0  0  0  1  0  0  0  0  0  0  0  0
    4.3504    0.7718   -2.7152 H   0  0  0  1  0  0  0  0  0  0  0  0
    2.7242    0.3065   -2.2755 H   0  0  0  1  0  0  0  0  0  0  0  0
    2.9330   -1.8089   -3.2311 H   0  0  0  1  0  0  0  0  0  0  0  0
    4.0428   -0.9418   -4.2658 H   0  0  0  1  0  0  0  0  0  0  0  0
    4.6861   -3.0713   -2.5005 H   0  0  0  1  0  0  0  0  0  0  0  0
    6.3034   -0.7663   -1.5740 H   0  0  0  1  0  0  0  0  0  0  0  0
    5.6627   -2.1021   -0.6471 H   0  0  0  1  0  0  0  0  0  0  0  0
    5.8723   -2.6467   -4.4380 H   0  0  0  1  0  0  0  0  0  0  0  0
    6.9146   -2.4737   -3.2362 H   0  0  0  1  0  0  0  0  0  0  0  0
  1  2  4  0  0  0  0
  1  6  4  0  0  0  0
  1 18  1  0  0  0  0
  2  3  4  0  0  0  0
  3  4  4  0  0  0  0
  3 25  1  0  0  0  0
  4  5  4  0  0  0  0
  4  7  4  0  0  0  0
  5  6  4  0  0  0  0
  5  9  4  0  0  0  0
  7  8  4  0  0  0  0
  7 26  1  0  0  0  0
  8  9  4  0  0  0  0
  9 10  1  0  0  0  0
 10 11  4  0  0  0  0
 10 15  4  0  0  0  0
 11 12  4  0  0  0  0
 11 27  1  0  0  0  0
 12 13  4  0  0  0  0
 12 28  1  0  0  0  0
 13 14  4  0  0  0  0
 13 16  1  0  0  0  0
 14 15  4  0  0  0  0
 14 29  1  0  0  0  0
 15 30  1  0  0  0  0
 16 17  1  0  0  0  0
 17 31  1  0  0  0  0
 17 32  1  0  0  0  0
 17 33  1  0  0  0  0
 18 19  1  0  0  0  0
 18 34  1  0  0  0  0
 19 20  1  0  0  0  0
 19 23  1  0  0  0  0
 19 35  1  0  0  0  0
 20 21  1  0  0  0  0
 20 36  1  0  0  0  0
 20 37  1  0  0  0  0
 21 22  1  0  0  0  0
 21 38  1  0  0  0  0
 21 39  1  0  0  0  0
 22 23  1  0  0  0  0
 22 24  1  0  0  0  0
 22 40  1  0  0  0  0
 23 41  1  0  0  0  0
 23 42  1  0  0  0  0
 24 43  1  0  0  0  0
 24 44  1  0  0  0  0
M  END
> <ConfClashScore>
0 

> <ConfOneFourInteractionScore>
-0.984337 

> <ConfScore>
-0.0875106 

> <ConfScorePBest>
0.00469947 

> <ConfTolerance>
0.222947 

$$$$
c22.sdf
 OpenBabel04162418103D

 44 47  0  0  0  0  0  0  0  0999 V2000
    2.4039   -0.1738    0.4589 C   0  0  0  1  0  0  0  0  0  0  0  0
    2.6062    1.1331    0.2635 N   0  0  0  1  0  0  0  0  0  0  0  0
    1.7786    2.0014    0.8786 C   0  0  0  1  0  0  0  0  0  0  0  0
    0.7391    1.4851    1.7061 C   0  0  0  1  0  0  0  0  0  0  0  0
    0.6789    0.1001    1.7996 C   0  0  0  1  0  0  0  0  0  0  0  0
    1.4903   -0.7958    1.1888 N   0  0  0  1  0  0  0  0  0  0  0  0
   -0.3135    1.9323    2.5300 C   0  0  0  1  0  0  0  0  0  0  0  0
   -0.9661    0.9314    3.0745 N   0  0  0  1  0  0  0  0  0  0  0  0
   -0.3509   -0.2028    2.6219 N   0  0  0  1  0  0  0  0  0  0  0  0
   -0.7423   -1.5262    2.9700 C   0  0  0  1  0  0  0  0  0  0  0  0
    0.1783   -2.3962    3.5229 C   0  0  0  1  0  0  0  0  0  0  0  0
   -0.2044   -3.6833    3.8669 C   0  0  0  1  0  0  0  0  0  0  0  0
   -1.5051   -4.0984    3.6520 C   0  0  0  1  0  0  0  0  0  0  0  0
   -2.4283   -3.2257    3.0974 C   0  0  0  1  0  0  0  0  0  0  0  0
   -2.0469   -1.9423    2.7544 C   0  0  0  1  0  0  0  0  0  0  0  0
   -1.7600   -5.3759    4.0219 O   0  0  0  1  0  0  0  0  0  0  0  0
   -3.1129   -5.8396    3.8906 C   0  0  0  1  0  0  0  0  0  0  0  0
    3.2865   -1.0064   -0.2046 N   0  0  0  1  0  0  0  0  0  0  0  0
    4.3165   -0.4334   -1.0761 C   0  0  0  1  0  0  0  0  0  0  0  0
    3.7355   -0.0980   -2.4907 C   0  0  0  1  0  0  0  0  0  0  0  0
    3.7320   -1.4718   -3.1723 C   0  0  0  1  0  0  0  0  0  0  0  0
    4.9750   -2.2193   -2.7001 C   0  0  0  1  0  0  0  0  0  0  0  0
    5.4118   -1.4679   -1.3945 C   0  0  0  1  0  0  0  0  0  0  0  0
    6.0524   -2.1557   -3.7311 N   0  0  0  1  0  0  0  0  0  0  0  0
    1.8962    3.0269    0.7521 H   0  0  0  1  0  0  0  0  0  0  0  0
   -0.5453    2.9338    2.6875 H   0  0  0  1  0  0  0  0  0  0  0  0
    1.1580   -2.0851    3.6810 H   0  0  0  1  0  0  0  0  0  0  0  0
    0.4872   -4.3367    4.2867 H   0  0  0  1  0  0  0  0  0  0  0  0
   -3.4081   -3.5367    2.9393 H   0  0  0  1  0  0  0  0  0  0  0  0
   -2.7385   -1.2889    2.3345 H   0  0  0  1  0  0  0  0  0  0  0  0
   -3.6690   -5.5708    4.7643 H   0  0  0  1  0  0  0  0  0  0  0  0
   -3.1157   -6.9039    3.7797 H   0  0  0  1  0  0  0  0  0  0  0  0
   -3.5619   -5.3897    3.0299 H   0  0  0  1  0  0  0  0  0  0  0  0
    3.2234   -1.9779   -0.0923 H   0  0  0  1  0  0  0  0  0  0  0  0
    4.7317    0.4375   -0.6136 H   0  0  0  1  0  0  0  0  0  0  0  0
    4.3627    0.5931   -3.0139 H   0  0  0  1  0  0  0  0  0  0  0  0
    2.7456    0.3019   -2.4187 H   0  0  0  1  0  0  0  0  0  0  0  0
    3.7592   -1.3524   -4.2353 H   0  0  0  1  0  0  0  0  0  0  0  0
    2.8522   -2.0146   -2.8962 H   0  0  0  1  0  0  0  0  0  0  0  0
    4.7434   -3.2423   -2.4882 H   0  0  0  1  0  0  0  0  0  0  0  0
    6.3478   -0.9738   -1.5519 H   0  0  0  1  0  0  0  0  0  0  0  0
    5.5060   -2.1625   -0.5861 H   0  0  0  1  0  0  0  0  0  0  0  0
    6.8632   -2.5828   -3.3838 H   0  0  0  1  0  0  0  0  0  0  0  0
    6.2435   -1.2188   -3.9462 H   0  0  0  1  0  0  0  0  0  0  0  0
  1  2  4  0  0  0  0
  1  6  4  0  0  0  0
  1 18  1  0  0  0  0
  2  3  4  0  0  0  0
  3  4  4  0  0  0  0
  3 25  1  0  0  0  0
  4  5  4  0  0  0  0
  4  7  4  0  0  0  0
  5  6  4  0  0  0  0
  5  9  4  0  0  0  0
  7  8  4  0  0  0  0
  7 26  1  0  0  0  0
  8  9  4  0  0  0  0
  9 10  1  0  0  0  0
 10 11  4  0  0  0  0
 10 15  4  0  0  0  0
 11 12  4  0  0  0  0
 11 27  1  0  0  0  0
 12 13  4  0  0  0  0
 12 28  1  0  0  0  0
 13 14  4  0  0  0  0
 13 16  1  0  0  0  0
 14 15  4  0  0  0  0
 14 29  1  0  0  0  0
 15 30  1  0  0  0  0
 16 17  1  0  0  0  0
 17 31  1  0  0  0  0
 17 32  1  0  0  0  0
 17 33  1  0  0  0  0
 18 19  1  0  0  0  0
 18 34  1  0  0  0  0
 19 20  1  0  0  0  0
 19 23  1  0  0  0  0
 19 35  1  0  0  0  0
 20 21  1  0  0  0  0
 20 36  1  0  0  0  0
 20 37  1  0  0  0  0
 21 22  1  0  0  0  0
 21 38  1  0  0  0  0
 21 39  1  0  0  0  0
 22 23  1  0  0  0  0
 22 24  1  0  0  0  0
 22 40  1  0  0  0  0
 23 41  1  0  0  0  0
 23 42  1  0  0  0  0
 24 43  1  0  0  0  0
 24 44  1  0  0  0  0
M  END
> <ConfClashScore>
0 

> <ConfOneFourInteractionScore>
-0.984337 

> <ConfScore>
-0.0867295 

> <ConfScorePBest>
0.00468614 

> <ConfTolerance>
0.277788 

$$$$
c22.sdf
 OpenBabel04162418103D

 44 47  0  0  0  0  0  0  0  0999 V2000
    4.3459    0.3581    1.0618 C   0  0  0  1  0  0  0  0  0  0  0  0
    3.4792    0.4758    2.0727 N   0  0  0  1  0  0  0  0  0  0  0  0
    3.9335    0.9670    3.2430 C   0  0  0  1  0  0  0  0  0  0  0  0
    5.3060    1.3392    3.3410 C   0  0  0  1  0  0  0  0  0  0  0  0
    6.0615    1.1536    2.1897 C   0  0  0  1  0  0  0  0  0  0  0  0
    5.6351    0.6566    1.0043 N   0  0  0  1  0  0  0  0  0  0  0  0
    6.2185    1.8816    4.2683 C   0  0  0  1  0  0  0  0  0  0  0  0
    7.4185    2.0139    3.7520 N   0  0  0  1  0  0  0  0  0  0  0  0
    7.3205    1.5631    2.4648 N   0  0  0  1  0  0  0  0  0  0  0  0
    8.3994    1.5293    1.5384 C   0  0  0  1  0  0  0  0  0  0  0  0
    9.2391    2.6104    1.3476 C   0  0  0  1  0  0  0  0  0  0  0  0
   10.3369    2.4955    0.5090 C   0  0  0  1  0  0  0  0  0  0  0  0
   10.5887    1.3018   -0.1405 C   0  0  0  1  0  0  0  0  0  0  0  0
    9.7463    0.2176    0.0510 C   0  0  0  1  0  0  0  0  0  0  0  0
    8.6517    0.3320    0.8871 C   0  0  0  1  0  0  0  0  0  0  0  0
   11.7031    1.1188   -0.8878 O   0  0  0  1  0  0  0  0  0  0  0  0
   11.7777   -0.0823   -1.6715 C   0  0  0  1  0  0  0  0  0  0  0  0
    3.8279   -0.1415   -0.0747 N   0  0  0  1  0  0  0  0  0  0  0  0
    4.5900   -0.3333   -1.2962 C   0  0  0  1  0  0  0  0  0  0  0  0
    3.6671   -0.2464   -2.5173 C   0  0  0  1  0  0  0  0  0  0  0  0
    3.6659   -1.6444   -3.1232 C   0  0  0  1  0  0  0  0  0  0  0  0
    5.0409   -2.2241   -2.7668 C   0  0  0  1  0  0  0  0  0  0  0  0
    5.2068   -1.7407   -1.3236 C   0  0  0  1  0  0  0  0  0  0  0  0
    6.1014   -1.6811   -3.6449 N   0  0  0  1  0  0  0  0  0  0  0  0
    3.2957    1.0723    4.0577 H   0  0  0  1  0  0  0  0  0  0  0  0
    5.9712    2.1451    5.2435 H   0  0  0  1  0  0  0  0  0  0  0  0
    9.0474    3.5099    1.8331 H   0  0  0  1  0  0  0  0  0  0  0  0
   10.9711    3.3077    0.3685 H   0  0  0  1  0  0  0  0  0  0  0  0
    9.9380   -0.6819   -0.4345 H   0  0  0  1  0  0  0  0  0  0  0  0
    8.0175   -0.4802    1.0276 H   0  0  0  1  0  0  0  0  0  0  0  0
   12.7297   -0.1333   -2.1573 H   0  0  0  1  0  0  0  0  0  0  0  0
   11.0016   -0.0761   -2.4081 H   0  0  0  1  0  0  0  0  0  0  0  0
   11.6574   -0.9325   -1.0331 H   0  0  0  1  0  0  0  0  0  0  0  0
    2.8801   -0.3908   -0.0787 H   0  0  0  1  0  0  0  0  0  0  0  0
    5.3579    0.4093   -1.3584 H   0  0  0  1  0  0  0  0  0  0  0  0
    4.0435    0.4662   -3.2212 H   0  0  0  1  0  0  0  0  0  0  0  0
    2.6781    0.0334   -2.2199 H   0  0  0  1  0  0  0  0  0  0  0  0
    2.8843   -2.2390   -2.6984 H   0  0  0  1  0  0  0  0  0  0  0  0
    3.5407   -1.5955   -4.1847 H   0  0  0  1  0  0  0  0  0  0  0  0
    5.0421   -3.2926   -2.8242 H   0  0  0  1  0  0  0  0  0  0  0  0
    6.2426   -1.7014   -1.0580 H   0  0  0  1  0  0  0  0  0  0  0  0
    4.6894   -2.3901   -0.6488 H   0  0  0  1  0  0  0  0  0  0  0  0
    6.9701   -2.0422   -3.3704 H   0  0  0  1  0  0  0  0  0  0  0  0
    6.1164   -0.7039   -3.5726 H   0  0  0  1  0  0  0  0  0  0  0  0
  1  2  4  0  0  0  0
  1  6  4  0  0  0  0
  1 18  1  0  0  0  0
  2  3  4  0  0  0  0
  3  4  4  0  0  0  0
  3 25  1  0  0  0  0
  4  5  4  0  0  0  0
  4  7  4  0  0  0  0
  5  6  4  0  0  0  0
  5  9  4  0  0  0  0
  7  8  4  0  0  0  0
  7 26  1  0  0  0  0
  8  9  4  0  0  0  0
  9 10  1  0  0  0  0
 10 11  4  0  0  0  0
 10 15  4  0  0  0  0
 11 12  4  0  0  0  0
 11 27  1  0  0  0  0
 12 13  4  0  0  0  0
 12 28  1  0  0  0  0
 13 14  4  0  0  0  0
 13 16  1  0  0  0  0
 14 15  4  0  0  0  0
 14 29  1  0  0  0  0
 15 30  1  0  0  0  0
 16 17  1  0  0  0  0
 17 31  1  0  0  0  0
 17 32  1  0  0  0  0
 17 33  1  0  0  0  0
 18 19  1  0  0  0  0
 18 34  1  0  0  0  0
 19 20  1  0  0  0  0
 19 23  1  0  0  0  0
 19 35  1  0  0  0  0
 20 21  1  0  0  0  0
 20 36  1  0  0  0  0
 20 37  1  0  0  0  0
 21 22  1  0  0  0  0
 21 38  1  0  0  0  0
 21 39  1  0  0  0  0
 22 23  1  0  0  0  0
 22 24  1  0  0  0  0
 22 40  1  0  0  0  0
 23 41  1  0  0  0  0
 23 42  1  0  0  0  0
 24 43  1  0  0  0  0
 24 44  1  0  0  0  0
M  END
> <ConfClashScore>
0 

> <ConfOneFourInteractionScore>
-0.984337 

> <ConfScore>
-0.0850278 

> <ConfScorePBest>
0.00467282 

> <ConfTolerance>
0.24694 

$$$$
c22.sdf
 OpenBabel04162418103D

 44 47  0  0  0  0  0  0  0  0999 V2000
    5.0103    1.0442    0.7901 C   0  0  0  1  0  0  0  0  0  0  0  0
    6.1973    1.2885    0.2258 N   0  0  0  1  0  0  0  0  0  0  0  0
    7.0374    2.1327    0.8573 C   0  0  0  1  0  0  0  0  0  0  0  0
    6.6221    2.7144    2.0906 C   0  0  0  1  0  0  0  0  0  0  0  0
    5.3578    2.3446    2.5325 C   0  0  0  1  0  0  0  0  0  0  0  0
    4.4903    1.5062    1.9172 N   0  0  0  1  0  0  0  0  0  0  0  0
    7.0954    3.5872    3.0911 C   0  0  0  1  0  0  0  0  0  0  0  0
    6.2160    3.7503    4.0524 N   0  0  0  1  0  0  0  0  0  0  0  0
    5.1403    2.9804    3.7059 N   0  0  0  1  0  0  0  0  0  0  0  0
    3.9616    2.8649    4.4703 C   0  0  0  1  0  0  0  0  0  0  0  0
    2.7492    2.5070    3.9116 C   0  0  0  1  0  0  0  0  0  0  0  0
    1.6216    2.4030    4.7111 C   0  0  0  1  0  0  0  0  0  0  0  0
    1.7085    2.6624    6.0659 C   0  0  0  1  0  0  0  0  0  0  0  0
    2.9246    3.0214    6.6261 C   0  0  0  1  0  0  0  0  0  0  0  0
    4.0490    3.1251    5.8290 C   0  0  0  1  0  0  0  0  0  0  0  0
    0.6448    2.5839    6.9003 O   0  0  0  1  0  0  0  0  0  0  0  0
   -0.6046    2.1607    6.3327 C   0  0  0  1  0  0  0  0  0  0  0  0
    4.1983    0.1728    0.0870 N   0  0  0  1  0  0  0  0  0  0  0  0
    4.6376   -0.2483   -1.2442 C   0  0  0  1  0  0  0  0  0  0  0  0
    3.4716   -0.2913   -2.2224 C   0  0  0  1  0  0  0  0  0  0  0  0
    3.8699   -1.2604   -3.3271 C   0  0  0  1  0  0  0  0  0  0  0  0
    5.0059   -2.1100   -2.7536 C   0  0  0  1  0  0  0  0  0  0  0  0
    5.1213   -1.7466   -1.2383 C   0  0  0  1  0  0  0  0  0  0  0  0
    6.2924   -1.7961   -3.4593 N   0  0  0  1  0  0  0  0  0  0  0  0
    7.9695    2.3550    0.4530 H   0  0  0  1  0  0  0  0  0  0  0  0
    8.0282    4.0465    3.0704 H   0  0  0  1  0  0  0  0  0  0  0  0
    2.6829    2.3157    2.8915 H   0  0  0  1  0  0  0  0  0  0  0  0
    0.7101    2.1298    4.2915 H   0  0  0  1  0  0  0  0  0  0  0  0
    2.9910    3.2127    7.6462 H   0  0  0  1  0  0  0  0  0  0  0  0
    4.9605    3.3984    6.2486 H   0  0  0  1  0  0  0  0  0  0  0  0
   -0.8478    2.7853    5.4987 H   0  0  0  1  0  0  0  0  0  0  0  0
   -1.3753    2.2361    7.0712 H   0  0  0  1  0  0  0  0  0  0  0  0
   -0.5217    1.1454    6.0055 H   0  0  0  1  0  0  0  0  0  0  0  0
    3.3559   -0.1523    0.4679 H   0  0  0  1  0  0  0  0  0  0  0  0
    5.4096    0.4072   -1.5895 H   0  0  0  1  0  0  0  0  0  0  0  0
    3.2954    0.6821   -2.6304 H   0  0  0  1  0  0  0  0  0  0  0  0
    2.5875   -0.6369   -1.7286 H   0  0  0  1  0  0  0  0  0  0  0  0
    4.2063   -0.7233   -4.1892 H   0  0  0  1  0  0  0  0  0  0  0  0
    3.0401   -1.8809   -3.5942 H   0  0  0  1  0  0  0  0  0  0  0  0
    4.7810   -3.1500   -2.8667 H   0  0  0  1  0  0  0  0  0  0  0  0
    6.1297   -1.8314   -0.8908 H   0  0  0  1  0  0  0  0  0  0  0  0
    4.4838   -2.3617   -0.6382 H   0  0  0  1  0  0  0  0  0  0  0  0
    6.1559   -1.8511   -4.4282 H   0  0  0  1  0  0  0  0  0  0  0  0
    6.9787   -2.4414   -3.1892 H   0  0  0  1  0  0  0  0  0  0  0  0
  1  2  4  0  0  0  0
  1  6  4  0  0  0  0
  1 18  1  0  0  0  0
  2  3  4  0  0  0  0
  3  4  4  0  0  0  0
  3 25  1  0  0  0  0
  4  5  4  0  0  0  0
  4  7  4  0  0  0  0
  5  6  4  0  0  0  0
  5  9  4  0  0  0  0
  7  8  4  0  0  0  0
  7 26  1  0  0  0  0
  8  9  4  0  0  0  0
  9 10  1  0  0  0  0
 10 11  4  0  0  0  0
 10 15  4  0  0  0  0
 11 12  4  0  0  0  0
 11 27  1  0  0  0  0
 12 13  4  0  0  0  0
 12 28  1  0  0  0  0
 13 14  4  0  0  0  0
 13 16  1  0  0  0  0
 14 15  4  0  0  0  0
 14 29  1  0  0  0  0
 15 30  1  0  0  0  0
 16 17  1  0  0  0  0
 17 31  1  0  0  0  0
 17 32  1  0  0  0  0
 17 33  1  0  0  0  0
 18 19  1  0  0  0  0
 18 34  1  0  0  0  0
 19 20  1  0  0  0  0
 19 23  1  0  0  0  0
 19 35  1  0  0  0  0
 20 21  1  0  0  0  0
 20 36  1  0  0  0  0
 20 37  1  0  0  0  0
 21 22  1  0  0  0  0
 21 38  1  0  0  0  0
 21 39  1  0  0  0  0
 22 23  1  0  0  0  0
 22 24  1  0  0  0  0
 22 40  1  0  0  0  0
 23 41  1  0  0  0  0
 23 42  1  0  0  0  0
 24 43  1  0  0  0  0
 24 44  1  0  0  0  0
M  END
> <ConfClashScore>
0 

> <ConfOneFourInteractionScore>
-0.984337 

> <ConfScore>
-0.0841583 

> <ConfScorePBest>
0.00465949 

> <ConfTolerance>
0.310925 

$$$$
c22.sdf
 OpenBabel04162418103D

 44 47  0  0  0  0  0  0  0  0999 V2000
    3.0204   -1.1967    1.0787 C   0  0  0  1  0  0  0  0  0  0  0  0
    2.0785   -2.0194    1.5510 N   0  0  0  1  0  0  0  0  0  0  0  0
    1.8244   -1.9984    2.8747 C   0  0  0  1  0  0  0  0  0  0  0  0
    2.5649   -1.1010    3.6983 C   0  0  0  1  0  0  0  0  0  0  0  0
    3.5015   -0.3151    3.0382 C   0  0  0  1  0  0  0  0  0  0  0  0
    3.7832   -0.3195    1.7135 N   0  0  0  1  0  0  0  0  0  0  0  0
    2.6685   -0.7017    5.0461 C   0  0  0  1  0  0  0  0  0  0  0  0
    3.5788    0.2301    5.2105 N   0  0  0  1  0  0  0  0  0  0  0  0
    4.0941    0.4691    3.9667 N   0  0  0  1  0  0  0  0  0  0  0  0
    5.1186    1.4178    3.6864 C   0  0  0  1  0  0  0  0  0  0  0  0
    6.0769    1.0709    2.7529 C   0  0  0  1  0  0  0  0  0  0  0  0
    7.1438    1.9209    2.5064 C   0  0  0  1  0  0  0  0  0  0  0  0
    7.2521    3.1127    3.1979 C   0  0  0  1  0  0  0  0  0  0  0  0
    6.2908    3.4605    4.1341 C   0  0  0  1  0  0  0  0  0  0  0  0
    5.2270    2.6130    4.3800 C   0  0  0  1  0  0  0  0  0  0  0  0
    8.2259    4.0414    3.0787 O   0  0  0  1  0  0  0  0  0  0  0  0
    9.1262    3.9825    1.9613 C   0  0  0  1  0  0  0  0  0  0  0  0
    3.2274   -1.2720   -0.2610 N   0  0  0  1  0  0  0  0  0  0  0  0
    4.2519   -0.5024   -0.9745 C   0  0  0  1  0  0  0  0  0  0  0  0
    3.7189    0.0091   -2.3549 C   0  0  0  1  0  0  0  0  0  0  0  0
    3.8450   -1.2367   -3.2512 C   0  0  0  1  0  0  0  0  0  0  0  0
    5.0302   -2.0957   -2.6879 C   0  0  0  1  0  0  0  0  0  0  0  0
    5.4270   -1.3946   -1.3927 C   0  0  0  1  0  0  0  0  0  0  0  0
    6.1740   -2.1139   -3.6508 N   0  0  0  1  0  0  0  0  0  0  0  0
    1.1030   -2.6240    3.2866 H   0  0  0  1  0  0  0  0  0  0  0  0
    2.0934   -1.0973    5.8171 H   0  0  0  1  0  0  0  0  0  0  0  0
    5.9976    0.1722    2.2355 H   0  0  0  1  0  0  0  0  0  0  0  0
    7.8628    1.6618    1.8011 H   0  0  0  1  0  0  0  0  0  0  0  0
    6.3701    4.3591    4.6516 H   0  0  0  1  0  0  0  0  0  0  0  0
    4.5080    2.8721    5.0854 H   0  0  0  1  0  0  0  0  0  0  0  0
    9.6998    3.0807    2.0119 H   0  0  0  1  0  0  0  0  0  0  0  0
    9.7845    4.8256    1.9892 H   0  0  0  1  0  0  0  0  0  0  0  0
    8.5651    3.9975    1.0503 H   0  0  0  1  0  0  0  0  0  0  0  0
    2.6586   -1.8764   -0.7821 H   0  0  0  1  0  0  0  0  0  0  0  0
    4.5807    0.3098   -0.3605 H   0  0  0  1  0  0  0  0  0  0  0  0
    4.3195    0.8132   -2.7260 H   0  0  0  1  0  0  0  0  0  0  0  0
    2.7006    0.3288   -2.2804 H   0  0  0  1  0  0  0  0  0  0  0  0
    4.0517   -0.9435   -4.2593 H   0  0  0  1  0  0  0  0  0  0  0  0
    2.9369   -1.8020   -3.2228 H   0  0  0  1  0  0  0  0  0  0  0  0
    4.7114   -3.0983   -2.4930 H   0  0  0  1  0  0  0  0  0  0  0  0
    6.3003   -0.7974   -1.5530 H   0  0  0  1  0  0  0  0  0  0  0  0
    5.6249   -2.1193   -0.6307 H   0  0  0  1  0  0  0  0  0  0  0  0
    5.8723   -2.4751   -4.5104 H   0  0  0  1  0  0  0  0  0  0  0  0
    6.8922   -2.6772   -3.2940 H   0  0  0  1  0  0  0  0  0  0  0  0
  1  2  4  0  0  0  0
  1  6  4  0  0  0  0
  1 18  1  0  0  0  0
  2  3  4  0  0  0  0
  3  4  4  0  0  0  0
  3 25  1  0  0  0  0
  4  5  4  0  0  0  0
  4  7  4  0  0  0  0
  5  6  4  0  0  0  0
  5  9  4  0  0  0  0
  7  8  4  0  0  0  0
  7 26  1  0  0  0  0
  8  9  4  0  0  0  0
  9 10  1  0  0  0  0
 10 11  4  0  0  0  0
 10 15  4  0  0  0  0
 11 12  4  0  0  0  0
 11 27  1  0  0  0  0
 12 13  4  0  0  0  0
 12 28  1  0  0  0  0
 13 14  4  0  0  0  0
 13 16  1  0  0  0  0
 14 15  4  0  0  0  0
 14 29  1  0  0  0  0
 15 30  1  0  0  0  0
 16 17  1  0  0  0  0
 17 31  1  0  0  0  0
 17 32  1  0  0  0  0
 17 33  1  0  0  0  0
 18 19  1  0  0  0  0
 18 34  1  0  0  0  0
 19 20  1  0  0  0  0
 19 23  1  0  0  0  0
 19 35  1  0  0  0  0
 20 21  1  0  0  0  0
 20 36  1  0  0  0  0
 20 37  1  0  0  0  0
 21 22  1  0  0  0  0
 21 38  1  0  0  0  0
 21 39  1  0  0  0  0
 22 23  1  0  0  0  0
 22 24  1  0  0  0  0
 22 40  1  0  0  0  0
 23 41  1  0  0  0  0
 23 42  1  0  0  0  0
 24 43  1  0  0  0  0
 24 44  1  0  0  0  0
M  END
> <ConfClashScore>
0 

> <ConfOneFourInteractionScore>
-0.984337 

> <ConfScore>
-0.0841583 

> <ConfScorePBest>
0.00464616 

> <ConfTolerance>
0.224091 

$$$$
c22.sdf
 OpenBabel04162418103D

 44 47  0  0  0  0  0  0  0  0999 V2000
    2.7567    0.0149    0.6502 C   0  0  0  1  0  0  0  0  0  0  0  0
    1.7333   -0.4518    1.3727 N   0  0  0  1  0  0  0  0  0  0  0  0
    1.1574    0.3779    2.2655 C   0  0  0  1  0  0  0  0  0  0  0  0
    1.6623    1.7051    2.3893 C   0  0  0  1  0  0  0  0  0  0  0  0
    2.7277    2.0218    1.5555 C   0  0  0  1  0  0  0  0  0  0  0  0
    3.3304    1.2086    0.6557 N   0  0  0  1  0  0  0  0  0  0  0  0
    1.4239    2.8928    3.1101 C   0  0  0  1  0  0  0  0  0  0  0  0
    2.2573    3.8476    2.7669 N   0  0  0  1  0  0  0  0  0  0  0  0
    3.0642    3.3076    1.8041 N   0  0  0  1  0  0  0  0  0  0  0  0
    4.1188    4.0065    1.1502 C   0  0  0  1  0  0  0  0  0  0  0  0
    5.1876    4.4872    1.8828 C   0  0  0  1  0  0  0  0  0  0  0  0
    6.2167    5.1627    1.2456 C   0  0  0  1  0  0  0  0  0  0  0  0
    6.1714    5.3602   -0.1217 C   0  0  0  1  0  0  0  0  0  0  0  0
    5.0994    4.8780   -0.8563 C   0  0  0  1  0  0  0  0  0  0  0  0
    4.0732    4.2044   -0.2210 C   0  0  0  1  0  0  0  0  0  0  0  0
    7.2155    6.0286   -0.6250 O   0  0  0  1  0  0  0  0  0  0  0  0
    8.2123    6.6677    0.2416 C   0  0  0  1  0  0  0  0  0  0  0  0
    3.3014   -0.8902   -0.2425 N   0  0  0  1  0  0  0  0  0  0  0  0
    4.3519   -0.4149   -1.1423 C   0  0  0  1  0  0  0  0  0  0  0  0
    3.7839   -0.1144   -2.5196 C   0  0  0  1  0  0  0  0  0  0  0  0
    3.6938   -1.5136   -3.1384 C   0  0  0  1  0  0  0  0  0  0  0  0
    4.9758   -2.2177   -2.6852 C   0  0  0  1  0  0  0  0  0  0  0  0
    5.3925   -1.5128   -1.3873 C   0  0  0  1  0  0  0  0  0  0  0  0
    6.0265   -2.0796   -3.7054 N   0  0  0  1  0  0  0  0  0  0  0  0
    0.3610    0.0563    2.8520 H   0  0  0  1  0  0  0  0  0  0  0  0
    0.6780    2.9998    3.8269 H   0  0  0  1  0  0  0  0  0  0  0  0
    5.2198    4.3421    2.9122 H   0  0  0  1  0  0  0  0  0  0  0  0
    7.0229    5.5209    1.7962 H   0  0  0  1  0  0  0  0  0  0  0  0
    5.0672    5.0231   -1.8857 H   0  0  0  1  0  0  0  0  0  0  0  0
    3.2670    3.8462   -0.7717 H   0  0  0  1  0  0  0  0  0  0  0  0
    8.4689    6.0039    1.0406 H   0  0  0  1  0  0  0  0  0  0  0  0
    7.8062    7.5715    0.6456 H   0  0  0  1  0  0  0  0  0  0  0  0
    9.0885    6.8937   -0.3294 H   0  0  0  1  0  0  0  0  0  0  0  0
    2.9934   -1.8201   -0.2712 H   0  0  0  1  0  0  0  0  0  0  0  0
    4.8125    0.4561   -0.7251 H   0  0  0  1  0  0  0  0  0  0  0  0
    4.4396    0.5176   -3.0812 H   0  0  0  1  0  0  0  0  0  0  0  0
    2.8190    0.3431   -2.4508 H   0  0  0  1  0  0  0  0  0  0  0  0
    2.8302   -2.0317   -2.7772 H   0  0  0  1  0  0  0  0  0  0  0  0
    3.6533   -1.4528   -4.2059 H   0  0  0  1  0  0  0  0  0  0  0  0
    4.7884   -3.2554   -2.5036 H   0  0  0  1  0  0  0  0  0  0  0  0
    5.3970   -2.2074   -0.5734 H   0  0  0  1  0  0  0  0  0  0  0  0
    6.3664   -1.0829   -1.4953 H   0  0  0  1  0  0  0  0  0  0  0  0
    6.8575   -2.4809   -3.3756 H   0  0  0  1  0  0  0  0  0  0  0  0
    6.1753   -1.1296   -3.8942 H   0  0  0  1  0  0  0  0  0  0  0  0
  1  2  4  0  0  0  0
  1  6  4  0  0  0  0
  1 18  1  0  0  0  0
  2  3  4  0  0  0  0
  3  4  4  0  0  0  0
  3 25  1  0  0  0  0
  4  5  4  0  0  0  0
  4  7  4  0  0  0  0
  5  6  4  0  0  0  0
  5  9  4  0  0  0  0
  7  8  4  0  0  0  0
  7 26  1  0  0  0  0
  8  9  4  0  0  0  0
  9 10  1  0  0  0  0
 10 11  4  0  0  0  0
 10 15  4  0  0  0  0
 11 12  4  0  0  0  0
 11 27  1  0  0  0  0
 12 13  4  0  0  0  0
 12 28  1  0  0  0  0
 13 14  4  0  0  0  0
 13 16  1  0  0  0  0
 14 15  4  0  0  0  0
 14 29  1  0  0  0  0
 15 30  1  0  0  0  0
 16 17  1  0  0  0  0
 17 31  1  0  0  0  0
 17 32  1  0  0  0  0
 17 33  1  0  0  0  0
 18 19  1  0  0  0  0
 18 34  1  0  0  0  0
 19 20  1  0  0  0  0
 19 23  1  0  0  0  0
 19 35  1  0  0  0  0
 20 21  1  0  0  0  0
 20 36  1  0  0  0  0
 20 37  1  0  0  0  0
 21 22  1  0  0  0  0
 21 38  1  0  0  0  0
 21 39  1  0  0  0  0
 22 23  1  0  0  0  0
 22 24  1  0  0  0  0
 22 40  1  0  0  0  0
 23 41  1  0  0  0  0
 23 42  1  0  0  0  0
 24 43  1  0  0  0  0
 24 44  1  0  0  0  0
M  END
> <ConfClashScore>
3.20076e-05 

> <ConfOneFourInteractionScore>
-0.984337 

> <ConfScore>
-0.0835288 

> <ConfScorePBest>
0.00463283 

> <ConfTolerance>
0.353798 

$$$$
c22.sdf
 OpenBabel04162418103D

 44 47  0  0  0  0  0  0  0  0999 V2000
    3.1974    0.4012    0.9140 C   0  0  0  1  0  0  0  0  0  0  0  0
    2.9531    1.5492    0.2740 N   0  0  0  1  0  0  0  0  0  0  0  0
    2.3063    2.5234    0.9447 C   0  0  0  1  0  0  0  0  0  0  0  0
    1.9227    2.2835    2.2965 C   0  0  0  1  0  0  0  0  0  0  0  0
    2.2619    1.0352    2.8037 C   0  0  0  1  0  0  0  0  0  0  0  0
    2.9038    0.0359    2.1528 N   0  0  0  1  0  0  0  0  0  0  0  0
    1.2841    2.9311    3.3732 C   0  0  0  1  0  0  0  0  0  0  0  0
    1.2248    2.1649    4.4379 N   0  0  0  1  0  0  0  0  0  0  0  0
    1.8307    0.9911    4.0845 N   0  0  0  1  0  0  0  0  0  0  0  0
    1.9864   -0.1266    4.9485 C   0  0  0  1  0  0  0  0  0  0  0  0
    1.9682   -1.4079    4.4308 C   0  0  0  1  0  0  0  0  0  0  0  0
    2.1254   -2.4977    5.2728 C   0  0  0  1  0  0  0  0  0  0  0  0
    2.2951   -2.3034    6.6307 C   0  0  0  1  0  0  0  0  0  0  0  0
    2.3133   -1.0181    7.1497 C   0  0  0  1  0  0  0  0  0  0  0  0
    2.1565    0.0686    6.3103 C   0  0  0  1  0  0  0  0  0  0  0  0
    2.4543   -3.2971    7.5580 O   0  0  0  1  0  0  0  0  0  0  0  0
    2.7058   -4.5797    6.9627 C   0  0  0  1  0  0  0  0  0  0  0  0
    3.8387   -0.5230    0.1901 N   0  0  0  1  0  0  0  0  0  0  0  0
    4.3946   -0.3443   -1.1454 C   0  0  0  1  0  0  0  0  0  0  0  0
    3.3031   -0.4805   -2.1997 C   0  0  0  1  0  0  0  0  0  0  0  0
    4.0168   -1.0654   -3.4254 C   0  0  0  1  0  0  0  0  0  0  0  0
    4.9361   -2.1013   -2.7728 C   0  0  0  1  0  0  0  0  0  0  0  0
    5.4039   -1.4549   -1.4593 C   0  0  0  1  0  0  0  0  0  0  0  0
    6.1051   -2.3958   -3.6574 N   0  0  0  1  0  0  0  0  0  0  0  0
    2.0915    3.4313    0.4854 H   0  0  0  1  0  0  0  0  0  0  0  0
    0.9056    3.8988    3.3297 H   0  0  0  1  0  0  0  0  0  0  0  0
    1.8365   -1.5544    3.4096 H   0  0  0  1  0  0  0  0  0  0  0  0
    2.1157   -3.4618    4.8828 H   0  0  0  1  0  0  0  0  0  0  0  0
    2.4450   -0.8716    8.1709 H   0  0  0  1  0  0  0  0  0  0  0  0
    2.1662    1.0327    6.7003 H   0  0  0  1  0  0  0  0  0  0  0  0
    3.1755   -5.2202    7.6797 H   0  0  0  1  0  0  0  0  0  0  0  0
    3.3494   -4.4598    6.1164 H   0  0  0  1  0  0  0  0  0  0  0  0
    1.7800   -5.0146    6.6487 H   0  0  0  1  0  0  0  0  0  0  0  0
    3.9452   -1.4077    0.5980 H   0  0  0  1  0  0  0  0  0  0  0  0
    4.8619    0.6159   -1.2123 H   0  0  0  1  0  0  0  0  0  0  0  0
    2.5321   -1.1407   -1.8614 H   0  0  0  1  0  0  0  0  0  0  0  0
    2.8797    0.4748   -2.4300 H   0  0  0  1  0  0  0  0  0  0  0  0
    3.3243   -1.5258   -4.0988 H   0  0  0  1  0  0  0  0  0  0  0  0
    4.5775   -0.3173   -3.9458 H   0  0  0  1  0  0  0  0  0  0  0  0
    4.4006   -3.0065   -2.5754 H   0  0  0  1  0  0  0  0  0  0  0  0
    5.4140   -2.1799   -0.6724 H   0  0  0  1  0  0  0  0  0  0  0  0
    6.3841   -1.0425   -1.5776 H   0  0  0  1  0  0  0  0  0  0  0  0
    6.7112   -3.0172   -3.2025 H   0  0  0  1  0  0  0  0  0  0  0  0
    6.5812   -1.5628   -3.8572 H   0  0  0  1  0  0  0  0  0  0  0  0
  1  2  4  0  0  0  0
  1  6  4  0  0  0  0
  1 18  1  0  0  0  0
  2  3  4  0  0  0  0
  3  4  4  0  0  0  0
  3 25  1  0  0  0  0
  4  5  4  0  0  0  0
  4  7  4  0  0  0  0
  5  6  4  0  0  0  0
  5  9  4  0  0  0  0
  7  8  4  0  0  0  0
  7 26  1  0  0  0  0
  8  9  4  0  0  0  0
  9 10  1  0  0  0  0
 10 11  4  0  0  0  0
 10 15  4  0  0  0  0
 11 12  4  0  0  0  0
 11 27  1  0  0  0  0
 12 13  4  0  0  0  0
 12 28  1  0  0  0  0
 13 14  4  0  0  0  0
 13 16  1  0  0  0  0
 14 15  4  0  0  0  0
 14 29  1  0  0  0  0
 15 30  1  0  0  0  0
 16 17  1  0  0  0  0
 17 31  1  0  0  0  0
 17 32  1  0  0  0  0
 17 33  1  0  0  0  0
 18 19  1  0  0  0  0
 18 34  1  0  0  0  0
 19 20  1  0  0  0  0
 19 23  1  0  0  0  0
 19 35  1  0  0  0  0
 20 21  1  0  0  0  0
 20 36  1  0  0  0  0
 20 37  1  0  0  0  0
 21 22  1  0  0  0  0
 21 38  1  0  0  0  0
 21 39  1  0  0  0  0
 22 23  1  0  0  0  0
 22 24  1  0  0  0  0
 22 40  1  0  0  0  0
 23 41  1  0  0  0  0
 23 42  1  0  0  0  0
 24 43  1  0  0  0  0
 24 44  1  0  0  0  0
M  END
> <ConfClashScore>
0 

> <ConfOneFourInteractionScore>
-0.984337 

> <ConfScore>
-0.0820725 

> <ConfScorePBest>
0.0046195 

> <ConfTolerance>
0.248449 

$$$$
c22.sdf
 OpenBabel04162418103D

 44 47  0  0  0  0  0  0  0  0999 V2000
    3.6390    1.1548    0.3919 C   0  0  0  1  0  0  0  0  0  0  0  0
    2.9886    1.2600    1.5551 N   0  0  0  1  0  0  0  0  0  0  0  0
    2.7805    2.4944    2.0554 C   0  0  0  1  0  0  0  0  0  0  0  0
    3.2569    3.6188    1.3202 C   0  0  0  1  0  0  0  0  0  0  0  0
    3.9070    3.3242    0.1280 C   0  0  0  1  0  0  0  0  0  0  0  0
    4.1367    2.0965   -0.3953 N   0  0  0  1  0  0  0  0  0  0  0  0
    3.2832    5.0264    1.3885 C   0  0  0  1  0  0  0  0  0  0  0  0
    3.8919    5.5541    0.3516 N   0  0  0  1  0  0  0  0  0  0  0  0
    4.2778    4.4994   -0.4286 N   0  0  0  1  0  0  0  0  0  0  0  0
    4.9699    4.6212   -1.6505 C   0  0  0  1  0  0  0  0  0  0  0  0
    4.8154    5.7134   -2.4831 C   0  0  0  1  0  0  0  0  0  0  0  0
    5.5251    5.7846   -3.6716 C   0  0  0  1  0  0  0  0  0  0  0  0
    6.3833    4.7609   -4.0267 C   0  0  0  1  0  0  0  0  0  0  0  0
    6.5381    3.6655   -3.1914 C   0  0  0  1  0  0  0  0  0  0  0  0
    5.8305    3.5944   -2.0063 C   0  0  0  1  0  0  0  0  0  0  0  0
    7.0727    4.8281   -5.1903 O   0  0  0  1  0  0  0  0  0  0  0  0
    7.8484    3.6777   -5.5608 C   0  0  0  1  0  0  0  0  0  0  0  0
    3.8205   -0.1397   -0.0601 N   0  0  0  1  0  0  0  0  0  0  0  0
    4.5880   -0.3332   -1.2935 C   0  0  0  1  0  0  0  0  0  0  0  0
    3.6641   -0.2435   -2.5137 C   0  0  0  1  0  0  0  0  0  0  0  0
    3.6600   -1.6409   -3.1210 C   0  0  0  1  0  0  0  0  0  0  0  0
    5.0344   -2.2233   -2.7665 C   0  0  0  1  0  0  0  0  0  0  0  0
    5.2024   -1.7416   -1.3229 C   0  0  0  1  0  0  0  0  0  0  0  0
    6.1132   -1.6718   -3.6600 N   0  0  0  1  0  0  0  0  0  0  0  0
    2.2826    2.6236    2.9593 H   0  0  0  1  0  0  0  0  0  0  0  0
    2.8705    5.5801    2.1661 H   0  0  0  1  0  0  0  0  0  0  0  0
    4.1666    6.4818   -2.2180 H   0  0  0  1  0  0  0  0  0  0  0  0
    5.4119    6.6084   -4.2963 H   0  0  0  1  0  0  0  0  0  0  0  0
    7.1869    2.8971   -3.4566 H   0  0  0  1  0  0  0  0  0  0  0  0
    5.9437    2.7707   -1.3816 H   0  0  0  1  0  0  0  0  0  0  0  0
    8.8460    3.7848   -5.1892 H   0  0  0  1  0  0  0  0  0  0  0  0
    7.8725    3.5924   -6.6271 H   0  0  0  1  0  0  0  0  0  0  0  0
    7.4046    2.7987   -5.1421 H   0  0  0  1  0  0  0  0  0  0  0  0
    3.4478   -0.9030    0.4287 H   0  0  0  1  0  0  0  0  0  0  0  0
    5.3571    0.4081   -1.3556 H   0  0  0  1  0  0  0  0  0  0  0  0
    4.0411    0.4692   -3.2171 H   0  0  0  1  0  0  0  0  0  0  0  0
    2.6759    0.0377   -2.2150 H   0  0  0  1  0  0  0  0  0  0  0  0
    2.8777   -2.2346   -2.6962 H   0  0  0  1  0  0  0  0  0  0  0  0
    3.5340   -1.5905   -4.1824 H   0  0  0  1  0  0  0  0  0  0  0  0
    5.0336   -3.2917   -2.8251 H   0  0  0  1  0  0  0  0  0  0  0  0
    6.2384   -1.7045   -1.0582 H   0  0  0  1  0  0  0  0  0  0  0  0
    4.6844   -2.3909   -0.6483 H   0  0  0  1  0  0  0  0  0  0  0  0
    6.9735   -2.0762   -3.4220 H   0  0  0  1  0  0  0  0  0  0  0  0
    6.1666   -0.7000   -3.5457 H   0  0  0  1  0  0  0  0  0  0  0  0
  1  2  4  0  0  0  0
  1  6  4  0  0  0  0
  1 18  1  0  0  0  0
  2  3  4  0  0  0  0
  3  4  4  0  0  0  0
  3 25  1  0  0  0  0
  4  5  4  0  0  0  0
  4  7  4  0  0  0  0
  5  6  4  0  0  0  0
  5  9  4  0  0  0  0
  7  8  4  0  0  0  0
  7 26  1  0  0  0  0
  8  9  4  0  0  0  0
  9 10  1  0  0  0  0
 10 11  4  0  0  0  0
 10 15  4  0  0  0  0
 11 12  4  0  0  0  0
 11 27  1  0  0  0  0
 12 13  4  0  0  0  0
 12 28  1  0  0  0  0
 13 14  4  0  0  0  0
 13 16  1  0  0  0  0
 14 15  4  0  0  0  0
 14 29  1  0  0  0  0
 15 30  1  0  0  0  0
 16 17  1  0  0  0  0
 17 31  1  0  0  0  0
 17 32  1  0  0  0  0
 17 33  1  0  0  0  0
 18 19  1  0  0  0  0
 18 34  1  0  0  0  0
 19 20  1  0  0  0  0
 19 23  1  0  0  0  0
 19 35  1  0  0  0  0
 20 21  1  0  0  0  0
 20 36  1  0  0  0  0
 20 37  1  0  0  0  0
 21 22  1  0  0  0  0
 21 38  1  0  0  0  0
 21 39  1  0  0  0  0
 22 23  1  0  0  0  0
 22 24  1  0  0  0  0
 22 40  1  0  0  0  0
 23 41  1  0  0  0  0
 23 42  1  0  0  0  0
 24 43  1  0  0  0  0
 24 44  1  0  0  0  0
M  END
> <ConfClashScore>
0 

> <ConfOneFourInteractionScore>
-0.984337 

> <ConfScore>
-0.0820725 

> <ConfScorePBest>
0.00460617 

> <ConfTolerance>
0.263163 

$$$$
c22.sdf
 OpenBabel04162418103D

 44 47  0  0  0  0  0  0  0  0999 V2000
    4.7758    0.5970    1.0202 C   0  0  0  1  0  0  0  0  0  0  0  0
    5.9998    0.8686    0.5564 N   0  0  0  1  0  0  0  0  0  0  0  0
    6.8662    1.4909    1.3806 C   0  0  0  1  0  0  0  0  0  0  0  0
    6.4375    1.8211    2.6993 C   0  0  0  1  0  0  0  0  0  0  0  0
    5.1334    1.4597    3.0142 C   0  0  0  1  0  0  0  0  0  0  0  0
    4.2394    0.8414    2.2063 N   0  0  0  1  0  0  0  0  0  0  0  0
    6.9241    2.4188    3.8795 C   0  0  0  1  0  0  0  0  0  0  0  0
    6.0166    2.4350    4.8284 N   0  0  0  1  0  0  0  0  0  0  0  0
    4.9081    1.8407    4.2919 N   0  0  0  1  0  0  0  0  0  0  0  0
    3.6881    1.6500    4.9817 C   0  0  0  1  0  0  0  0  0  0  0  0
    2.5029    2.0919    4.4247 C   0  0  0  1  0  0  0  0  0  0  0  0
    1.3067    1.9001    5.0983 C   0  0  0  1  0  0  0  0  0  0  0  0
    1.2997    1.2719    6.3294 C   0  0  0  1  0  0  0  0  0  0  0  0
    2.4884    0.8288    6.8880 C   0  0  0  1  0  0  0  0  0  0  0  0
    3.6812    1.0199    6.2164 C   0  0  0  1  0  0  0  0  0  0  0  0
    0.1474    1.1734    7.0340 O   0  0  0  1  0  0  0  0  0  0  0  0
   -1.0718    1.4939    6.3461 C   0  0  0  1  0  0  0  0  0  0  0  0
    3.9318   -0.0438    0.1136 N   0  0  0  1  0  0  0  0  0  0  0  0
    4.5190   -0.2901   -1.2044 C   0  0  0  1  0  0  0  0  0  0  0  0
    3.4295   -0.3434   -2.2809 C   0  0  0  1  0  0  0  0  0  0  0  0
    4.1264   -1.1037   -3.3972 C   0  0  0  1  0  0  0  0  0  0  0  0
    4.9311   -2.1909   -2.6771 C   0  0  0  1  0  0  0  0  0  0  0  0
    5.1762   -1.6722   -1.2538 C   0  0  0  1  0  0  0  0  0  0  0  0
    6.2329   -2.4201   -3.3761 N   0  0  0  1  0  0  0  0  0  0  0  0
    7.8276    1.7254    1.0608 H   0  0  0  1  0  0  0  0  0  0  0  0
    7.8855    2.8009    3.9858 H   0  0  0  1  0  0  0  0  0  0  0  0
    2.5086    2.5682    3.5002 H   0  0  0  1  0  0  0  0  0  0  0  0
    0.4144    2.2290    4.6773 H   0  0  0  1  0  0  0  0  0  0  0  0
    2.4828    0.3525    7.8125 H   0  0  0  1  0  0  0  0  0  0  0  0
    4.5736    0.6910    6.6374 H   0  0  0  1  0  0  0  0  0  0  0  0
   -1.9045    1.3198    6.9952 H   0  0  0  1  0  0  0  0  0  0  0  0
   -1.1630    0.8774    5.4763 H   0  0  0  1  0  0  0  0  0  0  0  0
   -1.0565    2.5232    6.0544 H   0  0  0  1  0  0  0  0  0  0  0  0
    3.0162   -0.3087    0.3413 H   0  0  0  1  0  0  0  0  0  0  0  0
    5.2324    0.4758   -1.4263 H   0  0  0  1  0  0  0  0  0  0  0  0
    3.1470    0.6390   -2.5971 H   0  0  0  1  0  0  0  0  0  0  0  0
    2.5648   -0.8691   -1.9333 H   0  0  0  1  0  0  0  0  0  0  0  0
    3.4102   -1.5408   -4.0613 H   0  0  0  1  0  0  0  0  0  0  0  0
    4.7753   -0.4555   -3.9483 H   0  0  0  1  0  0  0  0  0  0  0  0
    4.3757   -3.1050   -2.6479 H   0  0  0  1  0  0  0  0  0  0  0  0
    4.7274   -2.3257   -0.5352 H   0  0  0  1  0  0  0  0  0  0  0  0
    6.2256   -1.5945   -1.0596 H   0  0  0  1  0  0  0  0  0  0  0  0
    6.7932   -1.6202   -3.2946 H   0  0  0  1  0  0  0  0  0  0  0  0
    6.0663   -2.6068   -4.3236 H   0  0  0  1  0  0  0  0  0  0  0  0
  1  2  4  0  0  0  0
  1  6  4  0  0  0  0
  1 18  1  0  0  0  0
  2  3  4  0  0  0  0
  3  4  4  0  0  0  0
  3 25  1  0  0  0  0
  4  5  4  0  0  0  0
  4  7  4  0  0  0  0
  5  6  4  0  0  0  0
  5  9  4  0  0  0  0
  7  8  4  0  0  0  0
  7 26  1  0  0  0  0
  8  9  4  0  0  0  0
  9 10  1  0  0  0  0
 10 11  4  0  0  0  0
 10 15  4  0  0  0  0
 11 12  4  0  0  0  0
 11 27  1  0  0  0  0
 12 13  4  0  0  0  0
 12 28  1  0  0  0  0
 13 14  4  0  0  0  0
 13 16  1  0  0  0  0
 14 15  4  0  0  0  0
 14 29  1  0  0  0  0
 15 30  1  0  0  0  0
 16 17  1  0  0  0  0
 17 31  1  0  0  0  0
 17 32  1  0  0  0  0
 17 33  1  0  0  0  0
 18 19  1  0  0  0  0
 18 34  1  0  0  0  0
 19 20  1  0  0  0  0
 19 23  1  0  0  0  0
 19 35  1  0  0  0  0
 20 21  1  0  0  0  0
 20 36  1  0  0  0  0
 20 37  1  0  0  0  0
 21 22  1  0  0  0  0
 21 38  1  0  0  0  0
 21 39  1  0  0  0  0
 22 23  1  0  0  0  0
 22 24  1  0  0  0  0
 22 40  1  0  0  0  0
 23 41  1  0  0  0  0
 23 42  1  0  0  0  0
 24 43  1  0  0  0  0
 24 44  1  0  0  0  0
M  END
> <ConfClashScore>
0 

> <ConfOneFourInteractionScore>
-0.984337 

> <ConfScore>
-0.0820254 

> <ConfScorePBest>
0.00459285 

> <ConfTolerance>
0.273679 

$$$$
c22.sdf
 OpenBabel04162418103D

 44 47  0  0  0  0  0  0  0  0999 V2000
    3.4695   -0.9047    1.3086 C   0  0  0  1  0  0  0  0  0  0  0  0
    4.3812    0.0041    1.6691 N   0  0  0  1  0  0  0  0  0  0  0  0
    4.5182    0.2780    2.9819 C   0  0  0  1  0  0  0  0  0  0  0  0
    3.6926   -0.4155    3.9143 C   0  0  0  1  0  0  0  0  0  0  0  0
    2.8032   -1.3300    3.3637 C   0  0  0  1  0  0  0  0  0  0  0  0
    2.6384   -1.6204    2.0512 N   0  0  0  1  0  0  0  0  0  0  0  0
    3.4645   -0.5056    5.3024 C   0  0  0  1  0  0  0  0  0  0  0  0
    2.5265   -1.3793    5.5871 N   0  0  0  1  0  0  0  0  0  0  0  0
    2.1177   -1.8895    4.3861 N   0  0  0  1  0  0  0  0  0  0  0  0
    1.1149   -2.8685    4.2341 C   0  0  0  1  0  0  0  0  0  0  0  0
    1.2135   -4.1237    4.8041 C   0  0  0  1  0  0  0  0  0  0  0  0
    0.1948   -5.0470    4.6270 C   0  0  0  1  0  0  0  0  0  0  0  0
   -0.9169   -4.7143    3.8762 C   0  0  0  1  0  0  0  0  0  0  0  0
   -1.0155   -3.4553    3.3046 C   0  0  0  1  0  0  0  0  0  0  0  0
    0.0001   -2.5346    3.4811 C   0  0  0  1  0  0  0  0  0  0  0  0
   -1.8732   -5.6630    3.7374 O   0  0  0  1  0  0  0  0  0  0  0  0
   -3.0767   -5.2859    3.0504 C   0  0  0  1  0  0  0  0  0  0  0  0
    3.3813   -1.1302   -0.0339 N   0  0  0  1  0  0  0  0  0  0  0  0
    4.2700   -0.4629   -0.9856 C   0  0  0  1  0  0  0  0  0  0  0  0
    3.5195   -0.1845   -2.3184 C   0  0  0  1  0  0  0  0  0  0  0  0
    4.1806   -1.0691   -3.3901 C   0  0  0  1  0  0  0  0  0  0  0  0
    4.9716   -2.1470   -2.6240 C   0  0  0  1  0  0  0  0  0  0  0  0
    5.4758   -1.3946   -1.3460 C   0  0  0  1  0  0  0  0  0  0  0  0
    6.1034   -2.6369   -3.4257 N   0  0  0  1  0  0  0  0  0  0  0  0
    5.2121    0.9808    3.3078 H   0  0  0  1  0  0  0  0  0  0  0  0
    3.9770    0.0524    6.0148 H   0  0  0  1  0  0  0  0  0  0  0  0
    2.0518   -4.3755    5.3657 H   0  0  0  1  0  0  0  0  0  0  0  0
    0.2671   -5.9902    5.0592 H   0  0  0  1  0  0  0  0  0  0  0  0
   -1.8538   -3.2035    2.7429 H   0  0  0  1  0  0  0  0  0  0  0  0
   -0.0721   -1.5914    3.0489 H   0  0  0  1  0  0  0  0  0  0  0  0
   -3.4547   -4.3751    3.4657 H   0  0  0  1  0  0  0  0  0  0  0  0
   -3.8079   -6.0590    3.1620 H   0  0  0  1  0  0  0  0  0  0  0  0
   -2.8641   -5.1427    2.0115 H   0  0  0  1  0  0  0  0  0  0  0  0
    2.7052   -1.7553   -0.3696 H   0  0  0  1  0  0  0  0  0  0  0  0
    4.6240    0.4535   -0.5616 H   0  0  0  1  0  0  0  0  0  0  0  0
    3.6110    0.8479   -2.5845 H   0  0  0  1  0  0  0  0  0  0  0  0
    2.4845   -0.4372   -2.2187 H   0  0  0  1  0  0  0  0  0  0  0  0
    3.4349   -1.5243   -4.0078 H   0  0  0  1  0  0  0  0  0  0  0  0
    4.8405   -0.4858   -3.9978 H   0  0  0  1  0  0  0  0  0  0  0  0
    4.3394   -2.9686   -2.3590 H   0  0  0  1  0  0  0  0  0  0  0  0
    5.6814   -2.0815   -0.5518 H   0  0  0  1  0  0  0  0  0  0  0  0
    6.3539   -0.8215   -1.5589 H   0  0  0  1  0  0  0  0  0  0  0  0
    6.6286   -1.8757   -3.7496 H   0  0  0  1  0  0  0  0  0  0  0  0
    5.7648   -3.1487   -4.1898 H   0  0  0  1  0  0  0  0  0  0  0  0
  1  2  4  0  0  0  0
  1  6  4  0  0  0  0
  1 18  1  0  0  0  0
  2  3  4  0  0  0  0
  3  4  4  0  0  0  0
  3 25  1  0  0  0  0
  4  5  4  0  0  0  0
  4  7  4  0  0  0  0
  5  6  4  0  0  0  0
  5  9  4  0  0  0  0
  7  8  4  0  0  0  0
  7 26  1  0  0  0  0
  8  9  4  0  0  0  0
  9 10  1  0  0  0  0
 10 11  4  0  0  0  0
 10 15  4  0  0  0  0
 11 12  4  0  0  0  0
 11 27  1  0  0  0  0
 12 13  4  0  0  0  0
 12 28  1  0  0  0  0
 13 14  4  0  0  0  0
 13 16  1  0  0  0  0
 14 15  4  0  0  0  0
 14 29  1  0  0  0  0
 15 30  1  0  0  0  0
 16 17  1  0  0  0  0
 17 31  1  0  0  0  0
 17 32  1  0  0  0  0
 17 33  1  0  0  0  0
 18 19  1  0  0  0  0
 18 34  1  0  0  0  0
 19 20  1  0  0  0  0
 19 23  1  0  0  0  0
 19 35  1  0  0  0  0
 20 21  1  0  0  0  0
 20 36  1  0  0  0  0
 20 37  1  0  0  0  0
 21 22  1  0  0  0  0
 21 38  1  0  0  0  0
 21 39  1  0  0  0  0
 22 23  1  0  0  0  0
 22 24  1  0  0  0  0
 22 40  1  0  0  0  0
 23 41  1  0  0  0  0
 23 42  1  0  0  0  0
 24 43  1  0  0  0  0
 24 44  1  0  0  0  0
M  END
> <ConfClashScore>
0 

> <ConfOneFourInteractionScore>
-0.984337 

> <ConfScore>
-0.0820254 

> <ConfScorePBest>
0.00457952 

> <ConfTolerance>
0.291498 

$$$$
c22.sdf
 OpenBabel04162418103D

 44 47  0  0  0  0  0  0  0  0999 V2000
    3.1376   -1.2709    1.0667 C   0  0  0  1  0  0  0  0  0  0  0  0
    2.1266   -2.0055    1.5415 N   0  0  0  1  0  0  0  0  0  0  0  0
    2.0000   -2.1202    2.8787 C   0  0  0  1  0  0  0  0  0  0  0  0
    2.9419   -1.4517    3.7140 C   0  0  0  1  0  0  0  0  0  0  0  0
    3.9249   -0.7282    3.0501 C   0  0  0  1  0  0  0  0  0  0  0  0
    4.0812   -0.6008    1.7109 N   0  0  0  1  0  0  0  0  0  0  0  0
    3.2279   -1.2493    5.0793 C   0  0  0  1  0  0  0  0  0  0  0  0
    4.2824   -0.4857    5.2491 N   0  0  0  1  0  0  0  0  0  0  0  0
    4.7135   -0.1632    3.9921 N   0  0  0  1  0  0  0  0  0  0  0  0
    5.8432    0.6588    3.7122 C   0  0  0  1  0  0  0  0  0  0  0  0
    6.9221    0.1402    3.0215 C   0  0  0  1  0  0  0  0  0  0  0  0
    8.0560    0.9131    2.8259 C   0  0  0  1  0  0  0  0  0  0  0  0
    8.1099    2.2004    3.3262 C   0  0  0  1  0  0  0  0  0  0  0  0
    7.0277    2.7204    4.0190 C   0  0  0  1  0  0  0  0  0  0  0  0
    5.8970    1.9498    4.2141 C   0  0  0  1  0  0  0  0  0  0  0  0
    9.2330    2.9428    3.2764 O   0  0  0  1  0  0  0  0  0  0  0  0
   10.3339    2.3399    2.5573 C   0  0  0  1  0  0  0  0  0  0  0  0
    3.2077   -1.2010   -0.2798 N   0  0  0  1  0  0  0  0  0  0  0  0
    4.2607   -0.4819   -1.0086 C   0  0  0  1  0  0  0  0  0  0  0  0
    3.7985   -0.0865   -2.4171 C   0  0  0  1  0  0  0  0  0  0  0  0
    3.8970   -1.3709   -3.2309 C   0  0  0  1  0  0  0  0  0  0  0  0
    5.0286   -2.1771   -2.5828 C   0  0  0  1  0  0  0  0  0  0  0  0
    5.4465   -1.3967   -1.3265 C   0  0  0  1  0  0  0  0  0  0  0  0
    6.1628   -2.2967   -3.5083 N   0  0  0  1  0  0  0  0  0  0  0  0
    1.2309   -2.6850    3.2924 H   0  0  0  1  0  0  0  0  0  0  0  0
    2.6709   -1.6556    5.8580 H   0  0  0  1  0  0  0  0  0  0  0  0
    6.8832   -0.8299    2.6484 H   0  0  0  1  0  0  0  0  0  0  0  0
    8.8664    0.5243    2.3026 H   0  0  0  1  0  0  0  0  0  0  0  0
    7.0666    3.6904    4.3920 H   0  0  0  1  0  0  0  0  0  0  0  0
    5.0866    2.3385    4.7374 H   0  0  0  1  0  0  0  0  0  0  0  0
   10.5391    1.3720    2.9645 H   0  0  0  1  0  0  0  0  0  0  0  0
   11.2023    2.9578    2.6519 H   0  0  0  1  0  0  0  0  0  0  0  0
   10.0746    2.2442    1.5236 H   0  0  0  1  0  0  0  0  0  0  0  0
    2.5149   -1.6571   -0.8018 H   0  0  0  1  0  0  0  0  0  0  0  0
    4.5667    0.3731   -0.4427 H   0  0  0  1  0  0  0  0  0  0  0  0
    2.7901    0.2708   -2.3968 H   0  0  0  1  0  0  0  0  0  0  0  0
    4.4370    0.6688   -2.8255 H   0  0  0  1  0  0  0  0  0  0  0  0
    2.9765   -1.9144   -3.1853 H   0  0  0  1  0  0  0  0  0  0  0  0
    4.1314   -1.1503   -4.2514 H   0  0  0  1  0  0  0  0  0  0  0  0
    4.6819   -3.1532   -2.3147 H   0  0  0  1  0  0  0  0  0  0  0  0
    6.3255   -0.8179   -1.5196 H   0  0  0  1  0  0  0  0  0  0  0  0
    5.6317   -2.0669   -0.5131 H   0  0  0  1  0  0  0  0  0  0  0  0
    6.4164   -1.4070   -3.8317 H   0  0  0  1  0  0  0  0  0  0  0  0
    5.9060   -2.8594   -4.2684 H   0  0  0  1  0  0  0  0  0  0  0  0
  1  2  4  0  0  0  0
  1  6  4  0  0  0  0
  1 18  1  0  0  0  0
  2  3  4  0  0  0  0
  3  4  4  0  0  0  0
  3 25  1  0  0  0  0
  4  5  4  0  0  0  0
  4  7  4  0  0  0  0
  5  6  4  0  0  0  0
  5  9  4  0  0  0  0
  7  8  4  0  0  0  0
  7 26  1  0  0  0  0
  8  9  4  0  0  0  0
  9 10  1  0  0  0  0
 10 11  4  0  0  0  0
 10 15  4  0  0  0  0
 11 12  4  0  0  0  0
 11 27  1  0  0  0  0
 12 13  4  0  0  0  0
 12 28  1  0  0  0  0
 13 14  4  0  0  0  0
 13 16  1  0  0  0  0
 14 15  4  0  0  0  0
 14 29  1  0  0  0  0
 15 30  1  0  0  0  0
 16 17  1  0  0  0  0
 17 31  1  0  0  0  0
 17 32  1  0  0  0  0
 17 33  1  0  0  0  0
 18 19  1  0  0  0  0
 18 34  1  0  0  0  0
 19 20  1  0  0  0  0
 19 23  1  0  0  0  0
 19 35  1  0  0  0  0
 20 21  1  0  0  0  0
 20 36  1  0  0  0  0
 20 37  1  0  0  0  0
 21 22  1  0  0  0  0
 21 38  1  0  0  0  0
 21 39  1  0  0  0  0
 22 23  1  0  0  0  0
 22 24  1  0  0  0  0
 22 40  1  0  0  0  0
 23 41  1  0  0  0  0
 23 42  1  0  0  0  0
 24 43  1  0  0  0  0
 24 44  1  0  0  0  0
M  END
> <ConfClashScore>
0 

> <ConfOneFourInteractionScore>
-0.984337 

> <ConfScore>
-0.0820254 

> <ConfScorePBest>
0.00456619 

> <ConfTolerance>
0.294575 

$$$$
c22.sdf
 OpenBabel04162418103D

 44 47  0  0  0  0  0  0  0  0999 V2000
    3.6859    1.4441    0.1505 C   0  0  0  1  0  0  0  0  0  0  0  0
    3.4516    1.7797    1.4232 N   0  0  0  1  0  0  0  0  0  0  0  0
    2.8753    2.9735    1.6680 C   0  0  0  1  0  0  0  0  0  0  0  0
    2.5418    3.8104    0.5634 C   0  0  0  1  0  0  0  0  0  0  0  0
    2.8522    3.3001   -0.6911 C   0  0  0  1  0  0  0  0  0  0  0  0
    3.4365    2.1099   -0.9670 N   0  0  0  1  0  0  0  0  0  0  0  0
    1.9509    5.0607    0.2903 C   0  0  0  1  0  0  0  0  0  0  0  0
    1.9041    5.3073   -0.9985 N   0  0  0  1  0  0  0  0  0  0  0  0
    2.4622    4.2166   -1.6056 N   0  0  0  1  0  0  0  0  0  0  0  0
    2.6117    4.0669   -3.0042 C   0  0  0  1  0  0  0  0  0  0  0  0
    2.0733    2.9658   -3.6427 C   0  0  0  1  0  0  0  0  0  0  0  0
    2.2152    2.8219   -5.0141 C   0  0  0  1  0  0  0  0  0  0  0  0
    2.8997    3.7768   -5.7421 C   0  0  0  1  0  0  0  0  0  0  0  0
    3.4397    4.8811   -5.1015 C   0  0  0  1  0  0  0  0  0  0  0  0
    3.2982    5.0247   -3.7342 C   0  0  0  1  0  0  0  0  0  0  0  0
    3.1250    3.5894   -7.0571 O   0  0  0  1  0  0  0  0  0  0  0  0
    4.0152    4.5516   -7.6688 C   0  0  0  1  0  0  0  0  0  0  0  0
    4.2737    0.2256   -0.0245 N   0  0  0  1  0  0  0  0  0  0  0  0
    4.6836   -0.2489   -1.3502 C   0  0  0  1  0  0  0  0  0  0  0  0
    3.4886   -0.2637   -2.3229 C   0  0  0  1  0  0  0  0  0  0  0  0
    3.8080   -1.3424   -3.3728 C   0  0  0  1  0  0  0  0  0  0  0  0
    4.9300   -2.2335   -2.7692 C   0  0  0  1  0  0  0  0  0  0  0  0
    5.1304   -1.7491   -1.2936 C   0  0  0  1  0  0  0  0  0  0  0  0
    6.1842   -2.0682   -3.5373 N   0  0  0  1  0  0  0  0  0  0  0  0
    2.6781    3.2776    2.6427 H   0  0  0  1  0  0  0  0  0  0  0  0
    1.5950    5.7093    1.0212 H   0  0  0  1  0  0  0  0  0  0  0  0
    1.5617    2.2452   -3.0944 H   0  0  0  1  0  0  0  0  0  0  0  0
    1.8066    1.9954   -5.4952 H   0  0  0  1  0  0  0  0  0  0  0  0
    3.9513    5.6017   -5.6498 H   0  0  0  1  0  0  0  0  0  0  0  0
    3.7068    5.8513   -3.2530 H   0  0  0  1  0  0  0  0  0  0  0  0
    3.5557    5.5179   -7.6623 H   0  0  0  1  0  0  0  0  0  0  0  0
    4.2164    4.2594   -8.6783 H   0  0  0  1  0  0  0  0  0  0  0  0
    4.9320    4.5892   -7.1184 H   0  0  0  1  0  0  0  0  0  0  0  0
    4.4259   -0.3475    0.7558 H   0  0  0  1  0  0  0  0  0  0  0  0
    5.4721    0.3707   -1.7233 H   0  0  0  1  0  0  0  0  0  0  0  0
    3.3803    0.6915   -2.7928 H   0  0  0  1  0  0  0  0  0  0  0  0
    2.5875   -0.5090   -1.8006 H   0  0  0  1  0  0  0  0  0  0  0  0
    4.1471   -0.8860   -4.2792 H   0  0  0  1  0  0  0  0  0  0  0  0
    2.9373   -1.9312   -3.5734 H   0  0  0  1  0  0  0  0  0  0  0  0
    4.6347   -3.2618   -2.7844 H   0  0  0  1  0  0  0  0  0  0  0  0
    4.5160   -2.3079   -0.6190 H   0  0  0  1  0  0  0  0  0  0  0  0
    6.1550   -1.8339   -0.9972 H   0  0  0  1  0  0  0  0  0  0  0  0
    6.8958   -2.5968   -3.1194 H   0  0  0  1  0  0  0  0  0  0  0  0
    6.4409   -1.1225   -3.5436 H   0  0  0  1  0  0  0  0  0  0  0  0
  1  2  4  0  0  0  0
  1  6  4  0  0  0  0
  1 18  1  0  0  0  0
  2  3  4  0  0  0  0
  3  4  4  0  0  0  0
  3 25  1  0  0  0  0
  4  5  4  0  0  0  0
  4  7  4  0  0  0  0
  5  6  4  0  0  0  0
  5  9  4  0  0  0  0
  7  8  4  0  0  0  0
  7 26  1  0  0  0  0
  8  9  4  0  0  0  0
  9 10  1  0  0  0  0
 10 11  4  0  0  0  0
 10 15  4  0  0  0  0
 11 12  4  0  0  0  0
 11 27  1  0  0  0  0
 12 13  4  0  0  0  0
 12 28  1  0  0  0  0
 13 14  4  0  0  0  0
 13 16  1  0  0  0  0
 14 15  4  0  0  0  0
 14 29  1  0  0  0  0
 15 30  1  0  0  0  0
 16 17  1  0  0  0  0
 17 31  1  0  0  0  0
 17 32  1  0  0  0  0
 17 33  1  0  0  0  0
 18 19  1  0  0  0  0
 18 34  1  0  0  0  0
 19 20  1  0  0  0  0
 19 23  1  0  0  0  0
 19 35  1  0  0  0  0
 20 21  1  0  0  0  0
 20 36  1  0  0  0  0
 20 37  1  0  0  0  0
 21 22  1  0  0  0  0
 21 38  1  0  0  0  0
 21 39  1  0  0  0  0
 22 23  1  0  0  0  0
 22 24  1  0  0  0  0
 22 40  1  0  0  0  0
 23 41  1  0  0  0  0
 23 42  1  0  0  0  0
 24 43  1  0  0  0  0
 24 44  1  0  0  0  0
M  END
> <ConfClashScore>
0 

> <ConfOneFourInteractionScore>
-0.985399 

> <ConfScore>
-0.0802511 

> <ConfScorePBest>
0.00455286 

> <ConfTolerance>
0.250462 

$$$$
c22.sdf
 OpenBabel04162418103D

 44 47  0  0  0  0  0  0  0  0999 V2000
    2.1041   -0.7557    0.1234 C   0  0  0  1  0  0  0  0  0  0  0  0
    1.7581    0.4304   -0.3870 N   0  0  0  1  0  0  0  0  0  0  0  0
    0.5471    0.9290   -0.0673 C   0  0  0  1  0  0  0  0  0  0  0  0
   -0.2961    0.1730    0.7983 C   0  0  0  1  0  0  0  0  0  0  0  0
    0.2267   -1.0364    1.2392 C   0  0  0  1  0  0  0  0  0  0  0  0
    1.4344   -1.5655    0.9297 N   0  0  0  1  0  0  0  0  0  0  0  0
   -1.5625    0.2457    1.4130 C   0  0  0  1  0  0  0  0  0  0  0  0
   -1.8067   -0.8106    2.1538 N   0  0  0  1  0  0  0  0  0  0  0  0
   -0.6983   -1.6040    2.0458 N   0  0  0  1  0  0  0  0  0  0  0  0
   -0.5403   -2.8523    2.6919 C   0  0  0  1  0  0  0  0  0  0  0  0
   -1.3417   -3.9207    2.3362 C   0  0  0  1  0  0  0  0  0  0  0  0
   -1.1833   -5.1455    2.9657 C   0  0  0  1  0  0  0  0  0  0  0  0
   -0.2275   -5.2970    3.9526 C   0  0  0  1  0  0  0  0  0  0  0  0
    0.5762   -4.2253    4.3091 C   0  0  0  1  0  0  0  0  0  0  0  0
    0.4183   -3.0040    3.6816 C   0  0  0  1  0  0  0  0  0  0  0  0
   -0.1388   -6.4617    4.6378 O   0  0  0  1  0  0  0  0  0  0  0  0
   -0.9648   -7.5491    4.1932 C   0  0  0  1  0  0  0  0  0  0  0  0
    3.3159   -1.1932   -0.2365 N   0  0  0  1  0  0  0  0  0  0  0  0
    4.2960   -0.4701   -1.0560 C   0  0  0  1  0  0  0  0  0  0  0  0
    3.7131   -0.0909   -2.4235 C   0  0  0  1  0  0  0  0  0  0  0  0
    3.7563   -1.3808   -3.2333 C   0  0  0  1  0  0  0  0  0  0  0  0
    4.9467   -2.1705   -2.6767 C   0  0  0  1  0  0  0  0  0  0  0  0
    5.4604   -1.3759   -1.4656 C   0  0  0  1  0  0  0  0  0  0  0  0
    6.0033   -2.2869   -3.6960 N   0  0  0  1  0  0  0  0  0  0  0  0
    0.2345    1.8464   -0.4446 H   0  0  0  1  0  0  0  0  0  0  0  0
   -2.2234    1.0398    1.2943 H   0  0  0  1  0  0  0  0  0  0  0  0
   -2.0636   -3.8057    1.5965 H   0  0  0  1  0  0  0  0  0  0  0  0
   -1.7836   -5.9505    2.6953 H   0  0  0  1  0  0  0  0  0  0  0  0
    1.2981   -4.3403    5.0489 H   0  0  0  1  0  0  0  0  0  0  0  0
    1.0186   -2.1989    3.9519 H   0  0  0  1  0  0  0  0  0  0  0  0
   -0.8029   -8.4004    4.8209 H   0  0  0  1  0  0  0  0  0  0  0  0
   -0.7133   -7.7979    3.1833 H   0  0  0  1  0  0  0  0  0  0  0  0
   -1.9935   -7.2593    4.2441 H   0  0  0  1  0  0  0  0  0  0  0  0
    3.5751   -2.0844    0.0781 H   0  0  0  1  0  0  0  0  0  0  0  0
    4.6394    0.3924   -0.5241 H   0  0  0  1  0  0  0  0  0  0  0  0
    4.3071    0.6673   -2.8896 H   0  0  0  1  0  0  0  0  0  0  0  0
    2.7063    0.2568   -2.3212 H   0  0  0  1  0  0  0  0  0  0  0  0
    3.9019   -1.1663   -4.2714 H   0  0  0  1  0  0  0  0  0  0  0  0
    2.8486   -1.9329   -3.1065 H   0  0  0  1  0  0  0  0  0  0  0  0
    4.6339   -3.1478   -2.3732 H   0  0  0  1  0  0  0  0  0  0  0  0
    5.7202   -2.0375   -0.6658 H   0  0  0  1  0  0  0  0  0  0  0  0
    6.3140   -0.7901   -1.7362 H   0  0  0  1  0  0  0  0  0  0  0  0
    6.6794   -2.9291   -3.3945 H   0  0  0  1  0  0  0  0  0  0  0  0
    6.4225   -1.4118   -3.8331 H   0  0  0  1  0  0  0  0  0  0  0  0
  1  2  4  0  0  0  0
  1  6  4  0  0  0  0
  1 18  1  0  0  0  0
  2  3  4  0  0  0  0
  3  4  4  0  0  0  0
  3 25  1  0  0  0  0
  4  5  4  0  0  0  0
  4  7  4  0  0  0  0
  5  6  4  0  0  0  0
  5  9  4  0  0  0  0
  7  8  4  0  0  0  0
  7 26  1  0  0  0  0
  8  9  4  0  0  0  0
  9 10  1  0  0  0  0
 10 11  4  0  0  0  0
 10 15  4  0  0  0  0
 11 12  4  0  0  0  0
 11 27  1  0  0  0  0
 12 13  4  0  0  0  0
 12 28  1  0  0  0  0
 13 14  4  0  0  0  0
 13 16  1  0  0  0  0
 14 15  4  0  0  0  0
 14 29  1  0  0  0  0
 15 30  1  0  0  0  0
 16 17  1  0  0  0  0
 17 31  1  0  0  0  0
 17 32  1  0  0  0  0
 17 33  1  0  0  0  0
 18 19  1  0  0  0  0
 18 34  1  0  0  0  0
 19 20  1  0  0  0  0
 19 23  1  0  0  0  0
 19 35  1  0  0  0  0
 20 21  1  0  0  0  0
 20 36  1  0  0  0  0
 20 37  1  0  0  0  0
 21 22  1  0  0  0  0
 21 38  1  0  0  0  0
 21 39  1  0  0  0  0
 22 23  1  0  0  0  0
 22 24  1  0  0  0  0
 22 40  1  0  0  0  0
 23 41  1  0  0  0  0
 23 42  1  0  0  0  0
 24 43  1  0  0  0  0
 24 44  1  0  0  0  0
M  END
> <ConfClashScore>
0 

> <ConfOneFourInteractionScore>
-0.985399 

> <ConfScore>
-0.0802511 

> <ConfScorePBest>
0.00453953 

> <ConfTolerance>
0.276149 

$$$$
c22.sdf
 OpenBabel04162418103D

 44 47  0  0  0  0  0  0  0  0999 V2000
    2.4015   -0.7976    0.6501 C   0  0  0  1  0  0  0  0  0  0  0  0
    2.5531    0.5078    0.8950 N   0  0  0  1  0  0  0  0  0  0  0  0
    1.7541    1.0760    1.8202 C   0  0  0  1  0  0  0  0  0  0  0  0
    0.7973    0.2595    2.4909 C   0  0  0  1  0  0  0  0  0  0  0  0
    0.7813   -1.0779    2.1146 C   0  0  0  1  0  0  0  0  0  0  0  0
    1.5652   -1.6744    1.1851 N   0  0  0  1  0  0  0  0  0  0  0  0
   -0.1983    0.3500    3.4845 C   0  0  0  1  0  0  0  0  0  0  0  0
   -0.7791   -0.8077    3.7003 N   0  0  0  1  0  0  0  0  0  0  0  0
   -0.1719   -1.6914    2.8518 N   0  0  0  1  0  0  0  0  0  0  0  0
   -0.4964   -3.0599    2.7580 C   0  0  0  1  0  0  0  0  0  0  0  0
   -0.7865   -3.5649    1.5046 C   0  0  0  1  0  0  0  0  0  0  0  0
   -1.1068   -4.9052    1.3547 C   0  0  0  1  0  0  0  0  0  0  0  0
   -1.1414   -5.7354    2.4591 C   0  0  0  1  0  0  0  0  0  0  0  0
   -0.8504   -5.2287    3.7162 C   0  0  0  1  0  0  0  0  0  0  0  0
   -0.5309   -3.8924    3.8659 C   0  0  0  1  0  0  0  0  0  0  0  0
   -1.4706   -7.0179    2.1914 O   0  0  0  1  0  0  0  0  0  0  0  0
   -1.5551   -7.9656    3.2672 C   0  0  0  1  0  0  0  0  0  0  0  0
    3.2273   -1.2991   -0.2858 N   0  0  0  1  0  0  0  0  0  0  0  0
    4.2478   -0.5099   -0.9832 C   0  0  0  1  0  0  0  0  0  0  0  0
    3.7449   -0.0235   -2.3486 C   0  0  0  1  0  0  0  0  0  0  0  0
    3.8472   -1.2438   -3.2552 C   0  0  0  1  0  0  0  0  0  0  0  0
    5.0085   -2.0718   -2.6928 C   0  0  0  1  0  0  0  0  0  0  0  0
    5.4421   -1.3757   -1.3931 C   0  0  0  1  0  0  0  0  0  0  0  0
    6.1326   -2.1023   -3.6588 N   0  0  0  1  0  0  0  0  0  0  0  0
    1.8342    2.0893    2.0403 H   0  0  0  1  0  0  0  0  0  0  0  0
   -0.4432    1.2275    3.9861 H   0  0  0  1  0  0  0  0  0  0  0  0
   -0.7645   -2.9394    0.6740 H   0  0  0  1  0  0  0  0  0  0  0  0
   -1.3212   -5.2861    0.4110 H   0  0  0  1  0  0  0  0  0  0  0  0
   -0.8724   -5.8542    4.5468 H   0  0  0  1  0  0  0  0  0  0  0  0
   -0.3165   -3.5114    4.8095 H   0  0  0  1  0  0  0  0  0  0  0  0
   -2.3473   -7.6847    3.9292 H   0  0  0  1  0  0  0  0  0  0  0  0
   -0.6297   -7.9786    3.8041 H   0  0  0  1  0  0  0  0  0  0  0  0
   -1.7512   -8.9395    2.8697 H   0  0  0  1  0  0  0  0  0  0  0  0
    3.1420   -2.2480   -0.5152 H   0  0  0  1  0  0  0  0  0  0  0  0
    4.5516    0.3082   -0.3640 H   0  0  0  1  0  0  0  0  0  0  0  0
    4.3595    0.7717   -2.7156 H   0  0  0  1  0  0  0  0  0  0  0  0
    2.7309    0.3113   -2.2798 H   0  0  0  1  0  0  0  0  0  0  0  0
    4.0531   -0.9459   -4.2621 H   0  0  0  1  0  0  0  0  0  0  0  0
    2.9381   -1.8074   -3.2283 H   0  0  0  1  0  0  0  0  0  0  0  0
    4.6861   -3.0714   -2.4883 H   0  0  0  1  0  0  0  0  0  0  0  0
    6.3055   -0.7671   -1.5636 H   0  0  0  1  0  0  0  0  0  0  0  0
    5.6589   -2.0988   -0.6347 H   0  0  0  1  0  0  0  0  0  0  0  0
    5.8448   -2.5499   -4.4817 H   0  0  0  1  0  0  0  0  0  0  0  0
    6.8861   -2.5917   -3.2675 H   0  0  0  1  0  0  0  0  0  0  0  0
  1  2  4  0  0  0  0
  1  6  4  0  0  0  0
  1 18  1  0  0  0  0
  2  3  4  0  0  0  0
  3  4  4  0  0  0  0
  3 25  1  0  0  0  0
  4  5  4  0  0  0  0
  4  7  4  0  0  0  0
  5  6  4  0  0  0  0
  5  9  4  0  0  0  0
  7  8  4  0  0  0  0
  7 26  1  0  0  0  0
  8  9  4  0  0  0  0
  9 10  1  0  0  0  0
 10 11  4  0  0  0  0
 10 15  4  0  0  0  0
 11 12  4  0  0  0  0
 11 27  1  0  0  0  0
 12 13  4  0  0  0  0
 12 28  1  0  0  0  0
 13 14  4  0  0  0  0
 13 16  1  0  0  0  0
 14 15  4  0  0  0  0
 14 29  1  0  0  0  0
 15 30  1  0  0  0  0
 16 17  1  0  0  0  0
 17 31  1  0  0  0  0
 17 32  1  0  0  0  0
 17 33  1  0  0  0  0
 18 19  1  0  0  0  0
 18 34  1  0  0  0  0
 19 20  1  0  0  0  0
 19 23  1  0  0  0  0
 19 35  1  0  0  0  0
 20 21  1  0  0  0  0
 20 36  1  0  0  0  0
 20 37  1  0  0  0  0
 21 22  1  0  0  0  0
 21 38  1  0  0  0  0
 21 39  1  0  0  0  0
 22 23  1  0  0  0  0
 22 24  1  0  0  0  0
 22 40  1  0  0  0  0
 23 41  1  0  0  0  0
 23 42  1  0  0  0  0
 24 43  1  0  0  0  0
 24 44  1  0  0  0  0
M  END
> <ConfClashScore>
0 

> <ConfOneFourInteractionScore>
-0.984337 

> <ConfScore>
-0.0794146 

> <ConfScorePBest>
0.00452621 

> <ConfTolerance>
0.29785 

$$$$
c22.sdf
 OpenBabel04162418103D

 44 47  0  0  0  0  0  0  0  0999 V2000
    3.5209   -1.1207    1.2933 C   0  0  0  1  0  0  0  0  0  0  0  0
    4.2381   -0.0723    1.7100 N   0  0  0  1  0  0  0  0  0  0  0  0
    4.2646    0.1923    3.0316 C   0  0  0  1  0  0  0  0  0  0  0  0
    3.5352   -0.6576    3.9133 C   0  0  0  1  0  0  0  0  0  0  0  0
    2.8495   -1.7034    3.3077 C   0  0  0  1  0  0  0  0  0  0  0  0
    2.7987   -1.9892    1.9849 N   0  0  0  1  0  0  0  0  0  0  0  0
    3.2645   -0.8178    5.2873 C   0  0  0  1  0  0  0  0  0  0  0  0
    2.4861   -1.8507    5.5142 N   0  0  0  1  0  0  0  0  0  0  0  0
    2.2297   -2.3987    4.2880 N   0  0  0  1  0  0  0  0  0  0  0  0
    1.4179   -3.5486    4.0720 C   0  0  0  1  0  0  0  0  0  0  0  0
    1.2638   -4.4843    5.0773 C   0  0  0  1  0  0  0  0  0  0  0  0
    0.4693   -5.6009    4.8689 C   0  0  0  1  0  0  0  0  0  0  0  0
   -0.1644   -5.7813    3.6539 C   0  0  0  1  0  0  0  0  0  0  0  0
   -0.0098   -4.8427    2.6456 C   0  0  0  1  0  0  0  0  0  0  0  0
    0.7824   -3.7293    2.8534 C   0  0  0  1  0  0  0  0  0  0  0  0
   -1.0224   -6.8232    3.5435 O   0  0  0  1  0  0  0  0  0  0  0  0
   -1.3259   -7.5532    4.7425 C   0  0  0  1  0  0  0  0  0  0  0  0
    3.5349   -1.3262   -0.0410 N   0  0  0  1  0  0  0  0  0  0  0  0
    4.2787   -0.4989   -0.9828 C   0  0  0  1  0  0  0  0  0  0  0  0
    3.4301   -0.2233   -2.2259 C   0  0  0  1  0  0  0  0  0  0  0  0
    4.1043   -0.9704   -3.3685 C   0  0  0  1  0  0  0  0  0  0  0  0
    5.0050   -2.0178   -2.7280 C   0  0  0  1  0  0  0  0  0  0  0  0
    5.5582   -1.2536   -1.4675 C   0  0  0  1  0  0  0  0  0  0  0  0
    6.1116   -2.4162   -3.6485 N   0  0  0  1  0  0  0  0  0  0  0  0
    4.8061    1.0000    3.4003 H   0  0  0  1  0  0  0  0  0  0  0  0
    3.6363   -0.1935    6.0313 H   0  0  0  1  0  0  0  0  0  0  0  0
    1.7439   -4.3507    5.9902 H   0  0  0  1  0  0  0  0  0  0  0  0
    0.3501   -6.3030    5.6268 H   0  0  0  1  0  0  0  0  0  0  0  0
   -0.4899   -4.9762    1.7328 H   0  0  0  1  0  0  0  0  0  0  0  0
    0.9016   -3.0271    2.0955 H   0  0  0  1  0  0  0  0  0  0  0  0
   -0.4277   -7.9787    5.1387 H   0  0  0  1  0  0  0  0  0  0  0  0
   -2.0215   -8.3345    4.5176 H   0  0  0  1  0  0  0  0  0  0  0  0
   -1.7548   -6.8901    5.4645 H   0  0  0  1  0  0  0  0  0  0  0  0
    3.0142   -2.0760   -0.3975 H   0  0  0  1  0  0  0  0  0  0  0  0
    4.5510    0.4222   -0.5114 H   0  0  0  1  0  0  0  0  0  0  0  0
    2.4331   -0.5846   -2.0828 H   0  0  0  1  0  0  0  0  0  0  0  0
    3.4035    0.8262   -2.4325 H   0  0  0  1  0  0  0  0  0  0  0  0
    4.6861   -0.2944   -3.9597 H   0  0  0  1  0  0  0  0  0  0  0  0
    3.3691   -1.4429   -3.9859 H   0  0  0  1  0  0  0  0  0  0  0  0
    4.4482   -2.8856   -2.4421 H   0  0  0  1  0  0  0  0  0  0  0  0
    6.3382   -0.5714   -1.7340 H   0  0  0  1  0  0  0  0  0  0  0  0
    5.9173   -1.9337   -0.7235 H   0  0  0  1  0  0  0  0  0  0  0  0
    5.7431   -2.9190   -4.4046 H   0  0  0  1  0  0  0  0  0  0  0  0
    6.7526   -2.9776   -3.1645 H   0  0  0  1  0  0  0  0  0  0  0  0
  1  2  4  0  0  0  0
  1  6  4  0  0  0  0
  1 18  1  0  0  0  0
  2  3  4  0  0  0  0
  3  4  4  0  0  0  0
  3 25  1  0  0  0  0
  4  5  4  0  0  0  0
  4  7  4  0  0  0  0
  5  6  4  0  0  0  0
  5  9  4  0  0  0  0
  7  8  4  0  0  0  0
  7 26  1  0  0  0  0
  8  9  4  0  0  0  0
  9 10  1  0  0  0  0
 10 11  4  0  0  0  0
 10 15  4  0  0  0  0
 11 12  4  0  0  0  0
 11 27  1  0  0  0  0
 12 13  4  0  0  0  0
 12 28  1  0  0  0  0
 13 14  4  0  0  0  0
 13 16  1  0  0  0  0
 14 15  4  0  0  0  0
 14 29  1  0  0  0  0
 15 30  1  0  0  0  0
 16 17  1  0  0  0  0
 17 31  1  0  0  0  0
 17 32  1  0  0  0  0
 17 33  1  0  0  0  0
 18 19  1  0  0  0  0
 18 34  1  0  0  0  0
 19 20  1  0  0  0  0
 19 23  1  0  0  0  0
 19 35  1  0  0  0  0
 20 21  1  0  0  0  0
 20 36  1  0  0  0  0
 20 37  1  0  0  0  0
 21 22  1  0  0  0  0
 21 38  1  0  0  0  0
 21 39  1  0  0  0  0
 22 23  1  0  0  0  0
 22 24  1  0  0  0  0
 22 40  1  0  0  0  0
 23 41  1  0  0  0  0
 23 42  1  0  0  0  0
 24 43  1  0  0  0  0
 24 44  1  0  0  0  0
M  END
> <ConfClashScore>
0 

> <ConfOneFourInteractionScore>
-0.984337 

> <ConfScore>
-0.0783484 

> <ConfScorePBest>
0.00451288 

> <ConfTolerance>
0.265285 

$$$$
c22.sdf
 OpenBabel04162418103D

 44 47  0  0  0  0  0  0  0  0999 V2000
    3.7426   -1.2131    1.3361 C   0  0  0  1  0  0  0  0  0  0  0  0
    2.9828   -1.9745    2.1299 N   0  0  0  1  0  0  0  0  0  0  0  0
    3.1875   -1.9042    3.4604 C   0  0  0  1  0  0  0  0  0  0  0  0
    4.1943   -1.0225    3.9512 C   0  0  0  1  0  0  0  0  0  0  0  0
    4.8848   -0.3028    2.9837 C   0  0  0  1  0  0  0  0  0  0  0  0
    4.7064   -0.3578    1.6424 N   0  0  0  1  0  0  0  0  0  0  0  0
    4.7582   -0.5918    5.1691 C   0  0  0  1  0  0  0  0  0  0  0  0
    5.7055    0.2976    4.9808 N   0  0  0  1  0  0  0  0  0  0  0  0
    5.7833    0.4762    3.6273 N   0  0  0  1  0  0  0  0  0  0  0  0
    6.6899    1.3645    2.9815 C   0  0  0  1  0  0  0  0  0  0  0  0
    7.0829    1.1237    1.6785 C   0  0  0  1  0  0  0  0  0  0  0  0
    7.9612    1.9913    1.0482 C   0  0  0  1  0  0  0  0  0  0  0  0
    8.4481    3.0940    1.7243 C   0  0  0  1  0  0  0  0  0  0  0  0
    8.0539    3.3354    3.0312 C   0  0  0  1  0  0  0  0  0  0  0  0
    7.1781    2.4704    3.6598 C   0  0  0  1  0  0  0  0  0  0  0  0
    9.2967    3.8362    0.9740 O   0  0  0  1  0  0  0  0  0  0  0  0
    9.8528    5.0125    1.5821 C   0  0  0  1  0  0  0  0  0  0  0  0
    3.4814   -1.3379   -0.0161 N   0  0  0  1  0  0  0  0  0  0  0  0
    4.2418   -0.5438   -0.9824 C   0  0  0  1  0  0  0  0  0  0  0  0
    3.3923   -0.2693   -2.2304 C   0  0  0  1  0  0  0  0  0  0  0  0
    4.1688   -0.8871   -3.3966 C   0  0  0  1  0  0  0  0  0  0  0  0
    5.0175   -1.9889   -2.7530 C   0  0  0  1  0  0  0  0  0  0  0  0
    5.4693   -1.3254   -1.4625 C   0  0  0  1  0  0  0  0  0  0  0  0
    6.1829   -2.3494   -3.6147 N   0  0  0  1  0  0  0  0  0  0  0  0
    2.6225   -2.4815    4.1155 H   0  0  0  1  0  0  0  0  0  0  0  0
    4.4599   -0.9368    6.1038 H   0  0  0  1  0  0  0  0  0  0  0  0
    6.7197    0.2917    1.1711 H   0  0  0  1  0  0  0  0  0  0  0  0
    8.2539    1.8123    0.0664 H   0  0  0  1  0  0  0  0  0  0  0  0
    8.4170    4.1673    3.5386 H   0  0  0  1  0  0  0  0  0  0  0  0
    6.8855    2.6493    4.6416 H   0  0  0  1  0  0  0  0  0  0  0  0
   10.6039    5.4248    0.9412 H   0  0  0  1  0  0  0  0  0  0  0  0
   10.2903    4.7540    2.5237 H   0  0  0  1  0  0  0  0  0  0  0  0
    9.0784    5.7350    1.7343 H   0  0  0  1  0  0  0  0  0  0  0  0
    2.7882   -1.9570   -0.3270 H   0  0  0  1  0  0  0  0  0  0  0  0
    4.5431    0.3774   -0.5292 H   0  0  0  1  0  0  0  0  0  0  0  0
    2.4304   -0.7285   -2.1366 H   0  0  0  1  0  0  0  0  0  0  0  0
    3.2724    0.7839   -2.3770 H   0  0  0  1  0  0  0  0  0  0  0  0
    3.4980   -1.3009   -4.1203 H   0  0  0  1  0  0  0  0  0  0  0  0
    4.7925   -0.1548   -3.8654 H   0  0  0  1  0  0  0  0  0  0  0  0
    4.4343   -2.8642   -2.5566 H   0  0  0  1  0  0  0  0  0  0  0  0
    6.2908   -0.6645   -1.6447 H   0  0  0  1  0  0  0  0  0  0  0  0
    5.7559   -2.0605   -0.7397 H   0  0  0  1  0  0  0  0  0  0  0  0
    5.8722   -2.8722   -4.3832 H   0  0  0  1  0  0  0  0  0  0  0  0
    6.8213   -2.8810   -3.0948 H   0  0  0  1  0  0  0  0  0  0  0  0
  1  2  4  0  0  0  0
  1  6  4  0  0  0  0
  1 18  1  0  0  0  0
  2  3  4  0  0  0  0
  3  4  4  0  0  0  0
  3 25  1  0  0  0  0
  4  5  4  0  0  0  0
  4  7  4  0  0  0  0
  5  6  4  0  0  0  0
  5  9  4  0  0  0  0
  7  8  4  0  0  0  0
  7 26  1  0  0  0  0
  8  9  4  0  0  0  0
  9 10  1  0  0  0  0
 10 11  4  0  0  0  0
 10 15  4  0  0  0  0
 11 12  4  0  0  0  0
 11 27  1  0  0  0  0
 12 13  4  0  0  0  0
 12 28  1  0  0  0  0
 13 14  4  0  0  0  0
 13 16  1  0  0  0  0
 14 15  4  0  0  0  0
 14 29  1  0  0  0  0
 15 30  1  0  0  0  0
 16 17  1  0  0  0  0
 17 31  1  0  0  0  0
 17 32  1  0  0  0  0
 17 33  1  0  0  0  0
 18 19  1  0  0  0  0
 18 34  1  0  0  0  0
 19 20  1  0  0  0  0
 19 23  1  0  0  0  0
 19 35  1  0  0  0  0
 20 21  1  0  0  0  0
 20 36  1  0  0  0  0
 20 37  1  0  0  0  0
 21 22  1  0  0  0  0
 21 38  1  0  0  0  0
 21 39  1  0  0  0  0
 22 23  1  0  0  0  0
 22 24  1  0  0  0  0
 22 40  1  0  0  0  0
 23 41  1  0  0  0  0
 23 42  1  0  0  0  0
 24 43  1  0  0  0  0
 24 44  1  0  0  0  0
M  END
> <ConfClashScore>
0 

> <ConfOneFourInteractionScore>
-0.984337 

> <ConfScore>
-0.0783484 

> <ConfScorePBest>
0.00449955 

> <ConfTolerance>
0.26265 

$$$$
c22.sdf
 OpenBabel04162418103D

 44 47  0  0  0  0  0  0  0  0999 V2000
    4.9648    0.1025    1.1435 C   0  0  0  1  0  0  0  0  0  0  0  0
    6.1330   -0.5301    0.9945 N   0  0  0  1  0  0  0  0  0  0  0  0
    6.9024   -0.7058    2.0873 C   0  0  0  1  0  0  0  0  0  0  0  0
    6.4315   -0.2159    3.3404 C   0  0  0  1  0  0  0  0  0  0  0  0
    5.1924    0.4121    3.3115 C   0  0  0  1  0  0  0  0  0  0  0  0
    4.4016    0.6093    2.2299 N   0  0  0  1  0  0  0  0  0  0  0  0
    6.8150   -0.1594    4.6955 C   0  0  0  1  0  0  0  0  0  0  0  0
    5.9133    0.4464    5.4332 N   0  0  0  1  0  0  0  0  0  0  0  0
    4.9087    0.7998    4.5755 N   0  0  0  1  0  0  0  0  0  0  0  0
    3.7209    1.4856    4.9623 C   0  0  0  1  0  0  0  0  0  0  0  0
    3.7958    2.7924    5.4060 C   0  0  0  1  0  0  0  0  0  0  0  0
    2.6354    3.4954    5.6899 C   0  0  0  1  0  0  0  0  0  0  0  0
    1.4037    2.8880    5.5345 C   0  0  0  1  0  0  0  0  0  0  0  0
    1.3287    1.5773    5.0895 C   0  0  0  1  0  0  0  0  0  0  0  0
    2.4856    0.8762    4.8063 C   0  0  0  1  0  0  0  0  0  0  0  0
    0.1862    3.4313    5.7720 O   0  0  0  1  0  0  0  0  0  0  0  0
    0.1544    4.7768    6.2640 C   0  0  0  1  0  0  0  0  0  0  0  0
    4.2468    0.2475    0.0092 N   0  0  0  1  0  0  0  0  0  0  0  0
    4.6773   -0.2600   -1.3066 C   0  0  0  1  0  0  0  0  0  0  0  0
    3.5051   -0.3348   -2.2888 C   0  0  0  1  0  0  0  0  0  0  0  0
    3.9129   -1.3955   -3.3235 C   0  0  0  1  0  0  0  0  0  0  0  0
    5.0125   -2.2362   -2.6643 C   0  0  0  1  0  0  0  0  0  0  0  0
    5.1004   -1.7327   -1.2290 C   0  0  0  1  0  0  0  0  0  0  0  0
    6.3162   -2.0376   -3.3691 N   0  0  0  1  0  0  0  0  0  0  0  0
    7.8207   -1.1889    2.0177 H   0  0  0  1  0  0  0  0  0  0  0  0
    7.7046   -0.5502    5.0663 H   0  0  0  1  0  0  0  0  0  0  0  0
    4.7228    3.2482    5.5268 H   0  0  0  1  0  0  0  0  0  0  0  0
    2.6916    4.4800    6.0200 H   0  0  0  1  0  0  0  0  0  0  0  0
    0.4017    1.1214    4.9686 H   0  0  0  1  0  0  0  0  0  0  0  0
    2.4295   -0.1085    4.4763 H   0  0  0  1  0  0  0  0  0  0  0  0
    0.5133    4.7971    7.2718 H   0  0  0  1  0  0  0  0  0  0  0  0
   -0.8507    5.1428    6.2362 H   0  0  0  1  0  0  0  0  0  0  0  0
    0.7767    5.3951    5.6514 H   0  0  0  1  0  0  0  0  0  0  0  0
    3.3888    0.7179    0.0637 H   0  0  0  1  0  0  0  0  0  0  0  0
    5.4668    0.3546   -1.6857 H   0  0  0  1  0  0  0  0  0  0  0  0
    3.3520    0.6121   -2.7628 H   0  0  0  1  0  0  0  0  0  0  0  0
    2.6098   -0.6297   -1.7824 H   0  0  0  1  0  0  0  0  0  0  0  0
    3.0745   -2.0117   -3.5730 H   0  0  0  1  0  0  0  0  0  0  0  0
    4.2865   -0.9251   -4.2090 H   0  0  0  1  0  0  0  0  0  0  0  0
    4.7516   -3.2737   -2.6817 H   0  0  0  1  0  0  0  0  0  0  0  0
    6.1010   -1.8187   -0.8596 H   0  0  0  1  0  0  0  0  0  0  0  0
    4.4371   -2.2829   -0.5949 H   0  0  0  1  0  0  0  0  0  0  0  0
    6.6094   -1.1089   -3.2592 H   0  0  0  1  0  0  0  0  0  0  0  0
    6.2050   -2.2340   -4.3228 H   0  0  0  1  0  0  0  0  0  0  0  0
  1  2  4  0  0  0  0
  1  6  4  0  0  0  0
  1 18  1  0  0  0  0
  2  3  4  0  0  0  0
  3  4  4  0  0  0  0
  3 25  1  0  0  0  0
  4  5  4  0  0  0  0
  4  7  4  0  0  0  0
  5  6  4  0  0  0  0
  5  9  4  0  0  0  0
  7  8  4  0  0  0  0
  7 26  1  0  0  0  0
  8  9  4  0  0  0  0
  9 10  1  0  0  0  0
 10 11  4  0  0  0  0
 10 15  4  0  0  0  0
 11 12  4  0  0  0  0
 11 27  1  0  0  0  0
 12 13  4  0  0  0  0
 12 28  1  0  0  0  0
 13 14  4  0  0  0  0
 13 16  1  0  0  0  0
 14 15  4  0  0  0  0
 14 29  1  0  0  0  0
 15 30  1  0  0  0  0
 16 17  1  0  0  0  0
 17 31  1  0  0  0  0
 17 32  1  0  0  0  0
 17 33  1  0  0  0  0
 18 19  1  0  0  0  0
 18 34  1  0  0  0  0
 19 20  1  0  0  0  0
 19 23  1  0  0  0  0
 19 35  1  0  0  0  0
 20 21  1  0  0  0  0
 20 36  1  0  0  0  0
 20 37  1  0  0  0  0
 21 22  1  0  0  0  0
 21 38  1  0  0  0  0
 21 39  1  0  0  0  0
 22 23  1  0  0  0  0
 22 24  1  0  0  0  0
 22 40  1  0  0  0  0
 23 41  1  0  0  0  0
 23 42  1  0  0  0  0
 24 43  1  0  0  0  0
 24 44  1  0  0  0  0
M  END
> <ConfClashScore>
0 

> <ConfOneFourInteractionScore>
-0.985399 

> <ConfScore>
-0.0780776 

> <ConfScorePBest>
0.00448622 

> <ConfTolerance>
0.258389 

$$$$
c22.sdf
 OpenBabel04162418103D

 44 47  0  0  0  0  0  0  0  0999 V2000
    2.9461    0.9557    0.0430 C   0  0  0  1  0  0  0  0  0  0  0  0
    2.9986    1.8568   -0.9431 N   0  0  0  1  0  0  0  0  0  0  0  0
    2.1535    2.9057   -0.8888 C   0  0  0  1  0  0  0  0  0  0  0  0
    1.2556    3.0031    0.2140 C   0  0  0  1  0  0  0  0  0  0  0  0
    1.3415    1.9796    1.1498 C   0  0  0  1  0  0  0  0  0  0  0  0
    2.1738    0.9117    1.1181 N   0  0  0  1  0  0  0  0  0  0  0  0
    0.2494    3.8501    0.7210 C   0  0  0  1  0  0  0  0  0  0  0  0
   -0.2451    3.3987    1.8505 N   0  0  0  1  0  0  0  0  0  0  0  0
    0.4317    2.2406    2.1155 N   0  0  0  1  0  0  0  0  0  0  0  0
    0.2082    1.4185    3.2567 C   0  0  0  1  0  0  0  0  0  0  0  0
   -1.0811    1.0834    3.6250 C   0  0  0  1  0  0  0  0  0  0  0  0
   -1.2983    0.2789    4.7327 C   0  0  0  1  0  0  0  0  0  0  0  0
   -0.2261   -0.1839    5.4719 C   0  0  0  1  0  0  0  0  0  0  0  0
    1.0670    0.1523    5.1023 C   0  0  0  1  0  0  0  0  0  0  0  0
    1.2838    0.9545    3.9979 C   0  0  0  1  0  0  0  0  0  0  0  0
   -0.3696   -0.9664    6.5637 O   0  0  0  1  0  0  0  0  0  0  0  0
   -1.6906   -1.4069    6.9555 C   0  0  0  1  0  0  0  0  0  0  0  0
    3.8131   -0.0659   -0.0751 N   0  0  0  1  0  0  0  0  0  0  0  0
    4.6201   -0.3105   -1.2579 C   0  0  0  1  0  0  0  0  0  0  0  0
    3.7492   -0.2451   -2.5179 C   0  0  0  1  0  0  0  0  0  0  0  0
    3.7445   -1.6613   -3.0799 C   0  0  0  1  0  0  0  0  0  0  0  0
    5.0922   -2.2551   -2.6497 C   0  0  0  1  0  0  0  0  0  0  0  0
    5.2092   -1.7294   -1.2165 C   0  0  0  1  0  0  0  0  0  0  0  0
    6.2169   -1.7516   -3.5144 N   0  0  0  1  0  0  0  0  0  0  0  0
    2.1565    3.6289   -1.6361 H   0  0  0  1  0  0  0  0  0  0  0  0
   -0.0634    4.7265    0.2566 H   0  0  0  1  0  0  0  0  0  0  0  0
   -1.8881    1.4349    3.0712 H   0  0  0  1  0  0  0  0  0  0  0  0
   -2.2682    0.0234    5.0075 H   0  0  0  1  0  0  0  0  0  0  0  0
    1.8741   -0.1992    5.6561 H   0  0  0  1  0  0  0  0  0  0  0  0
    2.2537    1.2100    3.7230 H   0  0  0  1  0  0  0  0  0  0  0  0
   -1.6162   -2.0360    7.8178 H   0  0  0  1  0  0  0  0  0  0  0  0
   -2.1365   -1.9550    6.1519 H   0  0  0  1  0  0  0  0  0  0  0  0
   -2.2963   -0.5557    7.1866 H   0  0  0  1  0  0  0  0  0  0  0  0
    3.9059   -0.6817    0.6816 H   0  0  0  1  0  0  0  0  0  0  0  0
    5.4046    0.4152   -1.3114 H   0  0  0  1  0  0  0  0  0  0  0  0
    2.7548    0.0625   -2.2701 H   0  0  0  1  0  0  0  0  0  0  0  0
    4.1679    0.4377   -3.2274 H   0  0  0  1  0  0  0  0  0  0  0  0
    2.9346   -2.2274   -2.6694 H   0  0  0  1  0  0  0  0  0  0  0  0
    3.6634   -1.6437   -4.1466 H   0  0  0  1  0  0  0  0  0  0  0  0
    5.0742   -3.3247   -2.6740 H   0  0  0  1  0  0  0  0  0  0  0  0
    6.2339   -1.7012   -0.9099 H   0  0  0  1  0  0  0  0  0  0  0  0
    4.6520   -2.3473   -0.5437 H   0  0  0  1  0  0  0  0  0  0  0  0
    6.3228   -0.7861   -3.3840 H   0  0  0  1  0  0  0  0  0  0  0  0
    6.0117   -1.9333   -4.4553 H   0  0  0  1  0  0  0  0  0  0  0  0
  1  2  4  0  0  0  0
  1  6  4  0  0  0  0
  1 18  1  0  0  0  0
  2  3  4  0  0  0  0
  3  4  4  0  0  0  0
  3 25  1  0  0  0  0
  4  5  4  0  0  0  0
  4  7  4  0  0  0  0
  5  6  4  0  0  0  0
  5  9  4  0  0  0  0
  7  8  4  0  0  0  0
  7 26  1  0  0  0  0
  8  9  4  0  0  0  0
  9 10  1  0  0  0  0
 10 11  4  0  0  0  0
 10 15  4  0  0  0  0
 11 12  4  0  0  0  0
 11 27  1  0  0  0  0
 12 13  4  0  0  0  0
 12 28  1  0  0  0  0
 13 14  4  0  0  0  0
 13 16  1  0  0  0  0
 14 15  4  0  0  0  0
 14 29  1  0  0  0  0
 15 30  1  0  0  0  0
 16 17  1  0  0  0  0
 17 31  1  0  0  0  0
 17 32  1  0  0  0  0
 17 33  1  0  0  0  0
 18 19  1  0  0  0  0
 18 34  1  0  0  0  0
 19 20  1  0  0  0  0
 19 23  1  0  0  0  0
 19 35  1  0  0  0  0
 20 21  1  0  0  0  0
 20 36  1  0  0  0  0
 20 37  1  0  0  0  0
 21 22  1  0  0  0  0
 21 38  1  0  0  0  0
 21 39  1  0  0  0  0
 22 23  1  0  0  0  0
 22 24  1  0  0  0  0
 22 40  1  0  0  0  0
 23 41  1  0  0  0  0
 23 42  1  0  0  0  0
 24 43  1  0  0  0  0
 24 44  1  0  0  0  0
M  END
> <ConfClashScore>
0 

> <ConfOneFourInteractionScore>
-0.985399 

> <ConfScore>
-0.0772487 

> <ConfScorePBest>
0.00447289 

> <ConfTolerance>
0.231899 

$$$$
c22.sdf
 OpenBabel04162418103D

 44 47  0  0  0  0  0  0  0  0999 V2000
    2.4628   -0.0320    0.4858 C   0  0  0  1  0  0  0  0  0  0  0  0
    2.8596    1.2436    0.4373 N   0  0  0  1  0  0  0  0  0  0  0  0
    2.1893    2.1446    1.1831 C   0  0  0  1  0  0  0  0  0  0  0  0
    1.1011    1.6931    1.9854 C   0  0  0  1  0  0  0  0  0  0  0  0
    0.8303    0.3319    1.9178 C   0  0  0  1  0  0  0  0  0  0  0  0
    1.4805   -0.5942    1.1737 N   0  0  0  1  0  0  0  0  0  0  0  0
    0.1482    2.1892    2.8979 C   0  0  0  1  0  0  0  0  0  0  0  0
   -0.6387    1.2387    3.3469 N   0  0  0  1  0  0  0  0  0  0  0  0
   -0.2156    0.0889    2.7397 N   0  0  0  1  0  0  0  0  0  0  0  0
   -0.7989   -1.1939    2.9455 C   0  0  0  1  0  0  0  0  0  0  0  0
   -1.4625   -1.4698    4.1260 C   0  0  0  1  0  0  0  0  0  0  0  0
   -2.0348   -2.7167    4.3240 C   0  0  0  1  0  0  0  0  0  0  0  0
   -1.9373   -3.6857    3.3433 C   0  0  0  1  0  0  0  0  0  0  0  0
   -1.2717   -3.4088    2.1593 C   0  0  0  1  0  0  0  0  0  0  0  0
   -0.7009   -2.1656    1.9617 C   0  0  0  1  0  0  0  0  0  0  0  0
   -2.4553   -4.9496    3.4262 O   0  0  0  1  0  0  0  0  0  0  0  0
   -2.9537   -5.2628    4.7362 C   0  0  0  1  0  0  0  0  0  0  0  0
    3.1820   -0.8886   -0.2953 N   0  0  0  1  0  0  0  0  0  0  0  0
    4.3186   -0.4281   -1.0995 C   0  0  0  1  0  0  0  0  0  0  0  0
    3.8771   -0.1046   -2.5173 C   0  0  0  1  0  0  0  0  0  0  0  0
    3.8110   -1.4967   -3.1550 C   0  0  0  1  0  0  0  0  0  0  0  0
    5.0344   -2.2320   -2.6005 C   0  0  0  1  0  0  0  0  0  0  0  0
    5.3530   -1.5464   -1.2651 C   0  0  0  1  0  0  0  0  0  0  0  0
    6.1900   -2.1069   -3.5411 N   0  0  0  1  0  0  0  0  0  0  0  0
    2.4606    3.1485    1.1734 H   0  0  0  1  0  0  0  0  0  0  0  0
    0.0769    3.1873    3.1813 H   0  0  0  1  0  0  0  0  0  0  0  0
   -1.5325   -0.7420    4.8656 H   0  0  0  1  0  0  0  0  0  0  0  0
   -2.5377   -2.9230    5.2107 H   0  0  0  1  0  0  0  0  0  0  0  0
   -1.2017   -4.1365    1.4197 H   0  0  0  1  0  0  0  0  0  0  0  0
   -0.1981   -1.9592    1.0751 H   0  0  0  1  0  0  0  0  0  0  0  0
   -2.1667   -5.1545    5.4531 H   0  0  0  1  0  0  0  0  0  0  0  0
   -3.3117   -6.2711    4.7496 H   0  0  0  1  0  0  0  0  0  0  0  0
   -3.7539   -4.5963    4.9819 H   0  0  0  1  0  0  0  0  0  0  0  0
    2.9327   -1.8360   -0.3196 H   0  0  0  1  0  0  0  0  0  0  0  0
    4.7599    0.4294   -0.6360 H   0  0  0  1  0  0  0  0  0  0  0  0
    4.5917    0.5173   -3.0147 H   0  0  0  1  0  0  0  0  0  0  0  0
    2.9197    0.3732   -2.5269 H   0  0  0  1  0  0  0  0  0  0  0  0
    3.8634   -1.4267   -4.2214 H   0  0  0  1  0  0  0  0  0  0  0  0
    2.9089   -1.9987   -2.8739 H   0  0  0  1  0  0  0  0  0  0  0  0
    4.8103   -3.2667   -2.4456 H   0  0  0  1  0  0  0  0  0  0  0  0
    5.2731   -2.2472   -0.4605 H   0  0  0  1  0  0  0  0  0  0  0  0
    6.3413   -1.1370   -1.2853 H   0  0  0  1  0  0  0  0  0  0  0  0
    6.5364   -1.1905   -3.5137 H   0  0  0  1  0  0  0  0  0  0  0  0
    5.8942   -2.3170   -4.4514 H   0  0  0  1  0  0  0  0  0  0  0  0
  1  2  4  0  0  0  0
  1  6  4  0  0  0  0
  1 18  1  0  0  0  0
  2  3  4  0  0  0  0
  3  4  4  0  0  0  0
  3 25  1  0  0  0  0
  4  5  4  0  0  0  0
  4  7  4  0  0  0  0
  5  6  4  0  0  0  0
  5  9  4  0  0  0  0
  7  8  4  0  0  0  0
  7 26  1  0  0  0  0
  8  9  4  0  0  0  0
  9 10  1  0  0  0  0
 10 11  4  0  0  0  0
 10 15  4  0  0  0  0
 11 12  4  0  0  0  0
 11 27  1  0  0  0  0
 12 13  4  0  0  0  0
 12 28  1  0  0  0  0
 13 14  4  0  0  0  0
 13 16  1  0  0  0  0
 14 15  4  0  0  0  0
 14 29  1  0  0  0  0
 15 30  1  0  0  0  0
 16 17  1  0  0  0  0
 17 31  1  0  0  0  0
 17 32  1  0  0  0  0
 17 33  1  0  0  0  0
 18 19  1  0  0  0  0
 18 34  1  0  0  0  0
 19 20  1  0  0  0  0
 19 23  1  0  0  0  0
 19 35  1  0  0  0  0
 20 21  1  0  0  0  0
 20 36  1  0  0  0  0
 20 37  1  0  0  0  0
 21 22  1  0  0  0  0
 21 38  1  0  0  0  0
 21 39  1  0  0  0  0
 22 23  1  0  0  0  0
 22 24  1  0  0  0  0
 22 40  1  0  0  0  0
 23 41  1  0  0  0  0
 23 42  1  0  0  0  0
 24 43  1  0  0  0  0
 24 44  1  0  0  0  0
M  END
> <ConfClashScore>
0 

> <ConfOneFourInteractionScore>
-0.984337 

> <ConfScore>
-0.0771399 

> <ConfScorePBest>
0.00445956 

> <ConfTolerance>
0.33712 

$$$$
c22.sdf
 OpenBabel04162418103D

 44 47  0  0  0  0  0  0  0  0999 V2000
    5.1219    0.7218    0.9042 C   0  0  0  1  0  0  0  0  0  0  0  0
    6.3862    0.8948    0.5056 N   0  0  0  1  0  0  0  0  0  0  0  0
    7.2624    1.4179    1.3864 C   0  0  0  1  0  0  0  0  0  0  0  0
    6.8003    1.7530    2.6926 C   0  0  0  1  0  0  0  0  0  0  0  0
    5.4558    1.5012    2.9362 C   0  0  0  1  0  0  0  0  0  0  0  0
    4.5517    0.9842    2.0704 N   0  0  0  1  0  0  0  0  0  0  0  0
    7.2791    2.2767    3.9105 C   0  0  0  1  0  0  0  0  0  0  0  0
    6.3314    2.3504    4.8163 N   0  0  0  1  0  0  0  0  0  0  0  0
    5.2026    1.8698    4.2123 N   0  0  0  1  0  0  0  0  0  0  0  0
    3.9298    1.7708    4.8432 C   0  0  0  1  0  0  0  0  0  0  0  0
    3.8142    1.1484    6.0718 C   0  0  0  1  0  0  0  0  0  0  0  0
    2.5761    1.0568    6.6884 C   0  0  0  1  0  0  0  0  0  0  0  0
    1.4564    1.5830    6.0723 C   0  0  0  1  0  0  0  0  0  0  0  0
    1.5725    2.2073    4.8400 C   0  0  0  1  0  0  0  0  0  0  0  0
    2.8069    2.2987    4.2251 C   0  0  0  1  0  0  0  0  0  0  0  0
    0.2215    1.5224    6.6168 O   0  0  0  1  0  0  0  0  0  0  0  0
    0.0627    1.0347    7.9694 C   0  0  0  1  0  0  0  0  0  0  0  0
    4.3051    0.2025   -0.0192 N   0  0  0  1  0  0  0  0  0  0  0  0
    4.6887   -0.2755   -1.3513 C   0  0  0  1  0  0  0  0  0  0  0  0
    3.4950   -0.2792   -2.3101 C   0  0  0  1  0  0  0  0  0  0  0  0
    3.8444   -1.3204   -3.3852 C   0  0  0  1  0  0  0  0  0  0  0  0
    4.9270   -2.2186   -2.7756 C   0  0  0  1  0  0  0  0  0  0  0  0
    5.0615   -1.7635   -1.3278 C   0  0  0  1  0  0  0  0  0  0  0  0
    6.2208   -2.0431   -3.5008 N   0  0  0  1  0  0  0  0  0  0  0  0
    8.2551    1.5739    1.1185 H   0  0  0  1  0  0  0  0  0  0  0  0
    8.2639    2.5693    4.0722 H   0  0  0  1  0  0  0  0  0  0  0  0
    4.6560    0.7488    6.5336 H   0  0  0  1  0  0  0  0  0  0  0  0
    2.4897    0.5920    7.6147 H   0  0  0  1  0  0  0  0  0  0  0  0
    0.7307    2.6068    4.3782 H   0  0  0  1  0  0  0  0  0  0  0  0
    2.8934    2.7635    3.2988 H   0  0  0  1  0  0  0  0  0  0  0  0
    0.6384    1.6407    8.6374 H   0  0  0  1  0  0  0  0  0  0  0  0
    0.4021    0.0215    8.0251 H   0  0  0  1  0  0  0  0  0  0  0  0
   -0.9698    1.0812    8.2461 H   0  0  0  1  0  0  0  0  0  0  0  0
    3.3567    0.1347    0.2181 H   0  0  0  1  0  0  0  0  0  0  0  0
    5.4915    0.3232   -1.7282 H   0  0  0  1  0  0  0  0  0  0  0  0
    3.3656    0.6868   -2.7516 H   0  0  0  1  0  0  0  0  0  0  0  0
    2.6003   -0.5588   -1.7940 H   0  0  0  1  0  0  0  0  0  0  0  0
    2.9800   -1.8993   -3.6354 H   0  0  0  1  0  0  0  0  0  0  0  0
    4.2162   -0.8357   -4.2637 H   0  0  0  1  0  0  0  0  0  0  0  0
    4.6296   -3.2455   -2.8191 H   0  0  0  1  0  0  0  0  0  0  0  0
    4.3923   -2.3102   -0.6968 H   0  0  0  1  0  0  0  0  0  0  0  0
    6.0657   -1.8954   -0.9826 H   0  0  0  1  0  0  0  0  0  0  0  0
    6.9256   -2.5425   -3.0380 H   0  0  0  1  0  0  0  0  0  0  0  0
    6.4558   -1.0920   -3.5237 H   0  0  0  1  0  0  0  0  0  0  0  0
  1  2  4  0  0  0  0
  1  6  4  0  0  0  0
  1 18  1  0  0  0  0
  2  3  4  0  0  0  0
  3  4  4  0  0  0  0
  3 25  1  0  0  0  0
  4  5  4  0  0  0  0
  4  7  4  0  0  0  0
  5  6  4  0  0  0  0
  5  9  4  0  0  0  0
  7  8  4  0  0  0  0
  7 26  1  0  0  0  0
  8  9  4  0  0  0  0
  9 10  1  0  0  0  0
 10 11  4  0  0  0  0
 10 15  4  0  0  0  0
 11 12  4  0  0  0  0
 11 27  1  0  0  0  0
 12 13  4  0  0  0  0
 12 28  1  0  0  0  0
 13 14  4  0  0  0  0
 13 16  1  0  0  0  0
 14 15  4  0  0  0  0
 14 29  1  0  0  0  0
 15 30  1  0  0  0  0
 16 17  1  0  0  0  0
 17 31  1  0  0  0  0
 17 32  1  0  0  0  0
 17 33  1  0  0  0  0
 18 19  1  0  0  0  0
 18 34  1  0  0  0  0
 19 20  1  0  0  0  0
 19 23  1  0  0  0  0
 19 35  1  0  0  0  0
 20 21  1  0  0  0  0
 20 36  1  0  0  0  0
 20 37  1  0  0  0  0
 21 22  1  0  0  0  0
 21 38  1  0  0  0  0
 21 39  1  0  0  0  0
 22 23  1  0  0  0  0
 22 24  1  0  0  0  0
 22 40  1  0  0  0  0
 23 41  1  0  0  0  0
 23 42  1  0  0  0  0
 24 43  1  0  0  0  0
 24 44  1  0  0  0  0
M  END
> <ConfClashScore>
0 

> <ConfOneFourInteractionScore>
-0.984337 

> <ConfScore>
-0.0769319 

> <ConfScorePBest>
0.00444624 

> <ConfTolerance>
0.245758 

$$$$
c22.sdf
 OpenBabel04162418103D

 44 47  0  0  0  0  0  0  0  0999 V2000
    2.9924    0.8067    0.4613 C   0  0  0  1  0  0  0  0  0  0  0  0
    2.6170    1.6121   -0.5374 N   0  0  0  1  0  0  0  0  0  0  0  0
    1.6430    2.5118   -0.2939 C   0  0  0  1  0  0  0  0  0  0  0  0
    1.0699    2.5621    1.0103 C   0  0  0  1  0  0  0  0  0  0  0  0
    1.5850    1.6541    1.9272 C   0  0  0  1  0  0  0  0  0  0  0  0
    2.5562    0.7356    1.7099 N   0  0  0  1  0  0  0  0  0  0  0  0
    0.1006    3.2781    1.7414 C   0  0  0  1  0  0  0  0  0  0  0  0
    0.0151    2.8563    2.9820 N   0  0  0  1  0  0  0  0  0  0  0  0
    0.9347    1.8508    3.0963 N   0  0  0  1  0  0  0  0  0  0  0  0
    1.1730    1.1170    4.2760 C   0  0  0  1  0  0  0  0  0  0  0  0
    0.2133    0.3035    4.8483 C   0  0  0  1  0  0  0  0  0  0  0  0
    0.5030   -0.4004    6.0068 C   0  0  0  1  0  0  0  0  0  0  0  0
    1.7496   -0.2848    6.5924 C   0  0  0  1  0  0  0  0  0  0  0  0
    2.7120    0.5311    6.0182 C   0  0  0  1  0  0  0  0  0  0  0  0
    2.4233    1.2331    4.8632 C   0  0  0  1  0  0  0  0  0  0  0  0
    2.0586   -1.0422    7.6716 O   0  0  0  1  0  0  0  0  0  0  0  0
    1.0326   -1.9084    8.1810 C   0  0  0  1  0  0  0  0  0  0  0  0
    3.9743   -0.0766    0.1464 N   0  0  0  1  0  0  0  0  0  0  0  0
    4.5139   -0.2499   -1.2031 C   0  0  0  1  0  0  0  0  0  0  0  0
    3.3790   -0.4024   -2.2193 C   0  0  0  1  0  0  0  0  0  0  0  0
    4.0897   -1.1486   -3.3559 C   0  0  0  1  0  0  0  0  0  0  0  0
    4.9653   -2.1789   -2.6535 C   0  0  0  1  0  0  0  0  0  0  0  0
    5.3184   -1.5559   -1.2979 C   0  0  0  1  0  0  0  0  0  0  0  0
    6.1864   -2.4367   -3.4360 N   0  0  0  1  0  0  0  0  0  0  0  0
    1.3164    3.1559   -1.0423 H   0  0  0  1  0  0  0  0  0  0  0  0
   -0.4770    4.0473    1.3462 H   0  0  0  1  0  0  0  0  0  0  0  0
   -0.7260    0.2196    4.4099 H   0  0  0  1  0  0  0  0  0  0  0  0
   -0.2177   -1.0156    6.4353 H   0  0  0  1  0  0  0  0  0  0  0  0
    3.6513    0.6150    6.4566 H   0  0  0  1  0  0  0  0  0  0  0  0
    3.1440    1.8483    4.4346 H   0  0  0  1  0  0  0  0  0  0  0  0
    0.7416   -2.6029    7.4208 H   0  0  0  1  0  0  0  0  0  0  0  0
    0.1852   -1.3239    8.4730 H   0  0  0  1  0  0  0  0  0  0  0  0
    1.4064   -2.4437    9.0286 H   0  0  0  1  0  0  0  0  0  0  0  0
    4.3436   -0.6309    0.8653 H   0  0  0  1  0  0  0  0  0  0  0  0
    5.1299    0.5889   -1.4519 H   0  0  0  1  0  0  0  0  0  0  0  0
    3.0141    0.5496   -2.5443 H   0  0  0  1  0  0  0  0  0  0  0  0
    2.5701   -0.9774   -1.8193 H   0  0  0  1  0  0  0  0  0  0  0  0
    4.6885   -0.4752   -3.9328 H   0  0  0  1  0  0  0  0  0  0  0  0
    3.3784   -1.6302   -3.9938 H   0  0  0  1  0  0  0  0  0  0  0  0
    4.4290   -3.0946   -2.5163 H   0  0  0  1  0  0  0  0  0  0  0  0
    6.3672   -1.3499   -1.2465 H   0  0  0  1  0  0  0  0  0  0  0  0
    5.0452   -2.2182   -0.5031 H   0  0  0  1  0  0  0  0  0  0  0  0
    6.6729   -1.5965   -3.5694 H   0  0  0  1  0  0  0  0  0  0  0  0
    5.9425   -2.8146   -4.3067 H   0  0  0  1  0  0  0  0  0  0  0  0
  1  2  4  0  0  0  0
  1  6  4  0  0  0  0
  1 18  1  0  0  0  0
  2  3  4  0  0  0  0
  3  4  4  0  0  0  0
  3 25  1  0  0  0  0
  4  5  4  0  0  0  0
  4  7  4  0  0  0  0
  5  6  4  0  0  0  0
  5  9  4  0  0  0  0
  7  8  4  0  0  0  0
  7 26  1  0  0  0  0
  8  9  4  0  0  0  0
  9 10  1  0  0  0  0
 10 11  4  0  0  0  0
 10 15  4  0  0  0  0
 11 12  4  0  0  0  0
 11 27  1  0  0  0  0
 12 13  4  0  0  0  0
 12 28  1  0  0  0  0
 13 14  4  0  0  0  0
 13 16  1  0  0  0  0
 14 15  4  0  0  0  0
 14 29  1  0  0  0  0
 15 30  1  0  0  0  0
 16 17  1  0  0  0  0
 17 31  1  0  0  0  0
 17 32  1  0  0  0  0
 17 33  1  0  0  0  0
 18 19  1  0  0  0  0
 18 34  1  0  0  0  0
 19 20  1  0  0  0  0
 19 23  1  0  0  0  0
 19 35  1  0  0  0  0
 20 21  1  0  0  0  0
 20 36  1  0  0  0  0
 20 37  1  0  0  0  0
 21 22  1  0  0  0  0
 21 38  1  0  0  0  0
 21 39  1  0  0  0  0
 22 23  1  0  0  0  0
 22 24  1  0  0  0  0
 22 40  1  0  0  0  0
 23 41  1  0  0  0  0
 23 42  1  0  0  0  0
 24 43  1  0  0  0  0
 24 44  1  0  0  0  0
M  END
> <ConfClashScore>
0 

> <ConfOneFourInteractionScore>
-0.985399 

> <ConfScore>
-0.076669 

> <ConfScorePBest>
0.00443291 

> <ConfTolerance>
0.280045 

$$$$
c22.sdf
 OpenBabel04162418103D

 44 47  0  0  0  0  0  0  0  0999 V2000
    3.0770    0.3082    1.0259 C   0  0  0  1  0  0  0  0  0  0  0  0
    2.4096   -0.2553    2.0379 N   0  0  0  1  0  0  0  0  0  0  0  0
    1.7916    0.5562    2.9193 C   0  0  0  1  0  0  0  0  0  0  0  0
    1.8760    1.9659    2.7256 C   0  0  0  1  0  0  0  0  0  0  0  0
    2.6071    2.3764    1.6176 C   0  0  0  1  0  0  0  0  0  0  0  0
    3.2436    1.5862    0.7206 N   0  0  0  1  0  0  0  0  0  0  0  0
    1.4281    3.1688    3.3080 C   0  0  0  1  0  0  0  0  0  0  0  0
    1.8421    4.2193    2.6378 N   0  0  0  1  0  0  0  0  0  0  0  0
    2.5720    3.7278    1.5912 N   0  0  0  1  0  0  0  0  0  0  0  0
    3.2037    4.5241    0.6145 C   0  0  0  1  0  0  0  0  0  0  0  0
    2.7089    5.7561    0.2306 C   0  0  0  1  0  0  0  0  0  0  0  0
    3.3735    6.5005   -0.7315 C   0  0  0  1  0  0  0  0  0  0  0  0
    4.5279    6.0085   -1.3107 C   0  0  0  1  0  0  0  0  0  0  0  0
    5.0241    4.7728   -0.9254 C   0  0  0  1  0  0  0  0  0  0  0  0
    4.3615    4.0304    0.0338 C   0  0  0  1  0  0  0  0  0  0  0  0
    5.1742    6.7335   -2.2543 O   0  0  0  1  0  0  0  0  0  0  0  0
    6.3249    6.1331   -2.8692 C   0  0  0  1  0  0  0  0  0  0  0  0
    3.6685   -0.5523    0.1922 N   0  0  0  1  0  0  0  0  0  0  0  0
    4.3579   -0.3686   -1.0884 C   0  0  0  1  0  0  0  0  0  0  0  0
    3.3696   -0.4629   -2.2441 C   0  0  0  1  0  0  0  0  0  0  0  0
    4.1834   -1.0490   -3.4052 C   0  0  0  1  0  0  0  0  0  0  0  0
    5.0109   -2.1165   -2.6842 C   0  0  0  1  0  0  0  0  0  0  0  0
    5.3659   -1.4999   -1.3220 C   0  0  0  1  0  0  0  0  0  0  0  0
    6.2071   -2.4170   -3.4297 N   0  0  0  1  0  0  0  0  0  0  0  0
    1.2641    0.1618    3.7241 H   0  0  0  1  0  0  0  0  0  0  0  0
    0.8407    3.2182    4.1648 H   0  0  0  1  0  0  0  0  0  0  0  0
    1.8380    6.1246    0.6634 H   0  0  0  1  0  0  0  0  0  0  0  0
    3.0034    7.4294   -1.0176 H   0  0  0  1  0  0  0  0  0  0  0  0
    5.8950    4.4043   -1.3583 H   0  0  0  1  0  0  0  0  0  0  0  0
    4.7316    3.1015    0.3199 H   0  0  0  1  0  0  0  0  0  0  0  0
    6.8635    5.5645   -2.1402 H   0  0  0  1  0  0  0  0  0  0  0  0
    6.9591    6.8996   -3.2631 H   0  0  0  1  0  0  0  0  0  0  0  0
    6.0093    5.4880   -3.6623 H   0  0  0  1  0  0  0  0  0  0  0  0
    3.6351   -1.4839    0.4944 H   0  0  0  1  0  0  0  0  0  0  0  0
    4.8522    0.5804   -1.0950 H   0  0  0  1  0  0  0  0  0  0  0  0
    2.5542   -1.1080   -1.9915 H   0  0  0  1  0  0  0  0  0  0  0  0
    2.9931    0.5058   -2.4985 H   0  0  0  1  0  0  0  0  0  0  0  0
    3.5479   -1.4826   -4.1489 H   0  0  0  1  0  0  0  0  0  0  0  0
    4.8090   -0.3083   -3.8577 H   0  0  0  1  0  0  0  0  0  0  0  0
    4.4376   -3.0104   -2.5533 H   0  0  0  1  0  0  0  0  0  0  0  0
    5.2833   -2.2355   -0.5493 H   0  0  0  1  0  0  0  0  0  0  0  0
    6.3625   -1.1108   -1.3396 H   0  0  0  1  0  0  0  0  0  0  0  0
    6.6972   -1.5878   -3.6101 H   0  0  0  1  0  0  0  0  0  0  0  0
    5.9646   -2.8439   -4.2779 H   0  0  0  1  0  0  0  0  0  0  0  0
  1  2  4  0  0  0  0
  1  6  4  0  0  0  0
  1 18  1  0  0  0  0
  2  3  4  0  0  0  0
  3  4  4  0  0  0  0
  3 25  1  0  0  0  0
  4  5  4  0  0  0  0
  4  7  4  0  0  0  0
  5  6  4  0  0  0  0
  5  9  4  0  0  0  0
  7  8  4  0  0  0  0
  7 26  1  0  0  0  0
  8  9  4  0  0  0  0
  9 10  1  0  0  0  0
 10 11  4  0  0  0  0
 10 15  4  0  0  0  0
 11 12  4  0  0  0  0
 11 27  1  0  0  0  0
 12 13  4  0  0  0  0
 12 28  1  0  0  0  0
 13 14  4  0  0  0  0
 13 16  1  0  0  0  0
 14 15  4  0  0  0  0
 14 29  1  0  0  0  0
 15 30  1  0  0  0  0
 16 17  1  0  0  0  0
 17 31  1  0  0  0  0
 17 32  1  0  0  0  0
 17 33  1  0  0  0  0
 18 19  1  0  0  0  0
 18 34  1  0  0  0  0
 19 20  1  0  0  0  0
 19 23  1  0  0  0  0
 19 35  1  0  0  0  0
 20 21  1  0  0  0  0
 20 36  1  0  0  0  0
 20 37  1  0  0  0  0
 21 22  1  0  0  0  0
 21 38  1  0  0  0  0
 21 39  1  0  0  0  0
 22 23  1  0  0  0  0
 22 24  1  0  0  0  0
 22 40  1  0  0  0  0
 23 41  1  0  0  0  0
 23 42  1  0  0  0  0
 24 43  1  0  0  0  0
 24 44  1  0  0  0  0
M  END
> <ConfClashScore>
0 

> <ConfOneFourInteractionScore>
-0.984337 

> <ConfScore>
-0.076248 

> <ConfScorePBest>
0.00441958 

> <ConfTolerance>
0.336573 

$$$$
c22.sdf
 OpenBabel04162418103D

 44 47  0  0  0  0  0  0  0  0999 V2000
    3.6740    1.3678    0.1701 C   0  0  0  1  0  0  0  0  0  0  0  0
    3.3503    1.6407    1.4381 N   0  0  0  1  0  0  0  0  0  0  0  0
    2.7780    2.8320    1.7036 C   0  0  0  1  0  0  0  0  0  0  0  0
    2.5433    3.7330    0.6243 C   0  0  0  1  0  0  0  0  0  0  0  0
    2.9385    3.2829   -0.6295 C   0  0  0  1  0  0  0  0  0  0  0  0
    3.5212    2.0967   -0.9252 N   0  0  0  1  0  0  0  0  0  0  0  0
    1.9965    5.0082    0.3762 C   0  0  0  1  0  0  0  0  0  0  0  0
    2.0513    5.3234   -0.8973 N   0  0  0  1  0  0  0  0  0  0  0  0
    2.6346    4.2545   -1.5194 N   0  0  0  1  0  0  0  0  0  0  0  0
    2.8857    4.1760   -2.9042 C   0  0  0  1  0  0  0  0  0  0  0  0
    2.0083    4.8253   -3.7520 C   0  0  0  1  0  0  0  0  0  0  0  0
    2.2113    4.7849   -5.1226 C   0  0  0  1  0  0  0  0  0  0  0  0
    3.2879    4.0908   -5.6418 C   0  0  0  1  0  0  0  0  0  0  0  0
    4.1677    3.4396   -4.7914 C   0  0  0  1  0  0  0  0  0  0  0  0
    3.9655    3.4798   -3.4247 C   0  0  0  1  0  0  0  0  0  0  0  0
    3.3798    4.1172   -6.9856 O   0  0  0  1  0  0  0  0  0  0  0  0
    4.6395    3.6507   -7.5223 C   0  0  0  1  0  0  0  0  0  0  0  0
    4.2521    0.1479   -0.0265 N   0  0  0  1  0  0  0  0  0  0  0  0
    4.6608   -0.3038   -1.3569 C   0  0  0  1  0  0  0  0  0  0  0  0
    3.4860   -0.2536   -2.3180 C   0  0  0  1  0  0  0  0  0  0  0  0
    3.8450   -1.3188   -3.3670 C   0  0  0  1  0  0  0  0  0  0  0  0
    4.9312   -2.2074   -2.7815 C   0  0  0  1  0  0  0  0  0  0  0  0
    5.0917   -1.7674   -1.3137 C   0  0  0  1  0  0  0  0  0  0  0  0
    6.2018   -2.0194   -3.5168 N   0  0  0  1  0  0  0  0  0  0  0  0
    2.5132    3.0885    2.6761 H   0  0  0  1  0  0  0  0  0  0  0  0
    1.5979    5.6249    1.1127 H   0  0  0  1  0  0  0  0  0  0  0  0
    1.1959    5.3442   -3.3616 H   0  0  0  1  0  0  0  0  0  0  0  0
    1.5534    5.2769   -5.7604 H   0  0  0  1  0  0  0  0  0  0  0  0
    4.9801    2.9207   -5.1817 H   0  0  0  1  0  0  0  0  0  0  0  0
    4.6233    2.9879   -2.7869 H   0  0  0  1  0  0  0  0  0  0  0  0
    4.6039    3.6771   -8.5914 H   0  0  0  1  0  0  0  0  0  0  0  0
    4.8160    2.6470   -7.1962 H   0  0  0  1  0  0  0  0  0  0  0  0
    5.4303    4.2830   -7.1763 H   0  0  0  1  0  0  0  0  0  0  0  0
    4.3973   -0.4412    0.7431 H   0  0  0  1  0  0  0  0  0  0  0  0
    5.4610    0.3110   -1.7126 H   0  0  0  1  0  0  0  0  0  0  0  0
    3.3992    0.7135   -2.7676 H   0  0  0  1  0  0  0  0  0  0  0  0
    2.5716   -0.4990   -1.8194 H   0  0  0  1  0  0  0  0  0  0  0  0
    2.9811   -1.9061   -3.5983 H   0  0  0  1  0  0  0  0  0  0  0  0
    4.2039   -0.8454   -4.2569 H   0  0  0  1  0  0  0  0  0  0  0  0
    4.6382   -3.2353   -2.8317 H   0  0  0  1  0  0  0  0  0  0  0  0
    4.4575   -2.3379   -0.6679 H   0  0  0  1  0  0  0  0  0  0  0  0
    6.1075   -1.8616   -0.9911 H   0  0  0  1  0  0  0  0  0  0  0  0
    6.8914   -2.5997   -3.1321 H   0  0  0  1  0  0  0  0  0  0  0  0
    6.4850   -1.0840   -3.4452 H   0  0  0  1  0  0  0  0  0  0  0  0
  1  2  4  0  0  0  0
  1  6  4  0  0  0  0
  1 18  1  0  0  0  0
  2  3  4  0  0  0  0
  3  4  4  0  0  0  0
  3 25  1  0  0  0  0
  4  5  4  0  0  0  0
  4  7  4  0  0  0  0
  5  6  4  0  0  0  0
  5  9  4  0  0  0  0
  7  8  4  0  0  0  0
  7 26  1  0  0  0  0
  8  9  4  0  0  0  0
  9 10  1  0  0  0  0
 10 11  4  0  0  0  0
 10 15  4  0  0  0  0
 11 12  4  0  0  0  0
 11 27  1  0  0  0  0
 12 13  4  0  0  0  0
 12 28  1  0  0  0  0
 13 14  4  0  0  0  0
 13 16  1  0  0  0  0
 14 15  4  0  0  0  0
 14 29  1  0  0  0  0
 15 30  1  0  0  0  0
 16 17  1  0  0  0  0
 17 31  1  0  0  0  0
 17 32  1  0  0  0  0
 17 33  1  0  0  0  0
 18 19  1  0  0  0  0
 18 34  1  0  0  0  0
 19 20  1  0  0  0  0
 19 23  1  0  0  0  0
 19 35  1  0  0  0  0
 20 21  1  0  0  0  0
 20 36  1  0  0  0  0
 20 37  1  0  0  0  0
 21 22  1  0  0  0  0
 21 38  1  0  0  0  0
 21 39  1  0  0  0  0
 22 23  1  0  0  0  0
 22 24  1  0  0  0  0
 22 40  1  0  0  0  0
 23 41  1  0  0  0  0
 23 42  1  0  0  0  0
 24 43  1  0  0  0  0
 24 44  1  0  0  0  0
M  END
> <ConfClashScore>
0 

> <ConfOneFourInteractionScore>
-0.985399 

> <ConfScore>
-0.075594 

> <ConfScorePBest>
0.00440625 

> <ConfTolerance>
0.254986 

$$$$
c22.sdf
 OpenBabel04162418103D

 44 47  0  0  0  0  0  0  0  0999 V2000
    4.2037    1.5601    0.3630 C   0  0  0  1  0  0  0  0  0  0  0  0
    3.5503    1.8201    1.4999 N   0  0  0  1  0  0  0  0  0  0  0  0
    3.5181    3.0957    1.9347 C   0  0  0  1  0  0  0  0  0  0  0  0
    4.1738    4.0978    1.1617 C   0  0  0  1  0  0  0  0  0  0  0  0
    4.7992    3.6494    0.0048 C   0  0  0  1  0  0  0  0  0  0  0  0
    4.8543    2.3759   -0.4527 N   0  0  0  1  0  0  0  0  0  0  0  0
    4.4089    5.4876    1.1640 C   0  0  0  1  0  0  0  0  0  0  0  0
    5.1129    5.8653    0.1220 N   0  0  0  1  0  0  0  0  0  0  0  0
    5.3540    4.7265   -0.5955 N   0  0  0  1  0  0  0  0  0  0  0  0
    6.0804    4.6816   -1.7947 C   0  0  0  1  0  0  0  0  0  0  0  0
    7.3982    4.2824   -1.6753 C   0  0  0  1  0  0  0  0  0  0  0  0
    8.2018    4.1994   -2.8017 C   0  0  0  1  0  0  0  0  0  0  0  0
    7.6869    4.5208   -4.0434 C   0  0  0  1  0  0  0  0  0  0  0  0
    6.3652    4.9211   -4.1630 C   0  0  0  1  0  0  0  0  0  0  0  0
    5.5638    5.0040   -3.0400 C   0  0  0  1  0  0  0  0  0  0  0  0
    8.3710    4.4828   -5.2034 O   0  0  0  1  0  0  0  0  0  0  0  0
    9.7598    4.0965   -5.0827 C   0  0  0  1  0  0  0  0  0  0  0  0
    4.1997    0.2680   -0.0111 N   0  0  0  1  0  0  0  0  0  0  0  0
    4.6805   -0.2705   -1.2865 C   0  0  0  1  0  0  0  0  0  0  0  0
    3.5813   -0.2592   -2.3400 C   0  0  0  1  0  0  0  0  0  0  0  0
    3.9520   -1.3246   -3.3627 C   0  0  0  1  0  0  0  0  0  0  0  0
    4.9591   -2.2436   -2.6682 C   0  0  0  1  0  0  0  0  0  0  0  0
    5.0122   -1.8052   -1.1694 C   0  0  0  1  0  0  0  0  0  0  0  0
    6.3205   -2.0945   -3.3013 N   0  0  0  1  0  0  0  0  0  0  0  0
    3.0249    3.3436    2.8162 H   0  0  0  1  0  0  0  0  0  0  0  0
    4.0662    6.1355    1.9019 H   0  0  0  1  0  0  0  0  0  0  0  0
    7.7868    4.0444   -0.7405 H   0  0  0  1  0  0  0  0  0  0  0  0
    9.1923    3.8951   -2.7124 H   0  0  0  1  0  0  0  0  0  0  0  0
    5.9766    5.1592   -5.0978 H   0  0  0  1  0  0  0  0  0  0  0  0
    4.5733    5.3083   -3.1292 H   0  0  0  1  0  0  0  0  0  0  0  0
    9.8208    3.0920   -4.7191 H   0  0  0  1  0  0  0  0  0  0  0  0
   10.2544    4.7539   -4.3986 H   0  0  0  1  0  0  0  0  0  0  0  0
   10.2314    4.1578   -6.0412 H   0  0  0  1  0  0  0  0  0  0  0  0
    3.8396   -0.3770    0.6329 H   0  0  0  1  0  0  0  0  0  0  0  0
    5.5342    0.2873   -1.6106 H   0  0  0  1  0  0  0  0  0  0  0  0
    3.5288    0.7010   -2.8091 H   0  0  0  1  0  0  0  0  0  0  0  0
    2.6374   -0.4898   -1.8917 H   0  0  0  1  0  0  0  0  0  0  0  0
    3.0838   -1.8777   -3.6545 H   0  0  0  1  0  0  0  0  0  0  0  0
    4.3946   -0.8730   -4.2259 H   0  0  0  1  0  0  0  0  0  0  0  0
    4.6403   -3.2623   -2.7427 H   0  0  0  1  0  0  0  0  0  0  0  0
    4.2797   -2.3208   -0.5842 H   0  0  0  1  0  0  0  0  0  0  0  0
    5.9829   -1.9652   -0.7485 H   0  0  0  1  0  0  0  0  0  0  0  0
    6.5997   -1.1560   -3.2594 H   0  0  0  1  0  0  0  0  0  0  0  0
    6.2783   -2.3810   -4.2375 H   0  0  0  1  0  0  0  0  0  0  0  0
  1  2  4  0  0  0  0
  1  6  4  0  0  0  0
  1 18  1  0  0  0  0
  2  3  4  0  0  0  0
  3  4  4  0  0  0  0
  3 25  1  0  0  0  0
  4  5  4  0  0  0  0
  4  7  4  0  0  0  0
  5  6  4  0  0  0  0
  5  9  4  0  0  0  0
  7  8  4  0  0  0  0
  7 26  1  0  0  0  0
  8  9  4  0  0  0  0
  9 10  1  0  0  0  0
 10 11  4  0  0  0  0
 10 15  4  0  0  0  0
 11 12  4  0  0  0  0
 11 27  1  0  0  0  0
 12 13  4  0  0  0  0
 12 28  1  0  0  0  0
 13 14  4  0  0  0  0
 13 16  1  0  0  0  0
 14 15  4  0  0  0  0
 14 29  1  0  0  0  0
 15 30  1  0  0  0  0
 16 17  1  0  0  0  0
 17 31  1  0  0  0  0
 17 32  1  0  0  0  0
 17 33  1  0  0  0  0
 18 19  1  0  0  0  0
 18 34  1  0  0  0  0
 19 20  1  0  0  0  0
 19 23  1  0  0  0  0
 19 35  1  0  0  0  0
 20 21  1  0  0  0  0
 20 36  1  0  0  0  0
 20 37  1  0  0  0  0
 21 22  1  0  0  0  0
 21 38  1  0  0  0  0
 21 39  1  0  0  0  0
 22 23  1  0  0  0  0
 22 24  1  0  0  0  0
 22 40  1  0  0  0  0
 23 41  1  0  0  0  0
 23 42  1  0  0  0  0
 24 43  1  0  0  0  0
 24 44  1  0  0  0  0
M  END
> <ConfClashScore>
0 

> <ConfOneFourInteractionScore>
-0.984337 

> <ConfScore>
-0.0750696 

> <ConfScorePBest>
0.00439292 

> <ConfTolerance>
0.332701 

$$$$
c22.sdf
 OpenBabel04162418103D

 44 47  0  0  0  0  0  0  0  0999 V2000
    2.2028   -0.3874    0.2508 C   0  0  0  1  0  0  0  0  0  0  0  0
    2.3155    0.9127   -0.0393 N   0  0  0  1  0  0  0  0  0  0  0  0
    1.3767    1.7527    0.4404 C   0  0  0  1  0  0  0  0  0  0  0  0
    0.3204    1.2160    1.2329 C   0  0  0  1  0  0  0  0  0  0  0  0
    0.3630   -0.1575    1.4384 C   0  0  0  1  0  0  0  0  0  0  0  0
    1.2876   -1.0260    0.9641 N   0  0  0  1  0  0  0  0  0  0  0  0
   -0.8249    1.6349    1.9397 C   0  0  0  1  0  0  0  0  0  0  0  0
   -1.4364    0.6277    2.5192 N   0  0  0  1  0  0  0  0  0  0  0  0
   -0.7001   -0.4819    2.2084 N   0  0  0  1  0  0  0  0  0  0  0  0
   -1.0115   -1.8032    2.6386 C   0  0  0  1  0  0  0  0  0  0  0  0
   -0.0663   -2.5502    3.3159 C   0  0  0  1  0  0  0  0  0  0  0  0
   -0.3713   -3.8344    3.7392 C   0  0  0  1  0  0  0  0  0  0  0  0
   -1.6187   -4.3699    3.4794 C   0  0  0  1  0  0  0  0  0  0  0  0
   -2.5666   -3.6206    2.8001 C   0  0  0  1  0  0  0  0  0  0  0  0
   -2.2627   -2.3401    2.3779 C   0  0  0  1  0  0  0  0  0  0  0  0
   -2.0280   -5.6100    3.8378 O   0  0  0  1  0  0  0  0  0  0  0  0
   -1.1237   -6.3963    4.6293 C   0  0  0  1  0  0  0  0  0  0  0  0
    3.2057   -1.1979   -0.2805 N   0  0  0  1  0  0  0  0  0  0  0  0
    4.2574   -0.4805   -1.0029 C   0  0  0  1  0  0  0  0  0  0  0  0
    3.7982   -0.0801   -2.4109 C   0  0  0  1  0  0  0  0  0  0  0  0
    3.8962   -1.3621   -3.2285 C   0  0  0  1  0  0  0  0  0  0  0  0
    5.0255   -2.1720   -2.5810 C   0  0  0  1  0  0  0  0  0  0  0  0
    5.4424   -1.3961   -1.3216 C   0  0  0  1  0  0  0  0  0  0  0  0
    6.1803   -2.2924   -3.5205 N   0  0  0  1  0  0  0  0  0  0  0  0
    1.4221    2.7715    0.2364 H   0  0  0  1  0  0  0  0  0  0  0  0
   -1.1468    2.6223    1.9955 H   0  0  0  1  0  0  0  0  0  0  0  0
    0.8737   -2.1488    3.5079 H   0  0  0  1  0  0  0  0  0  0  0  0
    0.3386   -4.3950    4.2524 H   0  0  0  1  0  0  0  0  0  0  0  0
   -3.5066   -4.0220    2.6081 H   0  0  0  1  0  0  0  0  0  0  0  0
   -2.9725   -1.7794    1.8647 H   0  0  0  1  0  0  0  0  0  0  0  0
   -0.7981   -5.8248    5.4733 H   0  0  0  1  0  0  0  0  0  0  0  0
   -0.2763   -6.6700    4.0360 H   0  0  0  1  0  0  0  0  0  0  0  0
   -1.6227   -7.2800    4.9684 H   0  0  0  1  0  0  0  0  0  0  0  0
    3.2062   -2.1725   -0.1782 H   0  0  0  1  0  0  0  0  0  0  0  0
    4.5637    0.3723   -0.4338 H   0  0  0  1  0  0  0  0  0  0  0  0
    2.7903    0.2786   -2.3912 H   0  0  0  1  0  0  0  0  0  0  0  0
    4.4385    0.6755   -2.8159 H   0  0  0  1  0  0  0  0  0  0  0  0
    4.1327   -1.1388   -4.2479 H   0  0  0  1  0  0  0  0  0  0  0  0
    2.9748   -1.9044   -3.1861 H   0  0  0  1  0  0  0  0  0  0  0  0
    4.6769   -3.1484   -2.3165 H   0  0  0  1  0  0  0  0  0  0  0  0
    5.6253   -2.0690   -0.5100 H   0  0  0  1  0  0  0  0  0  0  0  0
    6.3226   -0.8180   -1.5114 H   0  0  0  1  0  0  0  0  0  0  0  0
    6.3814   -1.4141   -3.9060 H   0  0  0  1  0  0  0  0  0  0  0  0
    5.9530   -2.9197   -4.2383 H   0  0  0  1  0  0  0  0  0  0  0  0
  1  2  4  0  0  0  0
  1  6  4  0  0  0  0
  1 18  1  0  0  0  0
  2  3  4  0  0  0  0
  3  4  4  0  0  0  0
  3 25  1  0  0  0  0
  4  5  4  0  0  0  0
  4  7  4  0  0  0  0
  5  6  4  0  0  0  0
  5  9  4  0  0  0  0
  7  8  4  0  0  0  0
  7 26  1  0  0  0  0
  8  9  4  0  0  0  0
  9 10  1  0  0  0  0
 10 11  4  0  0  0  0
 10 15  4  0  0  0  0
 11 12  4  0  0  0  0
 11 27  1  0  0  0  0
 12 13  4  0  0  0  0
 12 28  1  0  0  0  0
 13 14  4  0  0  0  0
 13 16  1  0  0  0  0
 14 15  4  0  0  0  0
 14 29  1  0  0  0  0
 15 30  1  0  0  0  0
 16 17  1  0  0  0  0
 17 31  1  0  0  0  0
 17 32  1  0  0  0  0
 17 33  1  0  0  0  0
 18 19  1  0  0  0  0
 18 34  1  0  0  0  0
 19 20  1  0  0  0  0
 19 23  1  0  0  0  0
 19 35  1  0  0  0  0
 20 21  1  0  0  0  0
 20 36  1  0  0  0  0
 20 37  1  0  0  0  0
 21 22  1  0  0  0  0
 21 38  1  0  0  0  0
 21 39  1  0  0  0  0
 22 23  1  0  0  0  0
 22 24  1  0  0  0  0
 22 40  1  0  0  0  0
 23 41  1  0  0  0  0
 23 42  1  0  0  0  0
 24 43  1  0  0  0  0
 24 44  1  0  0  0  0
M  END
> <ConfClashScore>
0 

> <ConfOneFourInteractionScore>
-0.984337 

> <ConfScore>
-0.0737546 

> <ConfScorePBest>
0.0043796 

> <ConfTolerance>
0.263119 

$$$$
c22.sdf
 OpenBabel04162418103D

 44 47  0  0  0  0  0  0  0  0999 V2000
    2.9384    0.9811    0.0243 C   0  0  0  1  0  0  0  0  0  0  0  0
    2.0984    0.9631    1.0642 N   0  0  0  1  0  0  0  0  0  0  0  0
    1.2591    2.0065    1.2189 C   0  0  0  1  0  0  0  0  0  0  0  0
    1.3055    3.0676    0.2682 C   0  0  0  1  0  0  0  0  0  0  0  0
    2.2369    2.9185   -0.7520 C   0  0  0  1  0  0  0  0  0  0  0  0
    3.0966    1.8870   -0.9288 N   0  0  0  1  0  0  0  0  0  0  0  0
    0.6754    4.2957   -0.0171 C   0  0  0  1  0  0  0  0  0  0  0  0
    1.1669    4.8570   -1.0976 N   0  0  0  1  0  0  0  0  0  0  0  0
    2.1337    4.0035   -1.5522 N   0  0  0  1  0  0  0  0  0  0  0  0
    2.9209    4.2261   -2.7061 C   0  0  0  1  0  0  0  0  0  0  0  0
    2.3575    4.8101   -3.8249 C   0  0  0  1  0  0  0  0  0  0  0  0
    3.1304    5.0330   -4.9538 C   0  0  0  1  0  0  0  0  0  0  0  0
    4.4630    4.6666   -4.9625 C   0  0  0  1  0  0  0  0  0  0  0  0
    5.0280    4.0809   -3.8403 C   0  0  0  1  0  0  0  0  0  0  0  0
    4.2575    3.8585   -2.7146 C   0  0  0  1  0  0  0  0  0  0  0  0
    5.1533    4.8006   -6.1199 O   0  0  0  1  0  0  0  0  0  0  0  0
    6.5624    4.5262   -6.0791 C   0  0  0  1  0  0  0  0  0  0  0  0
    3.7611   -0.1030   -0.0698 N   0  0  0  1  0  0  0  0  0  0  0  0
    4.5992   -0.3286   -1.2398 C   0  0  0  1  0  0  0  0  0  0  0  0
    3.7610   -0.2332   -2.5200 C   0  0  0  1  0  0  0  0  0  0  0  0
    3.7639   -1.6378   -3.1105 C   0  0  0  1  0  0  0  0  0  0  0  0
    5.0973   -2.2472   -2.6584 C   0  0  0  1  0  0  0  0  0  0  0  0
    5.1803   -1.7511   -1.2123 C   0  0  0  1  0  0  0  0  0  0  0  0
    6.2370   -1.7364   -3.4774 N   0  0  0  1  0  0  0  0  0  0  0  0
    0.5913    2.0368    2.0157 H   0  0  0  1  0  0  0  0  0  0  0  0
   -0.0866    4.7075    0.5586 H   0  0  0  1  0  0  0  0  0  0  0  0
    1.3537    5.0822   -3.8198 H   0  0  0  1  0  0  0  0  0  0  0  0
    2.7075    5.4761   -5.7942 H   0  0  0  1  0  0  0  0  0  0  0  0
    6.0318    3.8088   -3.8454 H   0  0  0  1  0  0  0  0  0  0  0  0
    4.6803    3.4154   -1.8741 H   0  0  0  1  0  0  0  0  0  0  0  0
    6.7183    3.4888   -5.8684 H   0  0  0  1  0  0  0  0  0  0  0  0
    7.0186    5.1180   -5.3132 H   0  0  0  1  0  0  0  0  0  0  0  0
    7.0000    4.7675   -7.0252 H   0  0  0  1  0  0  0  0  0  0  0  0
    3.7891   -0.7466    0.6687 H   0  0  0  1  0  0  0  0  0  0  0  0
    5.3882    0.3938   -1.2587 H   0  0  0  1  0  0  0  0  0  0  0  0
    2.7621    0.0746   -2.2913 H   0  0  0  1  0  0  0  0  0  0  0  0
    4.2009    0.4616   -3.2046 H   0  0  0  1  0  0  0  0  0  0  0  0
    3.7100   -1.5981   -4.1784 H   0  0  0  1  0  0  0  0  0  0  0  0
    2.9411   -2.2077   -2.7322 H   0  0  0  1  0  0  0  0  0  0  0  0
    5.0748   -3.3159   -2.7048 H   0  0  0  1  0  0  0  0  0  0  0  0
    6.1970   -1.7345   -0.8793 H   0  0  0  1  0  0  0  0  0  0  0  0
    4.6031   -2.3795   -0.5666 H   0  0  0  1  0  0  0  0  0  0  0  0
    6.2998   -0.7633   -3.3796 H   0  0  0  1  0  0  0  0  0  0  0  0
    6.0882   -1.9608   -4.4197 H   0  0  0  1  0  0  0  0  0  0  0  0
  1  2  4  0  0  0  0
  1  6  4  0  0  0  0
  1 18  1  0  0  0  0
  2  3  4  0  0  0  0
  3  4  4  0  0  0  0
  3 25  1  0  0  0  0
  4  5  4  0  0  0  0
  4  7  4  0  0  0  0
  5  6  4  0  0  0  0
  5  9  4  0  0  0  0
  7  8  4  0  0  0  0
  7 26  1  0  0  0  0
  8  9  4  0  0  0  0
  9 10  1  0  0  0  0
 10 11  4  0  0  0  0
 10 15  4  0  0  0  0
 11 12  4  0  0  0  0
 11 27  1  0  0  0  0
 12 13  4  0  0  0  0
 12 28  1  0  0  0  0
 13 14  4  0  0  0  0
 13 16  1  0  0  0  0
 14 15  4  0  0  0  0
 14 29  1  0  0  0  0
 15 30  1  0  0  0  0
 16 17  1  0  0  0  0
 17 31  1  0  0  0  0
 17 32  1  0  0  0  0
 17 33  1  0  0  0  0
 18 19  1  0  0  0  0
 18 34  1  0  0  0  0
 19 20  1  0  0  0  0
 19 23  1  0  0  0  0
 19 35  1  0  0  0  0
 20 21  1  0  0  0  0
 20 36  1  0  0  0  0
 20 37  1  0  0  0  0
 21 22  1  0  0  0  0
 21 38  1  0  0  0  0
 21 39  1  0  0  0  0
 22 23  1  0  0  0  0
 22 24  1  0  0  0  0
 22 40  1  0  0  0  0
 23 41  1  0  0  0  0
 23 42  1  0  0  0  0
 24 43  1  0  0  0  0
 24 44  1  0  0  0  0
M  END
> <ConfClashScore>
0 

> <ConfOneFourInteractionScore>
-0.985399 

> <ConfScore>
-0.0725916 

> <ConfScorePBest>
0.00436627 

> <ConfTolerance>
0.348157 

$$$$
c22.sdf
 OpenBabel04162418103D

 44 47  0  0  0  0  0  0  0  0999 V2000
    2.3242   -0.5349    0.4454 C   0  0  0  1  0  0  0  0  0  0  0  0
    1.7739   -1.1837    1.4765 N   0  0  0  1  0  0  0  0  0  0  0  0
    0.5956   -0.7336    1.9523 C   0  0  0  1  0  0  0  0  0  0  0  0
   -0.0031    0.4014    1.3317 C   0  0  0  1  0  0  0  0  0  0  0  0
    0.7059    0.9476    0.2690 C   0  0  0  1  0  0  0  0  0  0  0  0
    1.8928    0.5224   -0.2256 N   0  0  0  1  0  0  0  0  0  0  0  0
   -1.1563    1.2064    1.4268 C   0  0  0  1  0  0  0  0  0  0  0  0
   -1.1625    2.1588    0.5230 N   0  0  0  1  0  0  0  0  0  0  0  0
   -0.0092    1.9979   -0.1937 N   0  0  0  1  0  0  0  0  0  0  0  0
    0.3804    2.8138   -1.2664 C   0  0  0  1  0  0  0  0  0  0  0  0
    1.6902    3.1212   -1.5826 C   0  0  0  1  0  0  0  0  0  0  0  0
    1.9679    3.9350   -2.6698 C   0  0  0  1  0  0  0  0  0  0  0  0
    0.9349    4.4433   -3.4345 C   0  0  0  1  0  0  0  0  0  0  0  0
   -0.3788    4.1349   -3.1172 C   0  0  0  1  0  0  0  0  0  0  0  0
   -0.6559    3.3236   -2.0331 C   0  0  0  1  0  0  0  0  0  0  0  0
    1.0818    5.2455   -4.5068 O   0  0  0  1  0  0  0  0  0  0  0  0
    2.4482    5.5976   -4.8253 C   0  0  0  1  0  0  0  0  0  0  0  0
    3.5000   -1.0338    0.0233 N   0  0  0  1  0  0  0  0  0  0  0  0
    4.3291   -0.4080   -1.0101 C   0  0  0  1  0  0  0  0  0  0  0  0
    3.5036   -0.2041   -2.3118 C   0  0  0  1  0  0  0  0  0  0  0  0
    4.1146   -1.1370   -3.3722 C   0  0  0  1  0  0  0  0  0  0  0  0
    4.9580   -2.1680   -2.5975 C   0  0  0  1  0  0  0  0  0  0  0  0
    5.5234   -1.3472   -1.3891 C   0  0  0  1  0  0  0  0  0  0  0  0
    6.0480   -2.6885   -3.4337 N   0  0  0  1  0  0  0  0  0  0  0  0
    0.1329   -1.2049    2.7556 H   0  0  0  1  0  0  0  0  0  0  0  0
   -1.9109    1.0633    2.1281 H   0  0  0  1  0  0  0  0  0  0  0  0
    2.4674    2.7420   -1.0049 H   0  0  0  1  0  0  0  0  0  0  0  0
    2.9537    4.1630   -2.9102 H   0  0  0  1  0  0  0  0  0  0  0  0
   -1.1560    4.5142   -3.6949 H   0  0  0  1  0  0  0  0  0  0  0  0
   -1.6416    3.0955   -1.7927 H   0  0  0  1  0  0  0  0  0  0  0  0
    2.8643    6.1739   -4.0255 H   0  0  0  1  0  0  0  0  0  0  0  0
    2.4670    6.1735   -5.7269 H   0  0  0  1  0  0  0  0  0  0  0  0
    3.0242    4.7058   -4.9591 H   0  0  0  1  0  0  0  0  0  0  0  0
    3.8211   -1.8651    0.4311 H   0  0  0  1  0  0  0  0  0  0  0  0
    4.6958    0.5317   -0.6532 H   0  0  0  1  0  0  0  0  0  0  0  0
    3.5692    0.8139   -2.6344 H   0  0  0  1  0  0  0  0  0  0  0  0
    2.4785   -0.4598   -2.1423 H   0  0  0  1  0  0  0  0  0  0  0  0
    4.7337   -0.5803   -4.0443 H   0  0  0  1  0  0  0  0  0  0  0  0
    3.3411   -1.6292   -3.9239 H   0  0  0  1  0  0  0  0  0  0  0  0
    4.3503   -2.9800   -2.2567 H   0  0  0  1  0  0  0  0  0  0  0  0
    5.7797   -1.9909   -0.5737 H   0  0  0  1  0  0  0  0  0  0  0  0
    6.3822   -0.7787   -1.6790 H   0  0  0  1  0  0  0  0  0  0  0  0
    6.6797   -1.9666   -3.6344 H   0  0  0  1  0  0  0  0  0  0  0  0
    5.6782   -3.0406   -4.2701 H   0  0  0  1  0  0  0  0  0  0  0  0
  1  2  4  0  0  0  0
  1  6  4  0  0  0  0
  1 18  1  0  0  0  0
  2  3  4  0  0  0  0
  3  4  4  0  0  0  0
  3 25  1  0  0  0  0
  4  5  4  0  0  0  0
  4  7  4  0  0  0  0
  5  6  4  0  0  0  0
  5  9  4  0  0  0  0
  7  8  4  0  0  0  0
  7 26  1  0  0  0  0
  8  9  4  0  0  0  0
  9 10  1  0  0  0  0
 10 11  4  0  0  0  0
 10 15  4  0  0  0  0
 11 12  4  0  0  0  0
 11 27  1  0  0  0  0
 12 13  4  0  0  0  0
 12 28  1  0  0  0  0
 13 14  4  0  0  0  0
 13 16  1  0  0  0  0
 14 15  4  0  0  0  0
 14 29  1  0  0  0  0
 15 30  1  0  0  0  0
 16 17  1  0  0  0  0
 17 31  1  0  0  0  0
 17 32  1  0  0  0  0
 17 33  1  0  0  0  0
 18 19  1  0  0  0  0
 18 34  1  0  0  0  0
 19 20  1  0  0  0  0
 19 23  1  0  0  0  0
 19 35  1  0  0  0  0
 20 21  1  0  0  0  0
 20 36  1  0  0  0  0
 20 37  1  0  0  0  0
 21 22  1  0  0  0  0
 21 38  1  0  0  0  0
 21 39  1  0  0  0  0
 22 23  1  0  0  0  0
 22 24  1  0  0  0  0
 22 40  1  0  0  0  0
 23 41  1  0  0  0  0
 23 42  1  0  0  0  0
 24 43  1  0  0  0  0
 24 44  1  0  0  0  0
M  END
> <ConfClashScore>
0 

> <ConfOneFourInteractionScore>
-0.985399 

> <ConfScore>
-0.0725916 

> <ConfScorePBest>
0.00435294 

> <ConfTolerance>
0.305413 

$$$$
c22.sdf
 OpenBabel04162418103D

 44 47  0  0  0  0  0  0  0  0999 V2000
    3.0167   -0.4989    1.0360 C   0  0  0  1  0  0  0  0  0  0  0  0
    3.8918    0.3944    1.5085 N   0  0  0  1  0  0  0  0  0  0  0  0
    3.6587    0.9280    2.7243 C   0  0  0  1  0  0  0  0  0  0  0  0
    2.5003    0.5110    3.4427 C   0  0  0  1  0  0  0  0  0  0  0  0
    1.7034   -0.4297    2.8019 C   0  0  0  1  0  0  0  0  0  0  0  0
    1.9080   -0.9773    1.5803 N   0  0  0  1  0  0  0  0  0  0  0  0
    1.8496    0.7331    4.6732 C   0  0  0  1  0  0  0  0  0  0  0  0
    0.7580    0.0122    4.7852 N   0  0  0  1  0  0  0  0  0  0  0  0
    0.6681   -0.7077    3.6261 N   0  0  0  1  0  0  0  0  0  0  0  0
   -0.3661   -1.6186    3.3299 C   0  0  0  1  0  0  0  0  0  0  0  0
   -0.8489   -1.7987    2.0475 C   0  0  0  1  0  0  0  0  0  0  0  0
   -1.8644   -2.7123    1.8114 C   0  0  0  1  0  0  0  0  0  0  0  0
   -2.3977   -3.4391    2.8591 C   0  0  0  1  0  0  0  0  0  0  0  0
   -1.9132   -3.2583    4.1453 C   0  0  0  1  0  0  0  0  0  0  0  0
   -0.9007   -2.3474    4.3808 C   0  0  0  1  0  0  0  0  0  0  0  0
   -3.3917   -4.3525    2.7519 O   0  0  0  1  0  0  0  0  0  0  0  0
   -3.9380   -4.5771    1.4428 C   0  0  0  1  0  0  0  0  0  0  0  0
    3.3102   -0.9929   -0.1941 N   0  0  0  1  0  0  0  0  0  0  0  0
    4.3315   -0.4274   -1.0787 C   0  0  0  1  0  0  0  0  0  0  0  0
    3.7377   -0.1032   -2.4906 C   0  0  0  1  0  0  0  0  0  0  0  0
    3.7281   -1.4823   -3.1613 C   0  0  0  1  0  0  0  0  0  0  0  0
    4.9753   -2.2262   -2.6944 C   0  0  0  1  0  0  0  0  0  0  0  0
    5.4239   -1.4644   -1.3989 C   0  0  0  1  0  0  0  0  0  0  0  0
    6.0350   -2.1711   -3.7274 N   0  0  0  1  0  0  0  0  0  0  0  0
    4.3106    1.6296    3.1297 H   0  0  0  1  0  0  0  0  0  0  0  0
    2.1927    1.3888    5.4040 H   0  0  0  1  0  0  0  0  0  0  0  0
   -0.4505   -1.2490    1.2597 H   0  0  0  1  0  0  0  0  0  0  0  0
   -2.2250   -2.8508    0.8458 H   0  0  0  1  0  0  0  0  0  0  0  0
   -2.3116   -3.8080    4.9331 H   0  0  0  1  0  0  0  0  0  0  0  0
   -0.5400   -2.2088    5.3464 H   0  0  0  1  0  0  0  0  0  0  0  0
   -4.2993   -3.6527    1.0432 H   0  0  0  1  0  0  0  0  0  0  0  0
   -4.7450   -5.2766    1.5086 H   0  0  0  1  0  0  0  0  0  0  0  0
   -3.1767   -4.9694    0.8014 H   0  0  0  1  0  0  0  0  0  0  0  0
    2.8092   -1.7742   -0.5088 H   0  0  0  1  0  0  0  0  0  0  0  0
    4.7508    0.4472   -0.6269 H   0  0  0  1  0  0  0  0  0  0  0  0
    2.7485    0.2973   -2.4129 H   0  0  0  1  0  0  0  0  0  0  0  0
    4.3602    0.5838   -3.0249 H   0  0  0  1  0  0  0  0  0  0  0  0
    3.7457   -1.3714   -4.2254 H   0  0  0  1  0  0  0  0  0  0  0  0
    2.8509   -2.0228   -2.8730 H   0  0  0  1  0  0  0  0  0  0  0  0
    4.7456   -3.2474   -2.4724 H   0  0  0  1  0  0  0  0  0  0  0  0
    6.3584   -0.9717   -1.5686 H   0  0  0  1  0  0  0  0  0  0  0  0
    5.5254   -2.1526   -0.5858 H   0  0  0  1  0  0  0  0  0  0  0  0
    6.8723   -2.5195   -3.3560 H   0  0  0  1  0  0  0  0  0  0  0  0
    6.1655   -1.2425   -4.0120 H   0  0  0  1  0  0  0  0  0  0  0  0
  1  2  4  0  0  0  0
  1  6  4  0  0  0  0
  1 18  1  0  0  0  0
  2  3  4  0  0  0  0
  3  4  4  0  0  0  0
  3 25  1  0  0  0  0
  4  5  4  0  0  0  0
  4  7  4  0  0  0  0
  5  6  4  0  0  0  0
  5  9  4  0  0  0  0
  7  8  4  0  0  0  0
  7 26  1  0  0  0  0
  8  9  4  0  0  0  0
  9 10  1  0  0  0  0
 10 11  4  0  0  0  0
 10 15  4  0  0  0  0
 11 12  4  0  0  0  0
 11 27  1  0  0  0  0
 12 13  4  0  0  0  0
 12 28  1  0  0  0  0
 13 14  4  0  0  0  0
 13 16  1  0  0  0  0
 14 15  4  0  0  0  0
 14 29  1  0  0  0  0
 15 30  1  0  0  0  0
 16 17  1  0  0  0  0
 17 31  1  0  0  0  0
 17 32  1  0  0  0  0
 17 33  1  0  0  0  0
 18 19  1  0  0  0  0
 18 34  1  0  0  0  0
 19 20  1  0  0  0  0
 19 23  1  0  0  0  0
 19 35  1  0  0  0  0
 20 21  1  0  0  0  0
 20 36  1  0  0  0  0
 20 37  1  0  0  0  0
 21 22  1  0  0  0  0
 21 38  1  0  0  0  0
 21 39  1  0  0  0  0
 22 23  1  0  0  0  0
 22 24  1  0  0  0  0
 22 40  1  0  0  0  0
 23 41  1  0  0  0  0
 23 42  1  0  0  0  0
 24 43  1  0  0  0  0
 24 44  1  0  0  0  0
M  END
> <ConfClashScore>
0 

> <ConfOneFourInteractionScore>
-0.984337 

> <ConfScore>
-0.0720383 

> <ConfScorePBest>
0.00433961 

> <ConfTolerance>
0.346645 

$$$$
c22.sdf
 OpenBabel04162418103D

 44 47  0  0  0  0  0  0  0  0999 V2000
    3.8952    0.8958    0.7557 C   0  0  0  1  0  0  0  0  0  0  0  0
    2.9466    0.9904    1.6929 N   0  0  0  1  0  0  0  0  0  0  0  0
    3.0054    2.0279    2.5516 C   0  0  0  1  0  0  0  0  0  0  0  0
    4.0669    2.9692    2.4141 C   0  0  0  1  0  0  0  0  0  0  0  0
    4.9613    2.7181    1.3808 C   0  0  0  1  0  0  0  0  0  0  0  0
    4.9318    1.6823    0.5087 N   0  0  0  1  0  0  0  0  0  0  0  0
    4.5441    4.1584    3.0015 C   0  0  0  1  0  0  0  0  0  0  0  0
    5.6262    4.5987    2.4022 N   0  0  0  1  0  0  0  0  0  0  0  0
    5.8839    3.7064    1.3986 N   0  0  0  1  0  0  0  0  0  0  0  0
    6.9804    3.8052    0.4910 C   0  0  0  1  0  0  0  0  0  0  0  0
    7.5066    5.0431    0.1736 C   0  0  0  1  0  0  0  0  0  0  0  0
    8.5132    5.1459   -0.7739 C   0  0  0  1  0  0  0  0  0  0  0  0
    8.9868    4.0112   -1.4051 C   0  0  0  1  0  0  0  0  0  0  0  0
    8.4589    2.7696   -1.0867 C   0  0  0  1  0  0  0  0  0  0  0  0
    7.4553    2.6670   -0.1420 C   0  0  0  1  0  0  0  0  0  0  0  0
   10.0350    4.0575   -2.2613 O   0  0  0  1  0  0  0  0  0  0  0  0
   10.5800    2.8032   -2.6997 C   0  0  0  1  0  0  0  0  0  0  0  0
    3.7782   -0.1678   -0.0678 N   0  0  0  1  0  0  0  0  0  0  0  0
    4.5728   -0.3497   -1.2835 C   0  0  0  1  0  0  0  0  0  0  0  0
    3.6795   -0.2342   -2.5242 C   0  0  0  1  0  0  0  0  0  0  0  0
    3.6785   -1.6225   -3.1520 C   0  0  0  1  0  0  0  0  0  0  0  0
    5.0390   -2.2219   -2.7731 C   0  0  0  1  0  0  0  0  0  0  0  0
    5.1760   -1.7628   -1.3190 C   0  0  0  1  0  0  0  0  0  0  0  0
    6.1362   -1.6706   -3.6263 N   0  0  0  1  0  0  0  0  0  0  0  0
    2.2910    2.1392    3.2991 H   0  0  0  1  0  0  0  0  0  0  0  0
    4.0935    4.6299    3.8116 H   0  0  0  1  0  0  0  0  0  0  0  0
    7.1475    5.8974    0.6456 H   0  0  0  1  0  0  0  0  0  0  0  0
    8.9120    6.0770   -1.0098 H   0  0  0  1  0  0  0  0  0  0  0  0
    8.8180    1.9153   -1.5587 H   0  0  0  1  0  0  0  0  0  0  0  0
    7.0564    1.7360    0.0940 H   0  0  0  1  0  0  0  0  0  0  0  0
   11.4208    2.9822   -3.3369 H   0  0  0  1  0  0  0  0  0  0  0  0
    9.8332    2.2593   -3.2396 H   0  0  0  1  0  0  0  0  0  0  0  0
   10.8921    2.2335   -1.8495 H   0  0  0  1  0  0  0  0  0  0  0  0
    3.1225   -0.8589    0.1621 H   0  0  0  1  0  0  0  0  0  0  0  0
    5.3493    0.3857   -1.3161 H   0  0  0  1  0  0  0  0  0  0  0  0
    4.0794    0.4854   -3.2076 H   0  0  0  1  0  0  0  0  0  0  0  0
    2.6867    0.0512   -2.2453 H   0  0  0  1  0  0  0  0  0  0  0  0
    3.5787   -1.5556   -4.2152 H   0  0  0  1  0  0  0  0  0  0  0  0
    2.8813   -2.2155   -2.7550 H   0  0  0  1  0  0  0  0  0  0  0  0
    5.0308   -3.2893   -2.8475 H   0  0  0  1  0  0  0  0  0  0  0  0
    6.2056   -1.7385   -1.0288 H   0  0  0  1  0  0  0  0  0  0  0  0
    4.6364   -2.4173   -0.6667 H   0  0  0  1  0  0  0  0  0  0  0  0
    6.9941   -2.0486   -3.3407 H   0  0  0  1  0  0  0  0  0  0  0  0
    6.1625   -0.6952   -3.5344 H   0  0  0  1  0  0  0  0  0  0  0  0
  1  2  4  0  0  0  0
  1  6  4  0  0  0  0
  1 18  1  0  0  0  0
  2  3  4  0  0  0  0
  3  4  4  0  0  0  0
  3 25  1  0  0  0  0
  4  5  4  0  0  0  0
  4  7  4  0  0  0  0
  5  6  4  0  0  0  0
  5  9  4  0  0  0  0
  7  8  4  0  0  0  0
  7 26  1  0  0  0  0
  8  9  4  0  0  0  0
  9 10  1  0  0  0  0
 10 11  4  0  0  0  0
 10 15  4  0  0  0  0
 11 12  4  0  0  0  0
 11 27  1  0  0  0  0
 12 13  4  0  0  0  0
 12 28  1  0  0  0  0
 13 14  4  0  0  0  0
 13 16  1  0  0  0  0
 14 15  4  0  0  0  0
 14 29  1  0  0  0  0
 15 30  1  0  0  0  0
 16 17  1  0  0  0  0
 17 31  1  0  0  0  0
 17 32  1  0  0  0  0
 17 33  1  0  0  0  0
 18 19  1  0  0  0  0
 18 34  1  0  0  0  0
 19 20  1  0  0  0  0
 19 23  1  0  0  0  0
 19 35  1  0  0  0  0
 20 21  1  0  0  0  0
 20 36  1  0  0  0  0
 20 37  1  0  0  0  0
 21 22  1  0  0  0  0
 21 38  1  0  0  0  0
 21 39  1  0  0  0  0
 22 23  1  0  0  0  0
 22 24  1  0  0  0  0
 22 40  1  0  0  0  0
 23 41  1  0  0  0  0
 23 42  1  0  0  0  0
 24 43  1  0  0  0  0
 24 44  1  0  0  0  0
M  END
> <ConfClashScore>
0 

> <ConfOneFourInteractionScore>
-0.984337 

> <ConfScore>
-0.0720383 

> <ConfScorePBest>
0.00432628 

> <ConfTolerance>
0.309561 

$$$$
c22.sdf
 OpenBabel04162418103D

 44 47  0  0  0  0  0  0  0  0999 V2000
    4.0957    0.7722    1.0702 C   0  0  0  1  0  0  0  0  0  0  0  0
    3.4048    0.6538    2.2084 N   0  0  0  1  0  0  0  0  0  0  0  0
    3.6246    1.5615    3.1805 C   0  0  0  1  0  0  0  0  0  0  0  0
    4.5731    2.5991    2.9446 C   0  0  0  1  0  0  0  0  0  0  0  0
    5.1953    2.5720    1.7025 C   0  0  0  1  0  0  0  0  0  0  0  0
    5.0005    1.6703    0.7110 N   0  0  0  1  0  0  0  0  0  0  0  0
    5.1235    3.7298    3.5812 C   0  0  0  1  0  0  0  0  0  0  0  0
    6.0017    4.3398    2.8191 N   0  0  0  1  0  0  0  0  0  0  0  0
    6.0455    3.6223    1.6559 N   0  0  0  1  0  0  0  0  0  0  0  0
    6.8761    3.9392    0.5434 C   0  0  0  1  0  0  0  0  0  0  0  0
    7.2973    5.2404    0.3440 C   0  0  0  1  0  0  0  0  0  0  0  0
    8.1101    5.5478   -0.7360 C   0  0  0  1  0  0  0  0  0  0  0  0
    8.4951    4.5542   -1.6163 C   0  0  0  1  0  0  0  0  0  0  0  0
    8.0725    3.2492   -1.4162 C   0  0  0  1  0  0  0  0  0  0  0  0
    7.2620    2.9426   -0.3394 C   0  0  0  1  0  0  0  0  0  0  0  0
    9.2834    4.9741   -2.6342 O   0  0  0  1  0  0  0  0  0  0  0  0
    9.8434    3.9655   -3.4895 C   0  0  0  1  0  0  0  0  0  0  0  0
    3.8307   -0.1677    0.1450 N   0  0  0  1  0  0  0  0  0  0  0  0
    4.4690   -0.3019   -1.1664 C   0  0  0  1  0  0  0  0  0  0  0  0
    3.4141   -0.3386   -2.2754 C   0  0  0  1  0  0  0  0  0  0  0  0
    4.1754   -1.0645   -3.3922 C   0  0  0  1  0  0  0  0  0  0  0  0
    4.9365   -2.1767   -2.6814 C   0  0  0  1  0  0  0  0  0  0  0  0
    5.2100   -1.6444   -1.2699 C   0  0  0  1  0  0  0  0  0  0  0  0
    6.2199   -2.4660   -3.3884 N   0  0  0  1  0  0  0  0  0  0  0  0
    3.1126    1.5060    4.0840 H   0  0  0  1  0  0  0  0  0  0  0  0
    4.8652    4.0431    4.5387 H   0  0  0  1  0  0  0  0  0  0  0  0
    7.0044    5.9887    1.0041 H   0  0  0  1  0  0  0  0  0  0  0  0
    8.4303    6.5261   -0.8838 H   0  0  0  1  0  0  0  0  0  0  0  0
    8.3654    2.5009   -2.0763 H   0  0  0  1  0  0  0  0  0  0  0  0
    6.9418    1.9642   -0.1915 H   0  0  0  1  0  0  0  0  0  0  0  0
    9.0644    3.3204   -3.8386 H   0  0  0  1  0  0  0  0  0  0  0  0
   10.5621    3.3925   -2.9417 H   0  0  0  1  0  0  0  0  0  0  0  0
   10.3211    4.4322   -4.3255 H   0  0  0  1  0  0  0  0  0  0  0  0
    3.1424   -0.8278    0.3708 H   0  0  0  1  0  0  0  0  0  0  0  0
    5.1457    0.5127   -1.3193 H   0  0  0  1  0  0  0  0  0  0  0  0
    3.1265    0.6475   -2.5748 H   0  0  0  1  0  0  0  0  0  0  0  0
    2.5467   -0.8872   -1.9725 H   0  0  0  1  0  0  0  0  0  0  0  0
    3.4943   -1.4724   -4.1096 H   0  0  0  1  0  0  0  0  0  0  0  0
    4.8531   -0.3971   -3.8823 H   0  0  0  1  0  0  0  0  0  0  0  0
    4.3443   -3.0668   -2.6375 H   0  0  0  1  0  0  0  0  0  0  0  0
    4.8392   -2.3300   -0.5368 H   0  0  0  1  0  0  0  0  0  0  0  0
    6.2603   -1.5002   -1.1251 H   0  0  0  1  0  0  0  0  0  0  0  0
    6.7700   -1.6553   -3.4127 H   0  0  0  1  0  0  0  0  0  0  0  0
    6.0294   -2.7588   -4.3040 H   0  0  0  1  0  0  0  0  0  0  0  0
  1  2  4  0  0  0  0
  1  6  4  0  0  0  0
  1 18  1  0  0  0  0
  2  3  4  0  0  0  0
  3  4  4  0  0  0  0
  3 25  1  0  0  0  0
  4  5  4  0  0  0  0
  4  7  4  0  0  0  0
  5  6  4  0  0  0  0
  5  9  4  0  0  0  0
  7  8  4  0  0  0  0
  7 26  1  0  0  0  0
  8  9  4  0  0  0  0
  9 10  1  0  0  0  0
 10 11  4  0  0  0  0
 10 15  4  0  0  0  0
 11 12  4  0  0  0  0
 11 27  1  0  0  0  0
 12 13  4  0  0  0  0
 12 28  1  0  0  0  0
 13 14  4  0  0  0  0
 13 16  1  0  0  0  0
 14 15  4  0  0  0  0
 14 29  1  0  0  0  0
 15 30  1  0  0  0  0
 16 17  1  0  0  0  0
 17 31  1  0  0  0  0
 17 32  1  0  0  0  0
 17 33  1  0  0  0  0
 18 19  1  0  0  0  0
 18 34  1  0  0  0  0
 19 20  1  0  0  0  0
 19 23  1  0  0  0  0
 19 35  1  0  0  0  0
 20 21  1  0  0  0  0
 20 36  1  0  0  0  0
 20 37  1  0  0  0  0
 21 22  1  0  0  0  0
 21 38  1  0  0  0  0
 21 39  1  0  0  0  0
 22 23  1  0  0  0  0
 22 24  1  0  0  0  0
 22 40  1  0  0  0  0
 23 41  1  0  0  0  0
 23 42  1  0  0  0  0
 24 43  1  0  0  0  0
 24 44  1  0  0  0  0
M  END
> <ConfClashScore>
0 

> <ConfOneFourInteractionScore>
-0.984337 

> <ConfScore>
-0.0690358 

> <ConfScorePBest>
0.00431295 

> <ConfTolerance>
0.352729 

$$$$
c22.sdf
 OpenBabel04162418103D

 44 47  0  0  0  0  0  0  0  0999 V2000
    4.2091   -1.5628    1.1796 C   0  0  0  1  0  0  0  0  0  0  0  0
    5.5156   -1.3089    1.3042 N   0  0  0  1  0  0  0  0  0  0  0  0
    6.1314   -1.6979    2.4385 C   0  0  0  1  0  0  0  0  0  0  0  0
    5.3638   -2.3616    3.4396 C   0  0  0  1  0  0  0  0  0  0  0  0
    4.0197   -2.5470    3.1402 C   0  0  0  1  0  0  0  0  0  0  0  0
    3.3730   -2.1613    2.0145 N   0  0  0  1  0  0  0  0  0  0  0  0
    5.5172   -2.9467    4.7128 C   0  0  0  1  0  0  0  0  0  0  0  0
    4.3862   -3.4389    5.1632 N   0  0  0  1  0  0  0  0  0  0  0  0
    3.4595   -3.1912    4.1887 N   0  0  0  1  0  0  0  0  0  0  0  0
    2.0868   -3.5623    4.2677 C   0  0  0  1  0  0  0  0  0  0  0  0
    1.3097   -3.1154    5.3197 C   0  0  0  1  0  0  0  0  0  0  0  0
   -0.0277   -3.4723    5.3937 C   0  0  0  1  0  0  0  0  0  0  0  0
   -0.5827   -4.2793    4.4185 C   0  0  0  1  0  0  0  0  0  0  0  0
    0.1968   -4.7273    3.3635 C   0  0  0  1  0  0  0  0  0  0  0  0
    1.5304   -4.3716    3.2896 C   0  0  0  1  0  0  0  0  0  0  0  0
   -1.9179   -4.4990    4.4725 O   0  0  0  1  0  0  0  0  0  0  0  0
   -2.5980   -4.1146    5.6776 C   0  0  0  1  0  0  0  0  0  0  0  0
    3.6573   -1.1453    0.0261 N   0  0  0  1  0  0  0  0  0  0  0  0
    4.3388   -0.4295   -1.0556 C   0  0  0  1  0  0  0  0  0  0  0  0
    3.4008   -0.2695   -2.2539 C   0  0  0  1  0  0  0  0  0  0  0  0
    3.9791   -1.1427   -3.3591 C   0  0  0  1  0  0  0  0  0  0  0  0
    4.9157   -2.1336   -2.6814 C   0  0  0  1  0  0  0  0  0  0  0  0
    5.5704   -1.2526   -1.5526 C   0  0  0  1  0  0  0  0  0  0  0  0
    5.9502   -2.6469   -3.6396 N   0  0  0  1  0  0  0  0  0  0  0  0
    7.1458   -1.5176    2.5803 H   0  0  0  1  0  0  0  0  0  0  0  0
    6.4172   -2.9840    5.2326 H   0  0  0  1  0  0  0  0  0  0  0  0
    1.7283   -2.5115    6.0557 H   0  0  0  1  0  0  0  0  0  0  0  0
   -0.6135   -3.1328    6.1831 H   0  0  0  1  0  0  0  0  0  0  0  0
   -0.2218   -5.3313    2.6275 H   0  0  0  1  0  0  0  0  0  0  0  0
    2.1162   -4.7111    2.5002 H   0  0  0  1  0  0  0  0  0  0  0  0
   -2.3015   -3.1246    5.9548 H   0  0  0  1  0  0  0  0  0  0  0  0
   -2.3440   -4.7957    6.4628 H   0  0  0  1  0  0  0  0  0  0  0  0
   -3.6550   -4.1373    5.5131 H   0  0  0  1  0  0  0  0  0  0  0  0
    2.7054   -1.3390   -0.1037 H   0  0  0  1  0  0  0  0  0  0  0  0
    4.6549    0.5307   -0.7049 H   0  0  0  1  0  0  0  0  0  0  0  0
    2.4142   -0.5965   -1.9998 H   0  0  0  1  0  0  0  0  0  0  0  0
    3.3686    0.7532   -2.5668 H   0  0  0  1  0  0  0  0  0  0  0  0
    4.5207   -0.5419   -4.0595 H   0  0  0  1  0  0  0  0  0  0  0  0
    3.1946   -1.6638   -3.8670 H   0  0  0  1  0  0  0  0  0  0  0  0
    4.3741   -2.9573   -2.2655 H   0  0  0  1  0  0  0  0  0  0  0  0
    6.3344   -0.6153   -1.9466 H   0  0  0  1  0  0  0  0  0  0  0  0
    5.9785   -1.8580   -0.7704 H   0  0  0  1  0  0  0  0  0  0  0  0
    6.5931   -3.2077   -3.1573 H   0  0  0  1  0  0  0  0  0  0  0  0
    6.4197   -1.8905   -4.0492 H   0  0  0  1  0  0  0  0  0  0  0  0
  1  2  4  0  0  0  0
  1  6  4  0  0  0  0
  1 18  1  0  0  0  0
  2  3  4  0  0  0  0
  3  4  4  0  0  0  0
  3 25  1  0  0  0  0
  4  5  4  0  0  0  0
  4  7  4  0  0  0  0
  5  6  4  0  0  0  0
  5  9  4  0  0  0  0
  7  8  4  0  0  0  0
  7 26  1  0  0  0  0
  8  9  4  0  0  0  0
  9 10  1  0  0  0  0
 10 11  4  0  0  0  0
 10 15  4  0  0  0  0
 11 12  4  0  0  0  0
 11 27  1  0  0  0  0
 12 13  4  0  0  0  0
 12 28  1  0  0  0  0
 13 14  4  0  0  0  0
 13 16  1  0  0  0  0
 14 15  4  0  0  0  0
 14 29  1  0  0  0  0
 15 30  1  0  0  0  0
 16 17  1  0  0  0  0
 17 31  1  0  0  0  0
 17 32  1  0  0  0  0
 17 33  1  0  0  0  0
 18 19  1  0  0  0  0
 18 34  1  0  0  0  0
 19 20  1  0  0  0  0
 19 23  1  0  0  0  0
 19 35  1  0  0  0  0
 20 21  1  0  0  0  0
 20 36  1  0  0  0  0
 20 37  1  0  0  0  0
 21 22  1  0  0  0  0
 21 38  1  0  0  0  0
 21 39  1  0  0  0  0
 22 23  1  0  0  0  0
 22 24  1  0  0  0  0
 22 40  1  0  0  0  0
 23 41  1  0  0  0  0
 23 42  1  0  0  0  0
 24 43  1  0  0  0  0
 24 44  1  0  0  0  0
M  END
> <ConfClashScore>
0 

> <ConfOneFourInteractionScore>
-0.985399 

> <ConfScore>
-0.068938 

> <ConfScorePBest>
0.00429963 

> <ConfTolerance>
0.229645 

$$$$
c22.sdf
 OpenBabel04162418103D

 44 47  0  0  0  0  0  0  0  0999 V2000
    4.3720   -0.1309    1.1533 C   0  0  0  1  0  0  0  0  0  0  0  0
    3.5022    0.0463    2.1528 N   0  0  0  1  0  0  0  0  0  0  0  0
    3.9793    0.0579    3.4135 C   0  0  0  1  0  0  0  0  0  0  0  0
    5.3801   -0.1127    3.6155 C   0  0  0  1  0  0  0  0  0  0  0  0
    6.1365   -0.2792    2.4619 C   0  0  0  1  0  0  0  0  0  0  0  0
    5.6849   -0.3025    1.1854 N   0  0  0  1  0  0  0  0  0  0  0  0
    6.3270   -0.1598    4.6585 C   0  0  0  1  0  0  0  0  0  0  0  0
    7.5451   -0.3435    4.2038 N   0  0  0  1  0  0  0  0  0  0  0  0
    7.4263   -0.4172    2.8436 N   0  0  0  1  0  0  0  0  0  0  0  0
    8.5167   -0.6133    1.9475 C   0  0  0  1  0  0  0  0  0  0  0  0
    8.6690    0.2145    0.8513 C   0  0  0  1  0  0  0  0  0  0  0  0
    9.6779   -0.0305   -0.0672 C   0  0  0  1  0  0  0  0  0  0  0  0
   10.5282   -1.1055    0.1104 C   0  0  0  1  0  0  0  0  0  0  0  0
   10.3754   -1.9356    1.2100 C   0  0  0  1  0  0  0  0  0  0  0  0
    9.3694   -1.6915    2.1258 C   0  0  0  1  0  0  0  0  0  0  0  0
   11.4699   -1.2474   -0.8524 O   0  0  0  1  0  0  0  0  0  0  0  0
   12.3165   -2.4112   -0.7789 C   0  0  0  1  0  0  0  0  0  0  0  0
    3.8290   -0.1356   -0.0774 N   0  0  0  1  0  0  0  0  0  0  0  0
    4.5913   -0.3323   -1.2981 C   0  0  0  1  0  0  0  0  0  0  0  0
    3.6689   -0.2483   -2.5198 C   0  0  0  1  0  0  0  0  0  0  0  0
    3.6662   -1.6482   -3.1211 C   0  0  0  1  0  0  0  0  0  0  0  0
    5.0403   -2.2285   -2.7624 C   0  0  0  1  0  0  0  0  0  0  0  0
    5.2063   -1.7406   -1.3207 C   0  0  0  1  0  0  0  0  0  0  0  0
    6.1069   -1.6871   -3.6460 N   0  0  0  1  0  0  0  0  0  0  0  0
    3.3387    0.1887    4.2223 H   0  0  0  1  0  0  0  0  0  0  0  0
    6.0897   -0.0610    5.6662 H   0  0  0  1  0  0  0  0  0  0  0  0
    8.0266    1.0211    0.7155 H   0  0  0  1  0  0  0  0  0  0  0  0
    9.7950    0.5948   -0.8900 H   0  0  0  1  0  0  0  0  0  0  0  0
   11.0177   -2.7422    1.3458 H   0  0  0  1  0  0  0  0  0  0  0  0
    9.2523   -2.3167    2.9486 H   0  0  0  1  0  0  0  0  0  0  0  0
   11.7120   -3.2940   -0.7930 H   0  0  0  1  0  0  0  0  0  0  0  0
   12.8842   -2.3824    0.1276 H   0  0  0  1  0  0  0  0  0  0  0  0
   12.9818   -2.4215   -1.6169 H   0  0  0  1  0  0  0  0  0  0  0  0
    2.8618    0.0019   -0.1551 H   0  0  0  1  0  0  0  0  0  0  0  0
    5.3602    0.4090   -1.3624 H   0  0  0  1  0  0  0  0  0  0  0  0
    4.0465    0.4616   -3.2258 H   0  0  0  1  0  0  0  0  0  0  0  0
    2.6802    0.0339   -2.2236 H   0  0  0  1  0  0  0  0  0  0  0  0
    2.8836   -2.2404   -2.6947 H   0  0  0  1  0  0  0  0  0  0  0  0
    3.5414   -1.6026   -4.1828 H   0  0  0  1  0  0  0  0  0  0  0  0
    5.0401   -3.2972   -2.8163 H   0  0  0  1  0  0  0  0  0  0  0  0
    6.2420   -1.7018   -1.0548 H   0  0  0  1  0  0  0  0  0  0  0  0
    4.6877   -2.3871   -0.6439 H   0  0  0  1  0  0  0  0  0  0  0  0
    6.9798   -2.0140   -3.3433 H   0  0  0  1  0  0  0  0  0  0  0  0
    6.0947   -0.7079   -3.6102 H   0  0  0  1  0  0  0  0  0  0  0  0
  1  2  4  0  0  0  0
  1  6  4  0  0  0  0
  1 18  1  0  0  0  0
  2  3  4  0  0  0  0
  3  4  4  0  0  0  0
  3 25  1  0  0  0  0
  4  5  4  0  0  0  0
  4  7  4  0  0  0  0
  5  6  4  0  0  0  0
  5  9  4  0  0  0  0
  7  8  4  0  0  0  0
  7 26  1  0  0  0  0
  8  9  4  0  0  0  0
  9 10  1  0  0  0  0
 10 11  4  0  0  0  0
 10 15  4  0  0  0  0
 11 12  4  0  0  0  0
 11 27  1  0  0  0  0
 12 13  4  0  0  0  0
 12 28  1  0  0  0  0
 13 14  4  0  0  0  0
 13 16  1  0  0  0  0
 14 15  4  0  0  0  0
 14 29  1  0  0  0  0
 15 30  1  0  0  0  0
 16 17  1  0  0  0  0
 17 31  1  0  0  0  0
 17 32  1  0  0  0  0
 17 33  1  0  0  0  0
 18 19  1  0  0  0  0
 18 34  1  0  0  0  0
 19 20  1  0  0  0  0
 19 23  1  0  0  0  0
 19 35  1  0  0  0  0
 20 21  1  0  0  0  0
 20 36  1  0  0  0  0
 20 37  1  0  0  0  0
 21 22  1  0  0  0  0
 21 38  1  0  0  0  0
 21 39  1  0  0  0  0
 22 23  1  0  0  0  0
 22 24  1  0  0  0  0
 22 40  1  0  0  0  0
 23 41  1  0  0  0  0
 23 42  1  0  0  0  0
 24 43  1  0  0  0  0
 24 44  1  0  0  0  0
M  END
> <ConfClashScore>
0 

> <ConfOneFourInteractionScore>
-0.981848 

> <ConfScore>
-0.068938 

> <ConfScorePBest>
0.0042863 

> <ConfTolerance>
0.209668 

$$$$
c22.sdf
 OpenBabel04162418103D

 44 47  0  0  0  0  0  0  0  0999 V2000
    4.3809    0.4261    1.2477 C   0  0  0  1  0  0  0  0  0  0  0  0
    3.7254    0.3018    2.4061 N   0  0  0  1  0  0  0  0  0  0  0  0
    4.1726    1.0047    3.4659 C   0  0  0  1  0  0  0  0  0  0  0  0
    5.3121    1.8444    3.2972 C   0  0  0  1  0  0  0  0  0  0  0  0
    5.8653    1.8559    2.0226 C   0  0  0  1  0  0  0  0  0  0  0  0
    5.4430    1.1564    0.9426 N   0  0  0  1  0  0  0  0  0  0  0  0
    6.1169    2.7397    4.0303 C   0  0  0  1  0  0  0  0  0  0  0  0
    7.0755    3.2505    3.2926 N   0  0  0  1  0  0  0  0  0  0  0  0
    6.9189    2.7029    2.0494 N   0  0  0  1  0  0  0  0  0  0  0  0
    7.7488    2.9850    0.9393 C   0  0  0  1  0  0  0  0  0  0  0  0
    8.5502    2.0247    0.3512 C   0  0  0  1  0  0  0  0  0  0  0  0
    9.3405    2.3545   -0.7388 C   0  0  0  1  0  0  0  0  0  0  0  0
    9.3312    3.6447   -1.2343 C   0  0  0  1  0  0  0  0  0  0  0  0
    8.5273    4.6077   -0.6444 C   0  0  0  1  0  0  0  0  0  0  0  0
    7.7392    4.2791    0.4425 C   0  0  0  1  0  0  0  0  0  0  0  0
   10.0616    4.0842   -2.2865 O   0  0  0  1  0  0  0  0  0  0  0  0
   11.1396    3.2467   -2.7325 C   0  0  0  1  0  0  0  0  0  0  0  0
    3.8844   -0.3048    0.2334 N   0  0  0  1  0  0  0  0  0  0  0  0
    4.4384   -0.3014   -1.1245 C   0  0  0  1  0  0  0  0  0  0  0  0
    3.3183   -0.4222   -2.1613 C   0  0  0  1  0  0  0  0  0  0  0  0
    4.0796   -0.9982   -3.3624 C   0  0  0  1  0  0  0  0  0  0  0  0
    5.0203   -2.0357   -2.7622 C   0  0  0  1  0  0  0  0  0  0  0  0
    5.3282   -1.5346   -1.3464 C   0  0  0  1  0  0  0  0  0  0  0  0
    6.2740   -2.1312   -3.5666 N   0  0  0  1  0  0  0  0  0  0  0  0
    3.6961    0.9358    4.3877 H   0  0  0  1  0  0  0  0  0  0  0  0
    5.9693    2.9680    5.0342 H   0  0  0  1  0  0  0  0  0  0  0  0
    8.5603    1.0549    0.7265 H   0  0  0  1  0  0  0  0  0  0  0  0
    9.9405    1.6310   -1.1838 H   0  0  0  1  0  0  0  0  0  0  0  0
    8.5172    5.5776   -1.0196 H   0  0  0  1  0  0  0  0  0  0  0  0
    7.1392    5.0026    0.8875 H   0  0  0  1  0  0  0  0  0  0  0  0
   11.9251    3.2584   -2.0060 H   0  0  0  1  0  0  0  0  0  0  0  0
   11.5124    3.6125   -3.6664 H   0  0  0  1  0  0  0  0  0  0  0  0
   10.7846    2.2450   -2.8574 H   0  0  0  1  0  0  0  0  0  0  0  0
    3.1064   -0.8732    0.4124 H   0  0  0  1  0  0  0  0  0  0  0  0
    4.9978    0.5975   -1.2798 H   0  0  0  1  0  0  0  0  0  0  0  0
    2.5486   -1.0876   -1.8302 H   0  0  0  1  0  0  0  0  0  0  0  0
    2.8917    0.5321   -2.3895 H   0  0  0  1  0  0  0  0  0  0  0  0
    4.6336   -0.2306   -3.8612 H   0  0  0  1  0  0  0  0  0  0  0  0
    3.4033   -1.4569   -4.0530 H   0  0  0  1  0  0  0  0  0  0  0  0
    4.5458   -2.9941   -2.7251 H   0  0  0  1  0  0  0  0  0  0  0  0
    5.0979   -2.2922   -0.6267 H   0  0  0  1  0  0  0  0  0  0  0  0
    6.3608   -1.2663   -1.2645 H   0  0  0  1  0  0  0  0  0  0  0  0
    6.0475   -2.2349   -4.5144 H   0  0  0  1  0  0  0  0  0  0  0  0
    6.7947   -2.9061   -3.2687 H   0  0  0  1  0  0  0  0  0  0  0  0
  1  2  4  0  0  0  0
  1  6  4  0  0  0  0
  1 18  1  0  0  0  0
  2  3  4  0  0  0  0
  3  4  4  0  0  0  0
  3 25  1  0  0  0  0
  4  5  4  0  0  0  0
  4  7  4  0  0  0  0
  5  6  4  0  0  0  0
  5  9  4  0  0  0  0
  7  8  4  0  0  0  0
  7 26  1  0  0  0  0
  8  9  4  0  0  0  0
  9 10  1  0  0  0  0
 10 11  4  0  0  0  0
 10 15  4  0  0  0  0
 11 12  4  0  0  0  0
 11 27  1  0  0  0  0
 12 13  4  0  0  0  0
 12 28  1  0  0  0  0
 13 14  4  0  0  0  0
 13 16  1  0  0  0  0
 14 15  4  0  0  0  0
 14 29  1  0  0  0  0
 15 30  1  0  0  0  0
 16 17  1  0  0  0  0
 17 31  1  0  0  0  0
 17 32  1  0  0  0  0
 17 33  1  0  0  0  0
 18 19  1  0  0  0  0
 18 34  1  0  0  0  0
 19 20  1  0  0  0  0
 19 23  1  0  0  0  0
 19 35  1  0  0  0  0
 20 21  1  0  0  0  0
 20 36  1  0  0  0  0
 20 37  1  0  0  0  0
 21 22  1  0  0  0  0
 21 38  1  0  0  0  0
 21 39  1  0  0  0  0
 22 23  1  0  0  0  0
 22 24  1  0  0  0  0
 22 40  1  0  0  0  0
 23 41  1  0  0  0  0
 23 42  1  0  0  0  0
 24 43  1  0  0  0  0
 24 44  1  0  0  0  0
M  END
> <ConfClashScore>
0 

> <ConfOneFourInteractionScore>
-0.984337 

> <ConfScore>
-0.0676652 

> <ConfScorePBest>
0.00427297 

> <ConfTolerance>
0.281914 

$$$$
c22.sdf
 OpenBabel04162418103D

 44 47  0  0  0  0  0  0  0  0999 V2000
    5.1257    0.5239    1.0317 C   0  0  0  1  0  0  0  0  0  0  0  0
    4.6076    0.8134    2.2295 N   0  0  0  1  0  0  0  0  0  0  0  0
    5.4539    1.1691    3.2168 C   0  0  0  1  0  0  0  0  0  0  0  0
    6.8498    1.2235    2.9335 C   0  0  0  1  0  0  0  0  0  0  0  0
    7.2111    0.8953    1.6326 C   0  0  0  1  0  0  0  0  0  0  0  0
    6.3858    0.5280    0.6237 N   0  0  0  1  0  0  0  0  0  0  0  0
    8.0725    1.5314    3.5636 C   0  0  0  1  0  0  0  0  0  0  0  0
    9.0901    1.4020    2.7440 N   0  0  0  1  0  0  0  0  0  0  0  0
    8.5560    1.0083    1.5484 N   0  0  0  1  0  0  0  0  0  0  0  0
    9.3150    0.7514    0.3712 C   0  0  0  1  0  0  0  0  0  0  0  0
    9.0960    1.5006   -0.7693 C   0  0  0  1  0  0  0  0  0  0  0  0
    9.8386    1.2541   -1.9136 C   0  0  0  1  0  0  0  0  0  0  0  0
   10.7942    0.2556   -1.9156 C   0  0  0  1  0  0  0  0  0  0  0  0
   11.0138   -0.4958   -0.7716 C   0  0  0  1  0  0  0  0  0  0  0  0
   10.2734   -0.2501    0.3694 C   0  0  0  1  0  0  0  0  0  0  0  0
   11.4500    0.1040   -3.0869 O   0  0  0  1  0  0  0  0  0  0  0  0
   12.5931   -0.7631   -3.1503 C   0  0  0  1  0  0  0  0  0  0  0  0
    4.2141    0.1687    0.0810 N   0  0  0  1  0  0  0  0  0  0  0  0
    4.6213   -0.2387   -1.2523 C   0  0  0  1  0  0  0  0  0  0  0  0
    3.4212   -0.3696   -2.1801 C   0  0  0  1  0  0  0  0  0  0  0  0
    3.8354   -1.3265   -3.2897 C   0  0  0  1  0  0  0  0  0  0  0  0
    5.0463   -2.0938   -2.7549 C   0  0  0  1  0  0  0  0  0  0  0  0
    5.2003   -1.7028   -1.2499 C   0  0  0  1  0  0  0  0  0  0  0  0
    6.2755   -1.7095   -3.5147 N   0  0  0  1  0  0  0  0  0  0  0  0
    5.0956    1.3990    4.1656 H   0  0  0  1  0  0  0  0  0  0  0  0
    8.1582    1.8254    4.5575 H   0  0  0  1  0  0  0  0  0  0  0  0
    8.3742    2.2493   -0.7691 H   0  0  0  1  0  0  0  0  0  0  0  0
    9.6766    1.8206   -2.7706 H   0  0  0  1  0  0  0  0  0  0  0  0
   11.7356   -1.2445   -0.7718 H   0  0  0  1  0  0  0  0  0  0  0  0
   10.4353   -0.8166    1.2264 H   0  0  0  1  0  0  0  0  0  0  0  0
   12.9866   -0.7633   -4.1453 H   0  0  0  1  0  0  0  0  0  0  0  0
   12.3017   -1.7572   -2.8821 H   0  0  0  1  0  0  0  0  0  0  0  0
   13.3426   -0.4150   -2.4706 H   0  0  0  1  0  0  0  0  0  0  0  0
    3.2599    0.1889    0.3034 H   0  0  0  1  0  0  0  0  0  0  0  0
    5.3347    0.4600   -1.6369 H   0  0  0  1  0  0  0  0  0  0  0  0
    2.5823   -0.7642   -1.6458 H   0  0  0  1  0  0  0  0  0  0  0  0
    3.1661    0.5847   -2.5913 H   0  0  0  1  0  0  0  0  0  0  0  0
    4.1007   -0.7810   -4.1711 H   0  0  0  1  0  0  0  0  0  0  0  0
    3.0369   -2.0024   -3.5148 H   0  0  0  1  0  0  0  0  0  0  0  0
    4.8845   -3.1475   -2.8468 H   0  0  0  1  0  0  0  0  0  0  0  0
    6.2256   -1.7182   -0.9441 H   0  0  0  1  0  0  0  0  0  0  0  0
    4.6290   -2.3490   -0.6168 H   0  0  0  1  0  0  0  0  0  0  0  0
    6.0901   -1.7453   -4.4763 H   0  0  0  1  0  0  0  0  0  0  0  0
    7.0008   -2.3322   -3.2987 H   0  0  0  1  0  0  0  0  0  0  0  0
  1  2  4  0  0  0  0
  1  6  4  0  0  0  0
  1 18  1  0  0  0  0
  2  3  4  0  0  0  0
  3  4  4  0  0  0  0
  3 25  1  0  0  0  0
  4  5  4  0  0  0  0
  4  7  4  0  0  0  0
  5  6  4  0  0  0  0
  5  9  4  0  0  0  0
  7  8  4  0  0  0  0
  7 26  1  0  0  0  0
  8  9  4  0  0  0  0
  9 10  1  0  0  0  0
 10 11  4  0  0  0  0
 10 15  4  0  0  0  0
 11 12  4  0  0  0  0
 11 27  1  0  0  0  0
 12 13  4  0  0  0  0
 12 28  1  0  0  0  0
 13 14  4  0  0  0  0
 13 16  1  0  0  0  0
 14 15  4  0  0  0  0
 14 29  1  0  0  0  0
 15 30  1  0  0  0  0
 16 17  1  0  0  0  0
 17 31  1  0  0  0  0
 17 32  1  0  0  0  0
 17 33  1  0  0  0  0
 18 19  1  0  0  0  0
 18 34  1  0  0  0  0
 19 20  1  0  0  0  0
 19 23  1  0  0  0  0
 19 35  1  0  0  0  0
 20 21  1  0  0  0  0
 20 36  1  0  0  0  0
 20 37  1  0  0  0  0
 21 22  1  0  0  0  0
 21 38  1  0  0  0  0
 21 39  1  0  0  0  0
 22 23  1  0  0  0  0
 22 24  1  0  0  0  0
 22 40  1  0  0  0  0
 23 41  1  0  0  0  0
 23 42  1  0  0  0  0
 24 43  1  0  0  0  0
 24 44  1  0  0  0  0
M  END
> <ConfClashScore>
0 

> <ConfOneFourInteractionScore>
-0.984337 

> <ConfScore>
-0.0670759 

> <ConfScorePBest>
0.00425964 

> <ConfTolerance>
0.23611 

$$$$
c22.sdf
 OpenBabel04162418103D

 44 47  0  0  0  0  0  0  0  0999 V2000
    4.5482   -0.4930    1.3298 C   0  0  0  1  0  0  0  0  0  0  0  0
    5.8459   -0.2736    1.0953 N   0  0  0  1  0  0  0  0  0  0  0  0
    6.6772   -0.1979    2.1539 C   0  0  0  1  0  0  0  0  0  0  0  0
    6.1344   -0.3605    3.4618 C   0  0  0  1  0  0  0  0  0  0  0  0
    4.7646   -0.5865    3.5190 C   0  0  0  1  0  0  0  0  0  0  0  0
    3.9047   -0.6603    2.4753 N   0  0  0  1  0  0  0  0  0  0  0  0
    6.5443   -0.3852    4.8102 C   0  0  0  1  0  0  0  0  0  0  0  0
    5.5354   -0.5973    5.6233 N   0  0  0  1  0  0  0  0  0  0  0  0
    4.4337   -0.7220    4.8230 N   0  0  0  1  0  0  0  0  0  0  0  0
    3.1146   -0.9624    5.2991 C   0  0  0  1  0  0  0  0  0  0  0  0
    2.4746   -2.1453    4.9807 C   0  0  0  1  0  0  0  0  0  0  0  0
    1.2298   -2.4269    5.5218 C   0  0  0  1  0  0  0  0  0  0  0  0
    0.6264   -1.5226    6.3753 C   0  0  0  1  0  0  0  0  0  0  0  0
    1.2685   -0.3363    6.6944 C   0  0  0  1  0  0  0  0  0  0  0  0
    2.5097   -0.0554    6.1551 C   0  0  0  1  0  0  0  0  0  0  0  0
   -0.6015   -1.9073    6.8411 O   0  0  0  1  0  0  0  0  0  0  0  0
   -1.1917   -0.9390    7.7223 C   0  0  0  1  0  0  0  0  0  0  0  0
    3.7535   -0.5552    0.1996 N   0  0  0  1  0  0  0  0  0  0  0  0
    4.3911   -0.3266   -1.0990 C   0  0  0  1  0  0  0  0  0  0  0  0
    3.3600   -0.4511   -2.2258 C   0  0  0  1  0  0  0  0  0  0  0  0
    4.1224   -1.0991   -3.3698 C   0  0  0  1  0  0  0  0  0  0  0  0
    4.9874   -2.1275   -2.6330 C   0  0  0  1  0  0  0  0  0  0  0  0
    5.4520   -1.4025   -1.3669 C   0  0  0  1  0  0  0  0  0  0  0  0
    6.1627   -2.5312   -3.4741 N   0  0  0  1  0  0  0  0  0  0  0  0
    7.6937   -0.0246    2.0190 H   0  0  0  1  0  0  0  0  0  0  0  0
    7.5271   -0.2516    5.1232 H   0  0  0  1  0  0  0  0  0  0  0  0
    2.9268   -2.8240    4.3354 H   0  0  0  1  0  0  0  0  0  0  0  0
    0.7499   -3.3188    5.2854 H   0  0  0  1  0  0  0  0  0  0  0  0
    0.8164    0.3424    7.3398 H   0  0  0  1  0  0  0  0  0  0  0  0
    2.9896    0.8365    6.3914 H   0  0  0  1  0  0  0  0  0  0  0  0
   -2.1653   -1.2708    8.0169 H   0  0  0  1  0  0  0  0  0  0  0  0
   -1.2731    0.0003    7.2165 H   0  0  0  1  0  0  0  0  0  0  0  0
   -0.5762   -0.8252    8.5902 H   0  0  0  1  0  0  0  0  0  0  0  0
    2.7945   -0.7461    0.2655 H   0  0  0  1  0  0  0  0  0  0  0  0
    4.8379    0.6455   -1.1114 H   0  0  0  1  0  0  0  0  0  0  0  0
    2.5398   -1.0670   -1.9213 H   0  0  0  1  0  0  0  0  0  0  0  0
    2.9954    0.5131   -2.5127 H   0  0  0  1  0  0  0  0  0  0  0  0
    4.7258   -0.3842   -3.8891 H   0  0  0  1  0  0  0  0  0  0  0  0
    3.4573   -1.5740   -4.0605 H   0  0  0  1  0  0  0  0  0  0  0  0
    4.4127   -2.9947   -2.3827 H   0  0  0  1  0  0  0  0  0  0  0  0
    5.5086   -2.0849   -0.5446 H   0  0  0  1  0  0  0  0  0  0  0  0
    6.4099   -0.9523   -1.5239 H   0  0  0  1  0  0  0  0  0  0  0  0
    6.7047   -1.7410   -3.6797 H   0  0  0  1  0  0  0  0  0  0  0  0
    5.8439   -2.9344   -4.3085 H   0  0  0  1  0  0  0  0  0  0  0  0
  1  2  4  0  0  0  0
  1  6  4  0  0  0  0
  1 18  1  0  0  0  0
  2  3  4  0  0  0  0
  3  4  4  0  0  0  0
  3 25  1  0  0  0  0
  4  5  4  0  0  0  0
  4  7  4  0  0  0  0
  5  6  4  0  0  0  0
  5  9  4  0  0  0  0
  7  8  4  0  0  0  0
  7 26  1  0  0  0  0
  8  9  4  0  0  0  0
  9 10  1  0  0  0  0
 10 11  4  0  0  0  0
 10 15  4  0  0  0  0
 11 12  4  0  0  0  0
 11 27  1  0  0  0  0
 12 13  4  0  0  0  0
 12 28  1  0  0  0  0
 13 14  4  0  0  0  0
 13 16  1  0  0  0  0
 14 15  4  0  0  0  0
 14 29  1  0  0  0  0
 15 30  1  0  0  0  0
 16 17  1  0  0  0  0
 17 31  1  0  0  0  0
 17 32  1  0  0  0  0
 17 33  1  0  0  0  0
 18 19  1  0  0  0  0
 18 34  1  0  0  0  0
 19 20  1  0  0  0  0
 19 23  1  0  0  0  0
 19 35  1  0  0  0  0
 20 21  1  0  0  0  0
 20 36  1  0  0  0  0
 20 37  1  0  0  0  0
 21 22  1  0  0  0  0
 21 38  1  0  0  0  0
 21 39  1  0  0  0  0
 22 23  1  0  0  0  0
 22 24  1  0  0  0  0
 22 40  1  0  0  0  0
 23 41  1  0  0  0  0
 23 42  1  0  0  0  0
 24 43  1  0  0  0  0
 24 44  1  0  0  0  0
M  END
> <ConfClashScore>
0 

> <ConfOneFourInteractionScore>
-0.981848 

> <ConfScore>
-0.0659356 

> <ConfScorePBest>
0.00424631 

> <ConfTolerance>
0.308606 

$$$$
c22.sdf
 OpenBabel04162418103D

 44 47  0  0  0  0  0  0  0  0999 V2000
    4.0504   -1.4236    1.2634 C   0  0  0  1  0  0  0  0  0  0  0  0
    3.1798   -1.9116    2.1528 N   0  0  0  1  0  0  0  0  0  0  0  0
    3.6400   -2.2364    3.3775 C   0  0  0  1  0  0  0  0  0  0  0  0
    5.0227   -2.0391    3.6623 C   0  0  0  1  0  0  0  0  0  0  0  0
    5.7811   -1.5176    2.6214 C   0  0  0  1  0  0  0  0  0  0  0  0
    5.3487   -1.1892    1.3807 N   0  0  0  1  0  0  0  0  0  0  0  0
    5.9444   -2.1906    4.7180 C   0  0  0  1  0  0  0  0  0  0  0  0
    7.1520   -1.8103    4.3699 N   0  0  0  1  0  0  0  0  0  0  0  0
    7.0500   -1.3935    3.0715 N   0  0  0  1  0  0  0  0  0  0  0  0
    8.1359   -0.8951    2.2966 C   0  0  0  1  0  0  0  0  0  0  0  0
    9.3345   -1.5824    2.2643 C   0  0  0  1  0  0  0  0  0  0  0  0
   10.3897   -1.1001    1.5057 C   0  0  0  1  0  0  0  0  0  0  0  0
   10.2450    0.0709    0.7859 C   0  0  0  1  0  0  0  0  0  0  0  0
    9.0427    0.7602    0.8184 C   0  0  0  1  0  0  0  0  0  0  0  0
    7.9905    0.2793    1.5748 C   0  0  0  1  0  0  0  0  0  0  0  0
   11.1736    0.6734    0.0059 O   0  0  0  1  0  0  0  0  0  0  0  0
   12.4197   -0.0153   -0.1818 C   0  0  0  1  0  0  0  0  0  0  0  0
    3.5185   -1.1197    0.0445 N   0  0  0  1  0  0  0  0  0  0  0  0
    4.3017   -0.4346   -0.9888 C   0  0  0  1  0  0  0  0  0  0  0  0
    3.4531   -0.2598   -2.2798 C   0  0  0  1  0  0  0  0  0  0  0  0
    4.1041   -1.1431   -3.3586 C   0  0  0  1  0  0  0  0  0  0  0  0
    5.0113   -2.1357   -2.6061 C   0  0  0  1  0  0  0  0  0  0  0  0
    5.5424   -1.3008   -1.3919 C   0  0  0  1  0  0  0  0  0  0  0  0
    6.1377   -2.5908   -3.4732 N   0  0  0  1  0  0  0  0  0  0  0  0
    2.9994   -2.6231    4.0998 H   0  0  0  1  0  0  0  0  0  0  0  0
    5.6977   -2.5590    5.6587 H   0  0  0  1  0  0  0  0  0  0  0  0
    9.4448   -2.4614    2.8091 H   0  0  0  1  0  0  0  0  0  0  0  0
   11.2903   -1.6194    1.4782 H   0  0  0  1  0  0  0  0  0  0  0  0
    8.9324    1.6392    0.2736 H   0  0  0  1  0  0  0  0  0  0  0  0
    7.0899    0.7986    1.6023 H   0  0  0  1  0  0  0  0  0  0  0  0
   12.2607   -0.8826   -0.7880 H   0  0  0  1  0  0  0  0  0  0  0  0
   12.8098   -0.3120    0.7693 H   0  0  0  1  0  0  0  0  0  0  0  0
   13.1171    0.6354   -0.6667 H   0  0  0  1  0  0  0  0  0  0  0  0
    2.5891   -1.3656   -0.1455 H   0  0  0  1  0  0  0  0  0  0  0  0
    4.6193    0.5193   -0.6225 H   0  0  0  1  0  0  0  0  0  0  0  0
    2.4455   -0.5743   -2.1042 H   0  0  0  1  0  0  0  0  0  0  0  0
    3.4588    0.7646   -2.5890 H   0  0  0  1  0  0  0  0  0  0  0  0
    4.6846   -0.5440   -4.0287 H   0  0  0  1  0  0  0  0  0  0  0  0
    3.3536   -1.6703   -3.9097 H   0  0  0  1  0  0  0  0  0  0  0  0
    4.4530   -2.9847   -2.2708 H   0  0  0  1  0  0  0  0  0  0  0  0
    5.8423   -1.9399   -0.5879 H   0  0  0  1  0  0  0  0  0  0  0  0
    6.3654   -0.6816   -1.6820 H   0  0  0  1  0  0  0  0  0  0  0  0
    6.5851   -1.8115   -3.8642 H   0  0  0  1  0  0  0  0  0  0  0  0
    5.7883   -3.1603   -4.1901 H   0  0  0  1  0  0  0  0  0  0  0  0
  1  2  4  0  0  0  0
  1  6  4  0  0  0  0
  1 18  1  0  0  0  0
  2  3  4  0  0  0  0
  3  4  4  0  0  0  0
  3 25  1  0  0  0  0
  4  5  4  0  0  0  0
  4  7  4  0  0  0  0
  5  6  4  0  0  0  0
  5  9  4  0  0  0  0
  7  8  4  0  0  0  0
  7 26  1  0  0  0  0
  8  9  4  0  0  0  0
  9 10  1  0  0  0  0
 10 11  4  0  0  0  0
 10 15  4  0  0  0  0
 11 12  4  0  0  0  0
 11 27  1  0  0  0  0
 12 13  4  0  0  0  0
 12 28  1  0  0  0  0
 13 14  4  0  0  0  0
 13 16  1  0  0  0  0
 14 15  4  0  0  0  0
 14 29  1  0  0  0  0
 15 30  1  0  0  0  0
 16 17  1  0  0  0  0
 17 31  1  0  0  0  0
 17 32  1  0  0  0  0
 17 33  1  0  0  0  0
 18 19  1  0  0  0  0
 18 34  1  0  0  0  0
 19 20  1  0  0  0  0
 19 23  1  0  0  0  0
 19 35  1  0  0  0  0
 20 21  1  0  0  0  0
 20 36  1  0  0  0  0
 20 37  1  0  0  0  0
 21 22  1  0  0  0  0
 21 38  1  0  0  0  0
 21 39  1  0  0  0  0
 22 23  1  0  0  0  0
 22 24  1  0  0  0  0
 22 40  1  0  0  0  0
 23 41  1  0  0  0  0
 23 42  1  0  0  0  0
 24 43  1  0  0  0  0
 24 44  1  0  0  0  0
M  END
> <ConfClashScore>
0 

> <ConfOneFourInteractionScore>
-0.981848 

> <ConfScore>
-0.0659356 

> <ConfScorePBest>
0.00423299 

> <ConfTolerance>
0.256408 

$$$$
c22.sdf
 OpenBabel04162418103D

 44 47  0  0  0  0  0  0  0  0999 V2000
    3.5320   -1.7129    0.9656 C   0  0  0  1  0  0  0  0  0  0  0  0
    4.8081   -1.7104    1.3641 N   0  0  0  1  0  0  0  0  0  0  0  0
    5.0967   -2.2421    2.5688 C   0  0  0  1  0  0  0  0  0  0  0  0
    4.0334   -2.7819    3.3498 C   0  0  0  1  0  0  0  0  0  0  0  0
    2.7697   -2.7046    2.7776 C   0  0  0  1  0  0  0  0  0  0  0  0
    2.4489   -2.1709    1.5749 N   0  0  0  1  0  0  0  0  0  0  0  0
    3.8138   -3.4243    4.5851 C   0  0  0  1  0  0  0  0  0  0  0  0
    2.5455   -3.7113    4.7673 N   0  0  0  1  0  0  0  0  0  0  0  0
    1.8996   -3.2654    3.6475 N   0  0  0  1  0  0  0  0  0  0  0  0
    0.4971   -3.3770    3.4269 C   0  0  0  1  0  0  0  0  0  0  0  0
   -0.2290   -4.3429    4.0977 C   0  0  0  1  0  0  0  0  0  0  0  0
   -1.6075   -4.3925    3.9617 C   0  0  0  1  0  0  0  0  0  0  0  0
   -2.2555   -3.4796    3.1511 C   0  0  0  1  0  0  0  0  0  0  0  0
   -1.5271   -2.5109    2.4783 C   0  0  0  1  0  0  0  0  0  0  0  0
   -0.1525   -2.4613    2.6139 C   0  0  0  1  0  0  0  0  0  0  0  0
   -3.5968   -3.6290    3.0922 O   0  0  0  1  0  0  0  0  0  0  0  0
   -4.3536   -2.8560    2.1476 C   0  0  0  1  0  0  0  0  0  0  0  0
    3.3152   -1.1675   -0.2365 N   0  0  0  1  0  0  0  0  0  0  0  0
    4.2978   -0.4631   -1.0616 C   0  0  0  1  0  0  0  0  0  0  0  0
    3.7207   -0.1025   -2.4366 C   0  0  0  1  0  0  0  0  0  0  0  0
    3.7612   -1.4048   -3.2264 C   0  0  0  1  0  0  0  0  0  0  0  0
    4.9466   -2.1907   -2.6541 C   0  0  0  1  0  0  0  0  0  0  0  0
    5.4599   -1.3797   -1.4537 C   0  0  0  1  0  0  0  0  0  0  0  0
    6.0128   -2.3279   -3.6749 N   0  0  0  1  0  0  0  0  0  0  0  0
    6.0750   -2.2581    2.9212 H   0  0  0  1  0  0  0  0  0  0  0  0
    4.5654   -3.6445    5.2694 H   0  0  0  1  0  0  0  0  0  0  0  0
    0.2589   -5.0323    4.7045 H   0  0  0  1  0  0  0  0  0  0  0  0
   -2.1544   -5.1169    4.4696 H   0  0  0  1  0  0  0  0  0  0  0  0
   -2.0150   -1.8214    1.8715 H   0  0  0  1  0  0  0  0  0  0  0  0
    0.3943   -1.7370    2.1060 H   0  0  0  1  0  0  0  0  0  0  0  0
   -3.8752   -2.8926    1.1912 H   0  0  0  1  0  0  0  0  0  0  0  0
   -4.4079   -1.8405    2.4803 H   0  0  0  1  0  0  0  0  0  0  0  0
   -5.3416   -3.2589    2.0675 H   0  0  0  1  0  0  0  0  0  0  0  0
    2.4090   -1.2476   -0.6008 H   0  0  0  1  0  0  0  0  0  0  0  0
    4.6432    0.4061   -0.5419 H   0  0  0  1  0  0  0  0  0  0  0  0
    4.3191    0.6460   -2.9124 H   0  0  0  1  0  0  0  0  0  0  0  0
    2.7150    0.2507   -2.3427 H   0  0  0  1  0  0  0  0  0  0  0  0
    3.9108   -1.2069   -4.2672 H   0  0  0  1  0  0  0  0  0  0  0  0
    2.8508   -1.9513   -3.0940 H   0  0  0  1  0  0  0  0  0  0  0  0
    4.6289   -3.1619   -2.3367 H   0  0  0  1  0  0  0  0  0  0  0  0
    5.7145   -2.0300   -0.6431 H   0  0  0  1  0  0  0  0  0  0  0  0
    6.3166   -0.8016   -1.7305 H   0  0  0  1  0  0  0  0  0  0  0  0
    6.8038   -2.7397   -3.2685 H   0  0  0  1  0  0  0  0  0  0  0  0
    6.2480   -1.4422   -4.0223 H   0  0  0  1  0  0  0  0  0  0  0  0
  1  2  4  0  0  0  0
  1  6  4  0  0  0  0
  1 18  1  0  0  0  0
  2  3  4  0  0  0  0
  3  4  4  0  0  0  0
  3 25  1  0  0  0  0
  4  5  4  0  0  0  0
  4  7  4  0  0  0  0
  5  6  4  0  0  0  0
  5  9  4  0  0  0  0
  7  8  4  0  0  0  0
  7 26  1  0  0  0  0
  8  9  4  0  0  0  0
  9 10  1  0  0  0  0
 10 11  4  0  0  0  0
 10 15  4  0  0  0  0
 11 12  4  0  0  0  0
 11 27  1  0  0  0  0
 12 13  4  0  0  0  0
 12 28  1  0  0  0  0
 13 14  4  0  0  0  0
 13 16  1  0  0  0  0
 14 15  4  0  0  0  0
 14 29  1  0  0  0  0
 15 30  1  0  0  0  0
 16 17  1  0  0  0  0
 17 31  1  0  0  0  0
 17 32  1  0  0  0  0
 17 33  1  0  0  0  0
 18 19  1  0  0  0  0
 18 34  1  0  0  0  0
 19 20  1  0  0  0  0
 19 23  1  0  0  0  0
 19 35  1  0  0  0  0
 20 21  1  0  0  0  0
 20 36  1  0  0  0  0
 20 37  1  0  0  0  0
 21 22  1  0  0  0  0
 21 38  1  0  0  0  0
 21 39  1  0  0  0  0
 22 23  1  0  0  0  0
 22 24  1  0  0  0  0
 22 40  1  0  0  0  0
 23 41  1  0  0  0  0
 23 42  1  0  0  0  0
 24 43  1  0  0  0  0
 24 44  1  0  0  0  0
M  END
> <ConfClashScore>
0 

> <ConfOneFourInteractionScore>
-0.985399 

> <ConfScore>
-0.0642809 

> <ConfScorePBest>
0.00421966 

> <ConfTolerance>
0.197269 

$$$$
c22.sdf
 OpenBabel04162418103D

 44 47  0  0  0  0  0  0  0  0999 V2000
    4.2101   -1.4936    1.1587 C   0  0  0  1  0  0  0  0  0  0  0  0
    3.4050   -2.0997    2.0370 N   0  0  0  1  0  0  0  0  0  0  0  0
    3.9361   -2.5070    3.2072 C   0  0  0  1  0  0  0  0  0  0  0  0
    5.3201   -2.2672    3.4496 C   0  0  0  1  0  0  0  0  0  0  0  0
    6.0046   -1.6201    2.4282 C   0  0  0  1  0  0  0  0  0  0  0  0
    5.5004   -1.2063    1.2413 N   0  0  0  1  0  0  0  0  0  0  0  0
    6.2959   -2.4645    4.4474 C   0  0  0  1  0  0  0  0  0  0  0  0
    7.4674   -1.9961    4.0839 N   0  0  0  1  0  0  0  0  0  0  0  0
    7.2862   -1.4732    2.8335 N   0  0  0  1  0  0  0  0  0  0  0  0
    8.3041   -0.8601    2.0660 C   0  0  0  1  0  0  0  0  0  0  0  0
    8.2085   -0.9465    0.6900 C   0  0  0  1  0  0  0  0  0  0  0  0
    9.1761   -0.3588   -0.1100 C   0  0  0  1  0  0  0  0  0  0  0  0
   10.2391    0.3089    0.4683 C   0  0  0  1  0  0  0  0  0  0  0  0
   10.3347    0.3954    1.8485 C   0  0  0  1  0  0  0  0  0  0  0  0
    9.3701   -0.1905    2.6463 C   0  0  0  1  0  0  0  0  0  0  0  0
   11.2435    0.9154   -0.2078 O   0  0  0  1  0  0  0  0  0  0  0  0
   11.1471    0.9429   -1.6405 C   0  0  0  1  0  0  0  0  0  0  0  0
    3.6115   -1.1129    0.0010 N   0  0  0  1  0  0  0  0  0  0  0  0
    4.3518   -0.4188   -1.0568 C   0  0  0  1  0  0  0  0  0  0  0  0
    3.4491   -0.1962   -2.2720 C   0  0  0  1  0  0  0  0  0  0  0  0
    4.0061   -1.0836   -3.3768 C   0  0  0  1  0  0  0  0  0  0  0  0
    4.8766   -2.1293   -2.6935 C   0  0  0  1  0  0  0  0  0  0  0  0
    5.5506   -1.2972   -1.5393 C   0  0  0  1  0  0  0  0  0  0  0  0
    5.9097   -2.6856   -3.6420 N   0  0  0  1  0  0  0  0  0  0  0  0
    3.3480   -2.9865    3.9185 H   0  0  0  1  0  0  0  0  0  0  0  0
    6.1104   -2.9254    5.3611 H   0  0  0  1  0  0  0  0  0  0  0  0
    7.4108   -1.4524    0.2548 H   0  0  0  1  0  0  0  0  0  0  0  0
    9.1021   -0.4204   -1.1456 H   0  0  0  1  0  0  0  0  0  0  0  0
   11.1324    0.9012    2.2837 H   0  0  0  1  0  0  0  0  0  0  0  0
    9.4440   -0.1290    3.6819 H   0  0  0  1  0  0  0  0  0  0  0  0
   11.9285    1.5554   -2.0393 H   0  0  0  1  0  0  0  0  0  0  0  0
   10.1977    1.3453   -1.9262 H   0  0  0  1  0  0  0  0  0  0  0  0
   11.2433   -0.0517   -2.0233 H   0  0  0  1  0  0  0  0  0  0  0  0
    2.6601   -1.3073   -0.1308 H   0  0  0  1  0  0  0  0  0  0  0  0
    4.7085    0.5195   -0.6864 H   0  0  0  1  0  0  0  0  0  0  0  0
    3.4755    0.8307   -2.5714 H   0  0  0  1  0  0  0  0  0  0  0  0
    2.4420   -0.4758   -2.0431 H   0  0  0  1  0  0  0  0  0  0  0  0
    4.5923   -0.5023   -4.0575 H   0  0  0  1  0  0  0  0  0  0  0  0
    3.2073   -1.5576   -3.9081 H   0  0  0  1  0  0  0  0  0  0  0  0
    4.2851   -2.9296   -2.3003 H   0  0  0  1  0  0  0  0  0  0  0  0
    6.3541   -0.6947   -1.9084 H   0  0  0  1  0  0  0  0  0  0  0  0
    5.9106   -1.9324   -0.7571 H   0  0  0  1  0  0  0  0  0  0  0  0
    6.3894   -3.4218   -3.2081 H   0  0  0  1  0  0  0  0  0  0  0  0
    6.5449   -1.9794   -3.8834 H   0  0  0  1  0  0  0  0  0  0  0  0
  1  2  4  0  0  0  0
  1  6  4  0  0  0  0
  1 18  1  0  0  0  0
  2  3  4  0  0  0  0
  3  4  4  0  0  0  0
  3 25  1  0  0  0  0
  4  5  4  0  0  0  0
  4  7  4  0  0  0  0
  5  6  4  0  0  0  0
  5  9  4  0  0  0  0
  7  8  4  0  0  0  0
  7 26  1  0  0  0  0
  8  9  4  0  0  0  0
  9 10  1  0  0  0  0
 10 11  4  0  0  0  0
 10 15  4  0  0  0  0
 11 12  4  0  0  0  0
 11 27  1  0  0  0  0
 12 13  4  0  0  0  0
 12 28  1  0  0  0  0
 13 14  4  0  0  0  0
 13 16  1  0  0  0  0
 14 15  4  0  0  0  0
 14 29  1  0  0  0  0
 15 30  1  0  0  0  0
 16 17  1  0  0  0  0
 17 31  1  0  0  0  0
 17 32  1  0  0  0  0
 17 33  1  0  0  0  0
 18 19  1  0  0  0  0
 18 34  1  0  0  0  0
 19 20  1  0  0  0  0
 19 23  1  0  0  0  0
 19 35  1  0  0  0  0
 20 21  1  0  0  0  0
 20 36  1  0  0  0  0
 20 37  1  0  0  0  0
 21 22  1  0  0  0  0
 21 38  1  0  0  0  0
 21 39  1  0  0  0  0
 22 23  1  0  0  0  0
 22 24  1  0  0  0  0
 22 40  1  0  0  0  0
 23 41  1  0  0  0  0
 23 42  1  0  0  0  0
 24 43  1  0  0  0  0
 24 44  1  0  0  0  0
M  END
> <ConfClashScore>
0 

> <ConfOneFourInteractionScore>
-0.981848 

> <ConfScore>
-0.0642809 

> <ConfScorePBest>
0.00420633 

> <ConfTolerance>
0.197024 

$$$$
c22.sdf
 OpenBabel04162418103D

 44 47  0  0  0  0  0  0  0  0999 V2000
    5.2647    0.2418    0.9543 C   0  0  0  1  0  0  0  0  0  0  0  0
    4.8790    0.7649    2.1225 N   0  0  0  1  0  0  0  0  0  0  0  0
    5.7901    0.8443    3.1129 C   0  0  0  1  0  0  0  0  0  0  0  0
    7.1126    0.3742    2.8639 C   0  0  0  1  0  0  0  0  0  0  0  0
    7.3388   -0.1338    1.5906 C   0  0  0  1  0  0  0  0  0  0  0  0
    6.4431   -0.2328    0.5796 N   0  0  0  1  0  0  0  0  0  0  0  0
    8.3595    0.2532    3.5099 C   0  0  0  1  0  0  0  0  0  0  0  0
    9.2663   -0.2807    2.7245 N   0  0  0  1  0  0  0  0  0  0  0  0
    8.6336   -0.5200    1.5361 N   0  0  0  1  0  0  0  0  0  0  0  0
    9.2513   -1.0948    0.4009 C   0  0  0  1  0  0  0  0  0  0  0  0
   10.5471   -0.7472    0.0691 C   0  0  0  1  0  0  0  0  0  0  0  0
   11.1542   -1.3146   -1.0404 C   0  0  0  1  0  0  0  0  0  0  0  0
   10.4621   -2.2240   -1.8178 C   0  0  0  1  0  0  0  0  0  0  0  0
    9.1624   -2.5725   -1.4847 C   0  0  0  1  0  0  0  0  0  0  0  0
    8.5569   -2.0068   -0.3786 C   0  0  0  1  0  0  0  0  0  0  0  0
   11.0160   -2.7027   -2.9570 O   0  0  0  1  0  0  0  0  0  0  0  0
   10.2503   -3.6577   -3.7080 C   0  0  0  1  0  0  0  0  0  0  0  0
    4.2791    0.1877   -0.0146 N   0  0  0  1  0  0  0  0  0  0  0  0
    4.6608   -0.2616   -1.3543 C   0  0  0  1  0  0  0  0  0  0  0  0
    3.4374   -0.3768   -2.2718 C   0  0  0  1  0  0  0  0  0  0  0  0
    3.7779   -1.3871   -3.3627 C   0  0  0  1  0  0  0  0  0  0  0  0
    4.9928   -2.1933   -2.7850 C   0  0  0  1  0  0  0  0  0  0  0  0
    5.1936   -1.7335   -1.3291 C   0  0  0  1  0  0  0  0  0  0  0  0
    6.1786   -1.9196   -3.5569 N   0  0  0  1  0  0  0  0  0  0  0  0
    5.5334    1.2403    4.0396 H   0  0  0  1  0  0  0  0  0  0  0  0
    8.5396    0.5507    4.4900 H   0  0  0  1  0  0  0  0  0  0  0  0
   11.0666   -0.0599    0.6516 H   0  0  0  1  0  0  0  0  0  0  0  0
   12.1307   -1.0561   -1.2878 H   0  0  0  1  0  0  0  0  0  0  0  0
    8.6428   -3.2598   -2.0673 H   0  0  0  1  0  0  0  0  0  0  0  0
    7.5804   -2.2653   -0.1311 H   0  0  0  1  0  0  0  0  0  0  0  0
    9.9625   -4.4665   -3.0692 H   0  0  0  1  0  0  0  0  0  0  0  0
   10.8433   -4.0346   -4.5149 H   0  0  0  1  0  0  0  0  0  0  0  0
    9.3745   -3.1837   -4.0994 H   0  0  0  1  0  0  0  0  0  0  0  0
    3.3550    0.4421    0.1893 H   0  0  0  1  0  0  0  0  0  0  0  0
    5.3895    0.4078   -1.7615 H   0  0  0  1  0  0  0  0  0  0  0  0
    2.5910   -0.7154   -1.7115 H   0  0  0  1  0  0  0  0  0  0  0  0
    3.2184    0.5744   -2.7101 H   0  0  0  1  0  0  0  0  0  0  0  0
    2.9479   -2.0360   -3.5496 H   0  0  0  1  0  0  0  0  0  0  0  0
    4.0518   -0.8877   -4.2685 H   0  0  0  1  0  0  0  0  0  0  0  0
    4.7830   -3.2421   -2.8124 H   0  0  0  1  0  0  0  0  0  0  0  0
    4.6258   -2.3374   -0.6524 H   0  0  0  1  0  0  0  0  0  0  0  0
    6.2273   -1.7646   -1.0542 H   0  0  0  1  0  0  0  0  0  0  0  0
    6.9339   -2.4217   -3.1856 H   0  0  0  1  0  0  0  0  0  0  0  0
    6.3762   -0.9603   -3.5229 H   0  0  0  1  0  0  0  0  0  0  0  0
  1  2  4  0  0  0  0
  1  6  4  0  0  0  0
  1 18  1  0  0  0  0
  2  3  4  0  0  0  0
  3  4  4  0  0  0  0
  3 25  1  0  0  0  0
  4  5  4  0  0  0  0
  4  7  4  0  0  0  0
  5  6  4  0  0  0  0
  5  9  4  0  0  0  0
  7  8  4  0  0  0  0
  7 26  1  0  0  0  0
  8  9  4  0  0  0  0
  9 10  1  0  0  0  0
 10 11  4  0  0  0  0
 10 15  4  0  0  0  0
 11 12  4  0  0  0  0
 11 27  1  0  0  0  0
 12 13  4  0  0  0  0
 12 28  1  0  0  0  0
 13 14  4  0  0  0  0
 13 16  1  0  0  0  0
 14 15  4  0  0  0  0
 14 29  1  0  0  0  0
 15 30  1  0  0  0  0
 16 17  1  0  0  0  0
 17 31  1  0  0  0  0
 17 32  1  0  0  0  0
 17 33  1  0  0  0  0
 18 19  1  0  0  0  0
 18 34  1  0  0  0  0
 19 20  1  0  0  0  0
 19 23  1  0  0  0  0
 19 35  1  0  0  0  0
 20 21  1  0  0  0  0
 20 36  1  0  0  0  0
 20 37  1  0  0  0  0
 21 22  1  0  0  0  0
 21 38  1  0  0  0  0
 21 39  1  0  0  0  0
 22 23  1  0  0  0  0
 22 24  1  0  0  0  0
 22 40  1  0  0  0  0
 23 41  1  0  0  0  0
 23 42  1  0  0  0  0
 24 43  1  0  0  0  0
 24 44  1  0  0  0  0
M  END
> <ConfClashScore>
0 

> <ConfOneFourInteractionScore>
-0.981848 

> <ConfScore>
-0.0642809 

> <ConfScorePBest>
0.004193 

> <ConfTolerance>
0.267143 

$$$$
c22.sdf
 OpenBabel04162418103D

 44 47  0  0  0  0  0  0  0  0999 V2000
    4.9546    1.1191    0.7494 C   0  0  0  1  0  0  0  0  0  0  0  0
    4.4166    1.4595    1.9249 N   0  0  0  1  0  0  0  0  0  0  0  0
    5.1048    2.3078    2.7149 C   0  0  0  1  0  0  0  0  0  0  0  0
    6.3616    2.8004    2.2569 C   0  0  0  1  0  0  0  0  0  0  0  0
    6.7651    2.3453    1.0077 C   0  0  0  1  0  0  0  0  0  0  0  0
    6.0997    1.4892    0.1962 N   0  0  0  1  0  0  0  0  0  0  0  0
    7.4006    3.6625    2.6619 C   0  0  0  1  0  0  0  0  0  0  0  0
    8.3551    3.7324    1.7629 N   0  0  0  1  0  0  0  0  0  0  0  0
    7.9608    2.9165    0.7388 N   0  0  0  1  0  0  0  0  0  0  0  0
    8.7091    2.6979   -0.4513 C   0  0  0  1  0  0  0  0  0  0  0  0
    9.9609    2.1160   -0.3845 C   0  0  0  1  0  0  0  0  0  0  0  0
   10.7255    1.9831   -1.5330 C   0  0  0  1  0  0  0  0  0  0  0  0
   10.2383    2.4373   -2.7441 C   0  0  0  1  0  0  0  0  0  0  0  0
    8.9827    3.0209   -2.8109 C   0  0  0  1  0  0  0  0  0  0  0  0
    8.2203    3.1535   -1.6658 C   0  0  0  1  0  0  0  0  0  0  0  0
   10.8935    2.3669   -3.9272 O   0  0  0  1  0  0  0  0  0  0  0  0
   12.2354    1.8557   -3.9047 C   0  0  0  1  0  0  0  0  0  0  0  0
    4.2074    0.2557    0.0030 N   0  0  0  1  0  0  0  0  0  0  0  0
    4.6698   -0.2371   -1.2954 C   0  0  0  1  0  0  0  0  0  0  0  0
    3.5054   -0.3119   -2.3018 C   0  0  0  1  0  0  0  0  0  0  0  0
    3.8880   -1.4055   -3.3146 C   0  0  0  1  0  0  0  0  0  0  0  0
    5.0174   -2.2471   -2.6563 C   0  0  0  1  0  0  0  0  0  0  0  0
    5.1592   -1.7212   -1.1882 C   0  0  0  1  0  0  0  0  0  0  0  0
    6.2995   -2.0607   -3.3978 N   0  0  0  1  0  0  0  0  0  0  0  0
    4.7266    2.5968    3.6396 H   0  0  0  1  0  0  0  0  0  0  0  0
    7.4100    4.1807    3.5635 H   0  0  0  1  0  0  0  0  0  0  0  0
   10.3292    1.7778    0.5275 H   0  0  0  1  0  0  0  0  0  0  0  0
   11.6658    1.5416   -1.4835 H   0  0  0  1  0  0  0  0  0  0  0  0
    8.6144    3.3591   -3.7228 H   0  0  0  1  0  0  0  0  0  0  0  0
    7.2799    3.5950   -1.7153 H   0  0  0  1  0  0  0  0  0  0  0  0
   12.2933    1.0342   -3.2217 H   0  0  0  1  0  0  0  0  0  0  0  0
   12.9058    2.6282   -3.5907 H   0  0  0  1  0  0  0  0  0  0  0  0
   12.5069    1.5240   -4.8851 H   0  0  0  1  0  0  0  0  0  0  0  0
    3.3387   -0.0423    0.3449 H   0  0  0  1  0  0  0  0  0  0  0  0
    5.4504    0.3970   -1.6608 H   0  0  0  1  0  0  0  0  0  0  0  0
    3.3828    0.6279   -2.7986 H   0  0  0  1  0  0  0  0  0  0  0  0
    2.5968   -0.5718   -1.8000 H   0  0  0  1  0  0  0  0  0  0  0  0
    4.2403   -0.9610   -4.2219 H   0  0  0  1  0  0  0  0  0  0  0  0
    3.0416   -2.0252   -3.5256 H   0  0  0  1  0  0  0  0  0  0  0  0
    4.7534   -3.2840   -2.6544 H   0  0  0  1  0  0  0  0  0  0  0  0
    6.1765   -1.7675   -0.8599 H   0  0  0  1  0  0  0  0  0  0  0  0
    4.5417   -2.2819   -0.5179 H   0  0  0  1  0  0  0  0  0  0  0  0
    6.5476   -1.1127   -3.3890 H   0  0  0  1  0  0  0  0  0  0  0  0
    6.1873   -2.3603   -4.3241 H   0  0  0  1  0  0  0  0  0  0  0  0
  1  2  4  0  0  0  0
  1  6  4  0  0  0  0
  1 18  1  0  0  0  0
  2  3  4  0  0  0  0
  3  4  4  0  0  0  0
  3 25  1  0  0  0  0
  4  5  4  0  0  0  0
  4  7  4  0  0  0  0
  5  6  4  0  0  0  0
  5  9  4  0  0  0  0
  7  8  4  0  0  0  0
  7 26  1  0  0  0  0
  8  9  4  0  0  0  0
  9 10  1  0  0  0  0
 10 11  4  0  0  0  0
 10 15  4  0  0  0  0
 11 12  4  0  0  0  0
 11 27  1  0  0  0  0
 12 13  4  0  0  0  0
 12 28  1  0  0  0  0
 13 14  4  0  0  0  0
 13 16  1  0  0  0  0
 14 15  4  0  0  0  0
 14 29  1  0  0  0  0
 15 30  1  0  0  0  0
 16 17  1  0  0  0  0
 17 31  1  0  0  0  0
 17 32  1  0  0  0  0
 17 33  1  0  0  0  0
 18 19  1  0  0  0  0
 18 34  1  0  0  0  0
 19 20  1  0  0  0  0
 19 23  1  0  0  0  0
 19 35  1  0  0  0  0
 20 21  1  0  0  0  0
 20 36  1  0  0  0  0
 20 37  1  0  0  0  0
 21 22  1  0  0  0  0
 21 38  1  0  0  0  0
 21 39  1  0  0  0  0
 22 23  1  0  0  0  0
 22 24  1  0  0  0  0
 22 40  1  0  0  0  0
 23 41  1  0  0  0  0
 23 42  1  0  0  0  0
 24 43  1  0  0  0  0
 24 44  1  0  0  0  0
M  END
> <ConfClashScore>
0 

> <ConfOneFourInteractionScore>
-0.984337 

> <ConfScore>
-0.0638817 

> <ConfScorePBest>
0.00417967 

> <ConfTolerance>
0.344312 

$$$$
c22.sdf
 OpenBabel04162418103D

 44 47  0  0  0  0  0  0  0  0999 V2000
    3.4878   -1.3045    1.2442 C   0  0  0  1  0  0  0  0  0  0  0  0
    2.4597   -1.8712    1.8836 N   0  0  0  1  0  0  0  0  0  0  0  0
    2.5265   -1.9726    3.2261 C   0  0  0  1  0  0  0  0  0  0  0  0
    3.6812   -1.4683    3.8927 C   0  0  0  1  0  0  0  0  0  0  0  0
    4.6509   -0.9069    3.0711 C   0  0  0  1  0  0  0  0  0  0  0  0
    4.6146   -0.7978    1.7217 N   0  0  0  1  0  0  0  0  0  0  0  0
    4.2050   -1.3228    5.1932 C   0  0  0  1  0  0  0  0  0  0  0  0
    5.3808   -0.7385    5.1832 N   0  0  0  1  0  0  0  0  0  0  0  0
    5.6562   -0.4811    3.8688 N   0  0  0  1  0  0  0  0  0  0  0  0
    6.8438    0.1513    3.4021 C   0  0  0  1  0  0  0  0  0  0  0  0
    6.7631    1.1814    2.4842 C   0  0  0  1  0  0  0  0  0  0  0  0
    7.9187    1.8004    2.0340 C   0  0  0  1  0  0  0  0  0  0  0  0
    9.1520    1.3842    2.4989 C   0  0  0  1  0  0  0  0  0  0  0  0
    9.2327    0.3510    3.4196 C   0  0  0  1  0  0  0  0  0  0  0  0
    8.0805   -0.2664    3.8685 C   0  0  0  1  0  0  0  0  0  0  0  0
   10.2023    2.0550    1.9875 O   0  0  0  1  0  0  0  0  0  0  0  0
   11.4939    1.4540    2.2392 C   0  0  0  1  0  0  0  0  0  0  0  0
    3.3565   -1.2379   -0.1055 N   0  0  0  1  0  0  0  0  0  0  0  0
    4.2647   -0.4917   -0.9778 C   0  0  0  1  0  0  0  0  0  0  0  0
    3.5903   -0.1566   -2.3183 C   0  0  0  1  0  0  0  0  0  0  0  0
    4.1132   -1.1293   -3.3635 C   0  0  0  1  0  0  0  0  0  0  0  0
    4.9722   -2.1526   -2.5963 C   0  0  0  1  0  0  0  0  0  0  0  0
    5.4493   -1.3478   -1.3903 C   0  0  0  1  0  0  0  0  0  0  0  0
    6.1262   -2.6182   -3.4253 N   0  0  0  1  0  0  0  0  0  0  0  0
    1.7516   -2.4099    3.7645 H   0  0  0  1  0  0  0  0  0  0  0  0
    3.7189   -1.6398    6.0562 H   0  0  0  1  0  0  0  0  0  0  0  0
    5.8354    1.4920    2.1313 H   0  0  0  1  0  0  0  0  0  0  0  0
    7.8578    2.5782    1.3463 H   0  0  0  1  0  0  0  0  0  0  0  0
   10.1604    0.0403    3.7725 H   0  0  0  1  0  0  0  0  0  0  0  0
    8.1413   -1.0442    4.5562 H   0  0  0  1  0  0  0  0  0  0  0  0
   12.2013    1.8140    1.5217 H   0  0  0  1  0  0  0  0  0  0  0  0
   11.4138    0.3901    2.1580 H   0  0  0  1  0  0  0  0  0  0  0  0
   11.8218    1.7133    3.2241 H   0  0  0  1  0  0  0  0  0  0  0  0
    2.6095   -1.7178   -0.5202 H   0  0  0  1  0  0  0  0  0  0  0  0
    4.5892    0.3974   -0.4788 H   0  0  0  1  0  0  0  0  0  0  0  0
    3.8293    0.8465   -2.6041 H   0  0  0  1  0  0  0  0  0  0  0  0
    2.5291   -0.2585   -2.2262 H   0  0  0  1  0  0  0  0  0  0  0  0
    3.2993   -1.6207   -3.8546 H   0  0  0  1  0  0  0  0  0  0  0  0
    4.7080   -0.6129   -4.0877 H   0  0  0  1  0  0  0  0  0  0  0  0
    4.3883   -2.9958   -2.2914 H   0  0  0  1  0  0  0  0  0  0  0  0
    5.7329   -2.0024   -0.5929 H   0  0  0  1  0  0  0  0  0  0  0  0
    6.2811   -0.7304   -1.6586 H   0  0  0  1  0  0  0  0  0  0  0  0
    6.6440   -1.8437   -3.7294 H   0  0  0  1  0  0  0  0  0  0  0  0
    5.7914   -3.1125   -4.2025 H   0  0  0  1  0  0  0  0  0  0  0  0
  1  2  4  0  0  0  0
  1  6  4  0  0  0  0
  1 18  1  0  0  0  0
  2  3  4  0  0  0  0
  3  4  4  0  0  0  0
  3 25  1  0  0  0  0
  4  5  4  0  0  0  0
  4  7  4  0  0  0  0
  5  6  4  0  0  0  0
  5  9  4  0  0  0  0
  7  8  4  0  0  0  0
  7 26  1  0  0  0  0
  8  9  4  0  0  0  0
  9 10  1  0  0  0  0
 10 11  4  0  0  0  0
 10 15  4  0  0  0  0
 11 12  4  0  0  0  0
 11 27  1  0  0  0  0
 12 13  4  0  0  0  0
 12 28  1  0  0  0  0
 13 14  4  0  0  0  0
 13 16  1  0  0  0  0
 14 15  4  0  0  0  0
 14 29  1  0  0  0  0
 15 30  1  0  0  0  0
 16 17  1  0  0  0  0
 17 31  1  0  0  0  0
 17 32  1  0  0  0  0
 17 33  1  0  0  0  0
 18 19  1  0  0  0  0
 18 34  1  0  0  0  0
 19 20  1  0  0  0  0
 19 23  1  0  0  0  0
 19 35  1  0  0  0  0
 20 21  1  0  0  0  0
 20 36  1  0  0  0  0
 20 37  1  0  0  0  0
 21 22  1  0  0  0  0
 21 38  1  0  0  0  0
 21 39  1  0  0  0  0
 22 23  1  0  0  0  0
 22 24  1  0  0  0  0
 22 40  1  0  0  0  0
 23 41  1  0  0  0  0
 23 42  1  0  0  0  0
 24 43  1  0  0  0  0
 24 44  1  0  0  0  0
M  END
> <ConfClashScore>
0 

> <ConfOneFourInteractionScore>
-0.984337 

> <ConfScore>
-0.0638817 

> <ConfScorePBest>
0.00416634 

> <ConfTolerance>
0.287846 

$$$$
c22.sdf
 OpenBabel04162418103D

 44 47  0  0  0  0  0  0  0  0999 V2000
    2.7114   -0.4972    0.8834 C   0  0  0  1  0  0  0  0  0  0  0  0
    2.7627    0.8361    0.8006 N   0  0  0  1  0  0  0  0  0  0  0  0
    1.9645    1.5529    1.6168 C   0  0  0  1  0  0  0  0  0  0  0  0
    1.1150    0.8570    2.5256 C   0  0  0  1  0  0  0  0  0  0  0  0
    1.1949   -0.5294    2.4794 C   0  0  0  1  0  0  0  0  0  0  0  0
    1.9804   -1.2757    1.6669 N   0  0  0  1  0  0  0  0  0  0  0  0
    0.1653    1.1141    3.5349 C   0  0  0  1  0  0  0  0  0  0  0  0
   -0.3032    0.0047    4.0583 N   0  0  0  1  0  0  0  0  0  0  0  0
    0.3350   -1.0126    3.4044 N   0  0  0  1  0  0  0  0  0  0  0  0
    0.1245   -2.3826    3.6604 C   0  0  0  1  0  0  0  0  0  0  0  0
    1.1384   -3.2208    4.0841 C   0  0  0  1  0  0  0  0  0  0  0  0
    0.8746   -4.5599    4.3265 C   0  0  0  1  0  0  0  0  0  0  0  0
   -0.4009   -5.0581    4.1393 C   0  0  0  1  0  0  0  0  0  0  0  0
   -1.4178   -4.2172    3.7143 C   0  0  0  1  0  0  0  0  0  0  0  0
   -1.1549   -2.8820    3.4726 C   0  0  0  1  0  0  0  0  0  0  0  0
   -0.7749   -6.3409    4.3377 O   0  0  0  1  0  0  0  0  0  0  0  0
    0.2336   -7.3446    4.5987 C   0  0  0  1  0  0  0  0  0  0  0  0
    3.5418   -1.1594    0.0272 N   0  0  0  1  0  0  0  0  0  0  0  0
    4.3119   -0.4518   -1.0008 C   0  0  0  1  0  0  0  0  0  0  0  0
    3.4388   -0.2613   -2.2898 C   0  0  0  1  0  0  0  0  0  0  0  0
    4.1168   -1.1334   -3.3417 C   0  0  0  1  0  0  0  0  0  0  0  0
    5.0068   -2.1387   -2.6007 C   0  0  0  1  0  0  0  0  0  0  0  0
    5.5432   -1.2842   -1.4035 C   0  0  0  1  0  0  0  0  0  0  0  0
    6.1154   -2.6118   -3.4623 N   0  0  0  1  0  0  0  0  0  0  0  0
    1.9683    2.5924    1.5841 H   0  0  0  1  0  0  0  0  0  0  0  0
   -0.1289    2.0672    3.8294 H   0  0  0  1  0  0  0  0  0  0  0  0
    2.0991   -2.8469    4.2211 H   0  0  0  1  0  0  0  0  0  0  0  0
    1.6367   -5.1898    4.6492 H   0  0  0  1  0  0  0  0  0  0  0  0
   -2.3785   -4.5911    3.5773 H   0  0  0  1  0  0  0  0  0  0  0  0
   -1.9169   -2.2521    3.1499 H   0  0  0  1  0  0  0  0  0  0  0  0
   -0.2118   -8.1753    5.1051 H   0  0  0  1  0  0  0  0  0  0  0  0
    1.0039   -6.9249    5.2115 H   0  0  0  1  0  0  0  0  0  0  0  0
    0.6548   -7.6759    3.6726 H   0  0  0  1  0  0  0  0  0  0  0  0
    3.6258   -2.1330    0.1011 H   0  0  0  1  0  0  0  0  0  0  0  0
    4.6208    0.5005   -0.6235 H   0  0  0  1  0  0  0  0  0  0  0  0
    2.4344   -0.5878   -2.1180 H   0  0  0  1  0  0  0  0  0  0  0  0
    3.4337    0.7642   -2.5950 H   0  0  0  1  0  0  0  0  0  0  0  0
    4.7129   -0.5265   -3.9906 H   0  0  0  1  0  0  0  0  0  0  0  0
    3.3788   -1.6530   -3.9165 H   0  0  0  1  0  0  0  0  0  0  0  0
    4.4399   -2.9779   -2.2552 H   0  0  0  1  0  0  0  0  0  0  0  0
    5.8659   -1.9098   -0.5976 H   0  0  0  1  0  0  0  0  0  0  0  0
    6.3508   -0.6535   -1.7116 H   0  0  0  1  0  0  0  0  0  0  0  0
    6.6020   -1.8410   -3.8220 H   0  0  0  1  0  0  0  0  0  0  0  0
    5.7509   -3.1417   -4.2017 H   0  0  0  1  0  0  0  0  0  0  0  0
  1  2  4  0  0  0  0
  1  6  4  0  0  0  0
  1 18  1  0  0  0  0
  2  3  4  0  0  0  0
  3  4  4  0  0  0  0
  3 25  1  0  0  0  0
  4  5  4  0  0  0  0
  4  7  4  0  0  0  0
  5  6  4  0  0  0  0
  5  9  4  0  0  0  0
  7  8  4  0  0  0  0
  7 26  1  0  0  0  0
  8  9  4  0  0  0  0
  9 10  1  0  0  0  0
 10 11  4  0  0  0  0
 10 15  4  0  0  0  0
 11 12  4  0  0  0  0
 11 27  1  0  0  0  0
 12 13  4  0  0  0  0
 12 28  1  0  0  0  0
 13 14  4  0  0  0  0
 13 16  1  0  0  0  0
 14 15  4  0  0  0  0
 14 29  1  0  0  0  0
 15 30  1  0  0  0  0
 16 17  1  0  0  0  0
 17 31  1  0  0  0  0
 17 32  1  0  0  0  0
 17 33  1  0  0  0  0
 18 19  1  0  0  0  0
 18 34  1  0  0  0  0
 19 20  1  0  0  0  0
 19 23  1  0  0  0  0
 19 35  1  0  0  0  0
 20 21  1  0  0  0  0
 20 36  1  0  0  0  0
 20 37  1  0  0  0  0
 21 22  1  0  0  0  0
 21 38  1  0  0  0  0
 21 39  1  0  0  0  0
 22 23  1  0  0  0  0
 22 24  1  0  0  0  0
 22 40  1  0  0  0  0
 23 41  1  0  0  0  0
 23 42  1  0  0  0  0
 24 43  1  0  0  0  0
 24 44  1  0  0  0  0
M  END
> <ConfClashScore>
0 

> <ConfOneFourInteractionScore>
-0.984337 

> <ConfScore>
-0.0634236 

> <ConfScorePBest>
0.00415302 

> <ConfTolerance>
0.324701 

$$$$
c22.sdf
 OpenBabel04162418103D

 44 47  0  0  0  0  0  0  0  0999 V2000
    4.4428    0.6201    1.0762 C   0  0  0  1  0  0  0  0  0  0  0  0
    5.4355    1.4178    0.6696 N   0  0  0  1  0  0  0  0  0  0  0  0
    5.9652    2.2763    1.5637 C   0  0  0  1  0  0  0  0  0  0  0  0
    5.4468    2.2861    2.8915 C   0  0  0  1  0  0  0  0  0  0  0  0
    4.4181    1.3858    3.1404 C   0  0  0  1  0  0  0  0  0  0  0  0
    3.8617    0.5181    2.2620 N   0  0  0  1  0  0  0  0  0  0  0  0
    5.6449    2.9335    4.1278 C   0  0  0  1  0  0  0  0  0  0  0  0
    4.8217    2.4889    5.0490 N   0  0  0  1  0  0  0  0  0  0  0  0
    4.0624    1.5304    4.4369 N   0  0  0  1  0  0  0  0  0  0  0  0
    3.0409    0.7888    5.0751 C   0  0  0  1  0  0  0  0  0  0  0  0
    2.0009    0.2638    4.3316 C   0  0  0  1  0  0  0  0  0  0  0  0
    1.0027   -0.4675    4.9563 C   0  0  0  1  0  0  0  0  0  0  0  0
    1.0445   -0.6671    6.3234 C   0  0  0  1  0  0  0  0  0  0  0  0
    2.0877   -0.1404    7.0689 C   0  0  0  1  0  0  0  0  0  0  0  0
    3.0831    0.5888    6.4462 C   0  0  0  1  0  0  0  0  0  0  0  0
    0.0167   -1.3893    6.8203 O   0  0  0  1  0  0  0  0  0  0  0  0
   -0.0040   -1.7211    8.2174 C   0  0  0  1  0  0  0  0  0  0  0  0
    3.9583   -0.2084    0.1336 N   0  0  0  1  0  0  0  0  0  0  0  0
    4.4898   -0.2996   -1.2151 C   0  0  0  1  0  0  0  0  0  0  0  0
    3.3518   -0.3515   -2.2380 C   0  0  0  1  0  0  0  0  0  0  0  0
    4.0438   -1.0340   -3.4250 C   0  0  0  1  0  0  0  0  0  0  0  0
    4.8926   -2.1329   -2.7979 C   0  0  0  1  0  0  0  0  0  0  0  0
    5.2609   -1.6158   -1.4024 C   0  0  0  1  0  0  0  0  0  0  0  0
    6.1141   -2.3675   -3.6028 N   0  0  0  1  0  0  0  0  0  0  0  0
    6.7364    2.9184    1.2905 H   0  0  0  1  0  0  0  0  0  0  0  0
    6.3569    3.6738    4.2906 H   0  0  0  1  0  0  0  0  0  0  0  0
    1.9672    0.4173    3.3036 H   0  0  0  1  0  0  0  0  0  0  0  0
    0.2222   -0.8660    4.3963 H   0  0  0  1  0  0  0  0  0  0  0  0
    2.1214   -0.2939    8.0970 H   0  0  0  1  0  0  0  0  0  0  0  0
    3.8636    0.9873    7.0061 H   0  0  0  1  0  0  0  0  0  0  0  0
   -0.8892   -2.2801    8.4387 H   0  0  0  1  0  0  0  0  0  0  0  0
    0.0041   -0.8220    8.7975 H   0  0  0  1  0  0  0  0  0  0  0  0
    0.8576   -2.3086    8.4570 H   0  0  0  1  0  0  0  0  0  0  0  0
    3.2020   -0.7846    0.3710 H   0  0  0  1  0  0  0  0  0  0  0  0
    5.1271    0.5387   -1.4053 H   0  0  0  1  0  0  0  0  0  0  0  0
    3.0114    0.6299   -2.4949 H   0  0  0  1  0  0  0  0  0  0  0  0
    2.5284   -0.9324   -1.8782 H   0  0  0  1  0  0  0  0  0  0  0  0
    3.3207   -1.4513   -4.0942 H   0  0  0  1  0  0  0  0  0  0  0  0
    4.6598   -0.3372   -3.9542 H   0  0  0  1  0  0  0  0  0  0  0  0
    4.3331   -3.0421   -2.7245 H   0  0  0  1  0  0  0  0  0  0  0  0
    4.9705   -2.3250   -0.6556 H   0  0  0  1  0  0  0  0  0  0  0  0
    6.3145   -1.4406   -1.3381 H   0  0  0  1  0  0  0  0  0  0  0  0
    6.6077   -3.1295   -3.2338 H   0  0  0  1  0  0  0  0  0  0  0  0
    6.6805   -1.5682   -3.5769 H   0  0  0  1  0  0  0  0  0  0  0  0
  1  2  4  0  0  0  0
  1  6  4  0  0  0  0
  1 18  1  0  0  0  0
  2  3  4  0  0  0  0
  3  4  4  0  0  0  0
  3 25  1  0  0  0  0
  4  5  4  0  0  0  0
  4  7  4  0  0  0  0
  5  6  4  0  0  0  0
  5  9  4  0  0  0  0
  7  8  4  0  0  0  0
  7 26  1  0  0  0  0
  8  9  4  0  0  0  0
  9 10  1  0  0  0  0
 10 11  4  0  0  0  0
 10 15  4  0  0  0  0
 11 12  4  0  0  0  0
 11 27  1  0  0  0  0
 12 13  4  0  0  0  0
 12 28  1  0  0  0  0
 13 14  4  0  0  0  0
 13 16  1  0  0  0  0
 14 15  4  0  0  0  0
 14 29  1  0  0  0  0
 15 30  1  0  0  0  0
 16 17  1  0  0  0  0
 17 31  1  0  0  0  0
 17 32  1  0  0  0  0
 17 33  1  0  0  0  0
 18 19  1  0  0  0  0
 18 34  1  0  0  0  0
 19 20  1  0  0  0  0
 19 23  1  0  0  0  0
 19 35  1  0  0  0  0
 20 21  1  0  0  0  0
 20 36  1  0  0  0  0
 20 37  1  0  0  0  0
 21 22  1  0  0  0  0
 21 38  1  0  0  0  0
 21 39  1  0  0  0  0
 22 23  1  0  0  0  0
 22 24  1  0  0  0  0
 22 40  1  0  0  0  0
 23 41  1  0  0  0  0
 23 42  1  0  0  0  0
 24 43  1  0  0  0  0
 24 44  1  0  0  0  0
M  END
> <ConfClashScore>
0 

> <ConfOneFourInteractionScore>
-0.984337 

> <ConfScore>
-0.0631516 

> <ConfScorePBest>
0.00413969 

> <ConfTolerance>
0.244008 

$$$$
c22.sdf
 OpenBabel04162418103D

 44 47  0  0  0  0  0  0  0  0999 V2000
    4.4392   -0.0715    1.3163 C   0  0  0  1  0  0  0  0  0  0  0  0
    5.6708    0.4231    1.1567 N   0  0  0  1  0  0  0  0  0  0  0  0
    6.3372    0.8309    2.2553 C   0  0  0  1  0  0  0  0  0  0  0  0
    5.7005    0.7095    3.5249 C   0  0  0  1  0  0  0  0  0  0  0  0
    4.4208    0.1687    3.5049 C   0  0  0  1  0  0  0  0  0  0  0  0
    3.7246   -0.2423    2.4183 N   0  0  0  1  0  0  0  0  0  0  0  0
    5.9493    0.9559    4.8902 C   0  0  0  1  0  0  0  0  0  0  0  0
    4.9294    0.6115    5.6421 N   0  0  0  1  0  0  0  0  0  0  0  0
    3.9833    0.1240    4.7836 N   0  0  0  1  0  0  0  0  0  0  0  0
    2.7071   -0.3657    5.1830 C   0  0  0  1  0  0  0  0  0  0  0  0
    1.6498   -0.3451    4.2932 C   0  0  0  1  0  0  0  0  0  0  0  0
    0.4089   -0.8266    4.6803 C   0  0  0  1  0  0  0  0  0  0  0  0
    0.2276   -1.3224    5.9577 C   0  0  0  1  0  0  0  0  0  0  0  0
    1.2883   -1.3430    6.8500 C   0  0  0  1  0  0  0  0  0  0  0  0
    2.5255   -0.8628    6.4641 C   0  0  0  1  0  0  0  0  0  0  0  0
   -0.9290   -1.8104    6.4464 O   0  0  0  1  0  0  0  0  0  0  0  0
   -2.0786   -1.6379    5.5855 C   0  0  0  1  0  0  0  0  0  0  0  0
    3.8303   -0.4558    0.1800 N   0  0  0  1  0  0  0  0  0  0  0  0
    4.4297   -0.3246   -1.1552 C   0  0  0  1  0  0  0  0  0  0  0  0
    3.3542   -0.3985   -2.2318 C   0  0  0  1  0  0  0  0  0  0  0  0
    4.0537   -1.0398   -3.4373 C   0  0  0  1  0  0  0  0  0  0  0  0
    4.8891   -2.1277   -2.7572 C   0  0  0  1  0  0  0  0  0  0  0  0
    5.3704   -1.5016   -1.4387 C   0  0  0  1  0  0  0  0  0  0  0  0
    6.0534   -2.5054   -3.6130 N   0  0  0  1  0  0  0  0  0  0  0  0
    7.2962    1.2259    2.1782 H   0  0  0  1  0  0  0  0  0  0  0  0
    6.8338    1.3613    5.2577 H   0  0  0  1  0  0  0  0  0  0  0  0
    1.7851    0.0316    3.3333 H   0  0  0  1  0  0  0  0  0  0  0  0
   -0.3857   -0.8149    4.0095 H   0  0  0  1  0  0  0  0  0  0  0  0
    1.1530   -1.7197    7.8099 H   0  0  0  1  0  0  0  0  0  0  0  0
    3.3202   -0.8745    7.1349 H   0  0  0  1  0  0  0  0  0  0  0  0
   -1.7636   -1.6464    4.5630 H   0  0  0  1  0  0  0  0  0  0  0  0
   -2.5513   -0.7034    5.8051 H   0  0  0  1  0  0  0  0  0  0  0  0
   -2.7713   -2.4363    5.7516 H   0  0  0  1  0  0  0  0  0  0  0  0
    2.9340   -0.8463    0.2466 H   0  0  0  1  0  0  0  0  0  0  0  0
    4.9602    0.6024   -1.2190 H   0  0  0  1  0  0  0  0  0  0  0  0
    2.9993    0.5804   -2.4784 H   0  0  0  1  0  0  0  0  0  0  0  0
    2.5345   -1.0039   -1.9054 H   0  0  0  1  0  0  0  0  0  0  0  0
    3.3470   -1.4598   -4.1221 H   0  0  0  1  0  0  0  0  0  0  0  0
    4.6731   -0.3346   -3.9511 H   0  0  0  1  0  0  0  0  0  0  0  0
    4.2914   -2.9941   -2.5647 H   0  0  0  1  0  0  0  0  0  0  0  0
    6.3778   -1.1552   -1.5388 H   0  0  0  1  0  0  0  0  0  0  0  0
    5.3163   -2.2186   -0.6463 H   0  0  0  1  0  0  0  0  0  0  0  0
    6.6874   -3.0363   -3.0871 H   0  0  0  1  0  0  0  0  0  0  0  0
    6.4972   -1.6940   -3.9370 H   0  0  0  1  0  0  0  0  0  0  0  0
  1  2  4  0  0  0  0
  1  6  4  0  0  0  0
  1 18  1  0  0  0  0
  2  3  4  0  0  0  0
  3  4  4  0  0  0  0
  3 25  1  0  0  0  0
  4  5  4  0  0  0  0
  4  7  4  0  0  0  0
  5  6  4  0  0  0  0
  5  9  4  0  0  0  0
  7  8  4  0  0  0  0
  7 26  1  0  0  0  0
  8  9  4  0  0  0  0
  9 10  1  0  0  0  0
 10 11  4  0  0  0  0
 10 15  4  0  0  0  0
 11 12  4  0  0  0  0
 11 27  1  0  0  0  0
 12 13  4  0  0  0  0
 12 28  1  0  0  0  0
 13 14  4  0  0  0  0
 13 16  1  0  0  0  0
 14 15  4  0  0  0  0
 14 29  1  0  0  0  0
 15 30  1  0  0  0  0
 16 17  1  0  0  0  0
 17 31  1  0  0  0  0
 17 32  1  0  0  0  0
 17 33  1  0  0  0  0
 18 19  1  0  0  0  0
 18 34  1  0  0  0  0
 19 20  1  0  0  0  0
 19 23  1  0  0  0  0
 19 35  1  0  0  0  0
 20 21  1  0  0  0  0
 20 36  1  0  0  0  0
 20 37  1  0  0  0  0
 21 22  1  0  0  0  0
 21 38  1  0  0  0  0
 21 39  1  0  0  0  0
 22 23  1  0  0  0  0
 22 24  1  0  0  0  0
 22 40  1  0  0  0  0
 23 41  1  0  0  0  0
 23 42  1  0  0  0  0
 24 43  1  0  0  0  0
 24 44  1  0  0  0  0
M  END
> <ConfClashScore>
0 

> <ConfOneFourInteractionScore>
-0.984337 

> <ConfScore>
-0.0622271 

> <ConfScorePBest>
0.00412636 

> <ConfTolerance>
0.308944 

$$$$
c22.sdf
 OpenBabel04162418103D

 44 47  0  0  0  0  0  0  0  0999 V2000
    4.0844   -1.0157    1.3117 C   0  0  0  1  0  0  0  0  0  0  0  0
    3.3654   -1.7637    2.1547 N   0  0  0  1  0  0  0  0  0  0  0  0
    3.7185   -1.7693    3.4557 C   0  0  0  1  0  0  0  0  0  0  0  0
    4.8308   -0.9776    3.8652 C   0  0  0  1  0  0  0  0  0  0  0  0
    5.4593   -0.2586    2.8559 C   0  0  0  1  0  0  0  0  0  0  0  0
    5.1323   -0.2389    1.5419 N   0  0  0  1  0  0  0  0  0  0  0  0
    5.5523   -0.6415    5.0285 C   0  0  0  1  0  0  0  0  0  0  0  0
    6.5322    0.1937    4.7708 N   0  0  0  1  0  0  0  0  0  0  0  0
    6.4739    0.4304    3.4253 N   0  0  0  1  0  0  0  0  0  0  0  0
    7.3573    1.2828    2.7226 C   0  0  0  1  0  0  0  0  0  0  0  0
    7.9847    2.3228    3.3821 C   0  0  0  1  0  0  0  0  0  0  0  0
    8.8545    3.1548    2.6946 C   0  0  0  1  0  0  0  0  0  0  0  0
    9.0905    2.9476    1.3486 C   0  0  0  1  0  0  0  0  0  0  0  0
    8.4612    1.9044    0.6873 C   0  0  0  1  0  0  0  0  0  0  0  0
    7.5938    1.0748    1.3727 C   0  0  0  1  0  0  0  0  0  0  0  0
    9.9465    3.7987    0.7348 O   0  0  0  1  0  0  0  0  0  0  0  0
   10.2987    3.5069   -0.6265 C   0  0  0  1  0  0  0  0  0  0  0  0
    3.6791   -1.0588    0.0245 N   0  0  0  1  0  0  0  0  0  0  0  0
    4.3811   -0.4073   -1.0677 C   0  0  0  1  0  0  0  0  0  0  0  0
    3.4474   -0.2196   -2.2692 C   0  0  0  1  0  0  0  0  0  0  0  0
    3.9987   -1.1200   -3.3860 C   0  0  0  1  0  0  0  0  0  0  0  0
    4.8826   -2.1477   -2.6741 C   0  0  0  1  0  0  0  0  0  0  0  0
    5.5168   -1.2888   -1.5724 C   0  0  0  1  0  0  0  0  0  0  0  0
    5.9007   -2.6991   -3.5785 N   0  0  0  1  0  0  0  0  0  0  0  0
    3.1901   -2.3397    4.1464 H   0  0  0  1  0  0  0  0  0  0  0  0
    5.3349   -1.0104    5.9762 H   0  0  0  1  0  0  0  0  0  0  0  0
    7.8041    2.4812    4.3939 H   0  0  0  1  0  0  0  0  0  0  0  0
    9.3297    3.9350    3.1917 H   0  0  0  1  0  0  0  0  0  0  0  0
    8.6417    1.7460   -0.3245 H   0  0  0  1  0  0  0  0  0  0  0  0
    7.1186    0.2946    0.8756 H   0  0  0  1  0  0  0  0  0  0  0  0
   11.1682    2.8836   -0.6447 H   0  0  0  1  0  0  0  0  0  0  0  0
   10.5037    4.4200   -1.1452 H   0  0  0  1  0  0  0  0  0  0  0  0
    9.4865    2.9995   -1.1039 H   0  0  0  1  0  0  0  0  0  0  0  0
    2.8631   -1.5591   -0.1854 H   0  0  0  1  0  0  0  0  0  0  0  0
    4.7592    0.5372   -0.7363 H   0  0  0  1  0  0  0  0  0  0  0  0
    3.4484    0.8033   -2.5832 H   0  0  0  1  0  0  0  0  0  0  0  0
    2.4509   -0.5139   -2.0137 H   0  0  0  1  0  0  0  0  0  0  0  0
    4.5760   -0.5457   -4.0801 H   0  0  0  1  0  0  0  0  0  0  0  0
    3.1992   -1.6075   -3.9037 H   0  0  0  1  0  0  0  0  0  0  0  0
    4.3009   -2.9457   -2.2622 H   0  0  0  1  0  0  0  0  0  0  0  0
    5.8947   -1.9055   -0.7838 H   0  0  0  1  0  0  0  0  0  0  0  0
    6.3103   -0.6910   -1.9698 H   0  0  0  1  0  0  0  0  0  0  0  0
    6.4990   -3.2905   -3.0758 H   0  0  0  1  0  0  0  0  0  0  0  0
    6.4198   -1.9665   -3.9711 H   0  0  0  1  0  0  0  0  0  0  0  0
  1  2  4  0  0  0  0
  1  6  4  0  0  0  0
  1 18  1  0  0  0  0
  2  3  4  0  0  0  0
  3  4  4  0  0  0  0
  3 25  1  0  0  0  0
  4  5  4  0  0  0  0
  4  7  4  0  0  0  0
  5  6  4  0  0  0  0
  5  9  4  0  0  0  0
  7  8  4  0  0  0  0
  7 26  1  0  0  0  0
  8  9  4  0  0  0  0
  9 10  1  0  0  0  0
 10 11  4  0  0  0  0
 10 15  4  0  0  0  0
 11 12  4  0  0  0  0
 11 27  1  0  0  0  0
 12 13  4  0  0  0  0
 12 28  1  0  0  0  0
 13 14  4  0  0  0  0
 13 16  1  0  0  0  0
 14 15  4  0  0  0  0
 14 29  1  0  0  0  0
 15 30  1  0  0  0  0
 16 17  1  0  0  0  0
 17 31  1  0  0  0  0
 17 32  1  0  0  0  0
 17 33  1  0  0  0  0
 18 19  1  0  0  0  0
 18 34  1  0  0  0  0
 19 20  1  0  0  0  0
 19 23  1  0  0  0  0
 19 35  1  0  0  0  0
 20 21  1  0  0  0  0
 20 36  1  0  0  0  0
 20 37  1  0  0  0  0
 21 22  1  0  0  0  0
 21 38  1  0  0  0  0
 21 39  1  0  0  0  0
 22 23  1  0  0  0  0
 22 24  1  0  0  0  0
 22 40  1  0  0  0  0
 23 41  1  0  0  0  0
 23 42  1  0  0  0  0
 24 43  1  0  0  0  0
 24 44  1  0  0  0  0
M  END
> <ConfClashScore>
0 

> <ConfOneFourInteractionScore>
-0.984337 

> <ConfScore>
-0.0622271 

> <ConfScorePBest>
0.00411303 

> <ConfTolerance>
0.235717 

$$$$
c22.sdf
 OpenBabel04162418103D

 44 47  0  0  0  0  0  0  0  0999 V2000
    2.7576   -0.8060    0.9823 C   0  0  0  1  0  0  0  0  0  0  0  0
    2.8985    0.5168    1.1143 N   0  0  0  1  0  0  0  0  0  0  0  0
    2.2849    1.1190    2.1526 C   0  0  0  1  0  0  0  0  0  0  0  0
    1.5257    0.3186    3.0552 C   0  0  0  1  0  0  0  0  0  0  0  0
    1.4914   -1.0405    2.7683 C   0  0  0  1  0  0  0  0  0  0  0  0
    2.0907   -1.6717    1.7307 N   0  0  0  1  0  0  0  0  0  0  0  0
    0.7555    0.4427    4.2291 C   0  0  0  1  0  0  0  0  0  0  0  0
    0.2843   -0.7161    4.6285 N   0  0  0  1  0  0  0  0  0  0  0  0
    0.7406   -1.6340    3.7235 N   0  0  0  1  0  0  0  0  0  0  0  0
    0.4639   -3.0201    3.7792 C   0  0  0  1  0  0  0  0  0  0  0  0
    0.5659   -3.8403    2.6715 C   0  0  0  1  0  0  0  0  0  0  0  0
    0.2880   -5.1937    2.7836 C   0  0  0  1  0  0  0  0  0  0  0  0
   -0.0962   -5.7220    4.0016 C   0  0  0  1  0  0  0  0  0  0  0  0
   -0.1984   -4.8991    5.1125 C   0  0  0  1  0  0  0  0  0  0  0  0
    0.0787   -3.5496    5.0010 C   0  0  0  1  0  0  0  0  0  0  0  0
   -0.3954   -7.0156    4.2296 O   0  0  0  1  0  0  0  0  0  0  0  0
   -0.2203   -7.8938    3.0935 C   0  0  0  1  0  0  0  0  0  0  0  0
    3.4012   -1.3491   -0.0908 N   0  0  0  1  0  0  0  0  0  0  0  0
    4.2517   -0.5404   -0.9691 C   0  0  0  1  0  0  0  0  0  0  0  0
    3.4940   -0.1580   -2.2459 C   0  0  0  1  0  0  0  0  0  0  0  0
    4.2035   -0.8841   -3.3997 C   0  0  0  1  0  0  0  0  0  0  0  0
    4.9871   -2.0208   -2.7379 C   0  0  0  1  0  0  0  0  0  0  0  0
    5.4539   -1.3496   -1.4397 C   0  0  0  1  0  0  0  0  0  0  0  0
    6.1347   -2.4442   -3.5715 N   0  0  0  1  0  0  0  0  0  0  0  0
    2.3638    2.1466    2.2921 H   0  0  0  1  0  0  0  0  0  0  0  0
    0.5813    1.3431    4.7196 H   0  0  0  1  0  0  0  0  0  0  0  0
    0.8511   -3.4422    1.7541 H   0  0  0  1  0  0  0  0  0  0  0  0
    0.3686   -5.8117    1.9510 H   0  0  0  1  0  0  0  0  0  0  0  0
   -0.4836   -5.2972    6.0300 H   0  0  0  1  0  0  0  0  0  0  0  0
   -0.0019   -2.9316    5.8335 H   0  0  0  1  0  0  0  0  0  0  0  0
    0.8067   -8.1854    3.0224 H   0  0  0  1  0  0  0  0  0  0  0  0
   -0.5081   -7.3814    2.1993 H   0  0  0  1  0  0  0  0  0  0  0  0
   -0.8301   -8.7641    3.2185 H   0  0  0  1  0  0  0  0  0  0  0  0
    3.2922   -2.3046   -0.2795 H   0  0  0  1  0  0  0  0  0  0  0  0
    4.5722    0.3369   -0.4470 H   0  0  0  1  0  0  0  0  0  0  0  0
    3.5309    0.9008   -2.3957 H   0  0  0  1  0  0  0  0  0  0  0  0
    2.4739   -0.4742   -2.1803 H   0  0  0  1  0  0  0  0  0  0  0  0
    3.4882   -1.2755   -4.0927 H   0  0  0  1  0  0  0  0  0  0  0  0
    4.8676   -0.2181   -3.9099 H   0  0  0  1  0  0  0  0  0  0  0  0
    4.3598   -2.8644   -2.5388 H   0  0  0  1  0  0  0  0  0  0  0  0
    5.7226   -2.0850   -0.7103 H   0  0  0  1  0  0  0  0  0  0  0  0
    6.2904   -0.7090   -1.6259 H   0  0  0  1  0  0  0  0  0  0  0  0
    5.8081   -2.7741   -4.4346 H   0  0  0  1  0  0  0  0  0  0  0  0
    6.6250   -3.1584   -3.1134 H   0  0  0  1  0  0  0  0  0  0  0  0
  1  2  4  0  0  0  0
  1  6  4  0  0  0  0
  1 18  1  0  0  0  0
  2  3  4  0  0  0  0
  3  4  4  0  0  0  0
  3 25  1  0  0  0  0
  4  5  4  0  0  0  0
  4  7  4  0  0  0  0
  5  6  4  0  0  0  0
  5  9  4  0  0  0  0
  7  8  4  0  0  0  0
  7 26  1  0  0  0  0
  8  9  4  0  0  0  0
  9 10  1  0  0  0  0
 10 11  4  0  0  0  0
 10 15  4  0  0  0  0
 11 12  4  0  0  0  0
 11 27  1  0  0  0  0
 12 13  4  0  0  0  0
 12 28  1  0  0  0  0
 13 14  4  0  0  0  0
 13 16  1  0  0  0  0
 14 15  4  0  0  0  0
 14 29  1  0  0  0  0
 15 30  1  0  0  0  0
 16 17  1  0  0  0  0
 17 31  1  0  0  0  0
 17 32  1  0  0  0  0
 17 33  1  0  0  0  0
 18 19  1  0  0  0  0
 18 34  1  0  0  0  0
 19 20  1  0  0  0  0
 19 23  1  0  0  0  0
 19 35  1  0  0  0  0
 20 21  1  0  0  0  0
 20 36  1  0  0  0  0
 20 37  1  0  0  0  0
 21 22  1  0  0  0  0
 21 38  1  0  0  0  0
 21 39  1  0  0  0  0
 22 23  1  0  0  0  0
 22 24  1  0  0  0  0
 22 40  1  0  0  0  0
 23 41  1  0  0  0  0
 23 42  1  0  0  0  0
 24 43  1  0  0  0  0
 24 44  1  0  0  0  0
M  END
> <ConfClashScore>
0 

> <ConfOneFourInteractionScore>
-0.984337 

> <ConfScore>
-0.0618878 

> <ConfScorePBest>
0.0040997 

> <ConfTolerance>
0.316161 

$$$$
c22.sdf
 OpenBabel04162418103D

 44 47  0  0  0  0  0  0  0  0999 V2000
    4.1220    0.6631    0.9821 C   0  0  0  1  0  0  0  0  0  0  0  0
    5.3180    1.2483    0.8635 N   0  0  0  1  0  0  0  0  0  0  0  0
    5.7436    2.0311    1.8752 C   0  0  0  1  0  0  0  0  0  0  0  0
    4.9040    2.1897    3.0161 C   0  0  0  1  0  0  0  0  0  0  0  0
    3.6964    1.5038    2.9721 C   0  0  0  1  0  0  0  0  0  0  0  0
    3.2397    0.7176    1.9685 N   0  0  0  1  0  0  0  0  0  0  0  0
    4.8859    2.8397    4.2667 C   0  0  0  1  0  0  0  0  0  0  0  0
    3.7803    2.5912    4.9300 N   0  0  0  1  0  0  0  0  0  0  0  0
    3.0443    1.7637    4.1278 N   0  0  0  1  0  0  0  0  0  0  0  0
    1.7629    1.2453    4.4643 C   0  0  0  1  0  0  0  0  0  0  0  0
    1.7121    0.1778    5.3407 C   0  0  0  1  0  0  0  0  0  0  0  0
    0.4966   -0.4204    5.6343 C   0  0  0  1  0  0  0  0  0  0  0  0
   -0.6638    0.0472    5.0468 C   0  0  0  1  0  0  0  0  0  0  0  0
   -0.6127    1.1179    4.1679 C   0  0  0  1  0  0  0  0  0  0  0  0
    0.5992    1.7145    3.8750 C   0  0  0  1  0  0  0  0  0  0  0  0
   -1.9034   -0.4579    5.2521 O   0  0  0  1  0  0  0  0  0  0  0  0
   -1.9950   -1.7058    5.9571 C   0  0  0  1  0  0  0  0  0  0  0  0
    3.7576   -0.1004   -0.0637 N   0  0  0  1  0  0  0  0  0  0  0  0
    4.6002   -0.3287   -1.2422 C   0  0  0  1  0  0  0  0  0  0  0  0
    3.7608   -0.2348   -2.5216 C   0  0  0  1  0  0  0  0  0  0  0  0
    3.7633   -1.6399   -3.1106 C   0  0  0  1  0  0  0  0  0  0  0  0
    5.0972   -2.2487   -2.6592 C   0  0  0  1  0  0  0  0  0  0  0  0
    5.1815   -1.7511   -1.2137 C   0  0  0  1  0  0  0  0  0  0  0  0
    6.2361   -1.7386   -3.4798 N   0  0  0  1  0  0  0  0  0  0  0  0
    6.6657    2.5094    1.8243 H   0  0  0  1  0  0  0  0  0  0  0  0
    5.6552    3.4432    4.6211 H   0  0  0  1  0  0  0  0  0  0  0  0
    2.5857   -0.1767    5.7797 H   0  0  0  1  0  0  0  0  0  0  0  0
    0.4578   -1.2211    6.2969 H   0  0  0  1  0  0  0  0  0  0  0  0
   -1.4863    1.4724    3.7289 H   0  0  0  1  0  0  0  0  0  0  0  0
    0.6381    2.5152    3.2125 H   0  0  0  1  0  0  0  0  0  0  0  0
   -1.5559   -2.4827    5.3666 H   0  0  0  1  0  0  0  0  0  0  0  0
   -3.0234   -1.9363    6.1415 H   0  0  0  1  0  0  0  0  0  0  0  0
   -1.4738   -1.6282    6.8884 H   0  0  0  1  0  0  0  0  0  0  0  0
    2.8770   -0.5296   -0.0365 H   0  0  0  1  0  0  0  0  0  0  0  0
    5.3892    0.3939   -1.2626 H   0  0  0  1  0  0  0  0  0  0  0  0
    2.7620    0.0732   -2.2923 H   0  0  0  1  0  0  0  0  0  0  0  0
    4.2000    0.4594   -3.2074 H   0  0  0  1  0  0  0  0  0  0  0  0
    3.7084   -1.6015   -4.1785 H   0  0  0  1  0  0  0  0  0  0  0  0
    2.9410   -2.2096   -2.7310 H   0  0  0  1  0  0  0  0  0  0  0  0
    5.0749   -3.3175   -2.7045 H   0  0  0  1  0  0  0  0  0  0  0  0
    6.1986   -1.7340   -0.8817 H   0  0  0  1  0  0  0  0  0  0  0  0
    4.6051   -2.3789   -0.5668 H   0  0  0  1  0  0  0  0  0  0  0  0
    6.3151   -0.7688   -3.3628 H   0  0  0  1  0  0  0  0  0  0  0  0
    6.0739   -1.9412   -4.4248 H   0  0  0  1  0  0  0  0  0  0  0  0
  1  2  4  0  0  0  0
  1  6  4  0  0  0  0
  1 18  1  0  0  0  0
  2  3  4  0  0  0  0
  3  4  4  0  0  0  0
  3 25  1  0  0  0  0
  4  5  4  0  0  0  0
  4  7  4  0  0  0  0
  5  6  4  0  0  0  0
  5  9  4  0  0  0  0
  7  8  4  0  0  0  0
  7 26  1  0  0  0  0
  8  9  4  0  0  0  0
  9 10  1  0  0  0  0
 10 11  4  0  0  0  0
 10 15  4  0  0  0  0
 11 12  4  0  0  0  0
 11 27  1  0  0  0  0
 12 13  4  0  0  0  0
 12 28  1  0  0  0  0
 13 14  4  0  0  0  0
 13 16  1  0  0  0  0
 14 15  4  0  0  0  0
 14 29  1  0  0  0  0
 15 30  1  0  0  0  0
 16 17  1  0  0  0  0
 17 31  1  0  0  0  0
 17 32  1  0  0  0  0
 17 33  1  0  0  0  0
 18 19  1  0  0  0  0
 18 34  1  0  0  0  0
 19 20  1  0  0  0  0
 19 23  1  0  0  0  0
 19 35  1  0  0  0  0
 20 21  1  0  0  0  0
 20 36  1  0  0  0  0
 20 37  1  0  0  0  0
 21 22  1  0  0  0  0
 21 38  1  0  0  0  0
 21 39  1  0  0  0  0
 22 23  1  0  0  0  0
 22 24  1  0  0  0  0
 22 40  1  0  0  0  0
 23 41  1  0  0  0  0
 23 42  1  0  0  0  0
 24 43  1  0  0  0  0
 24 44  1  0  0  0  0
M  END
> <ConfClashScore>
0 

> <ConfOneFourInteractionScore>
-0.984337 

> <ConfScore>
-0.0616673 

> <ConfScorePBest>
0.00408638 

> <ConfTolerance>
0.306933 

$$$$
c22.sdf
 OpenBabel04162418103D

 44 47  0  0  0  0  0  0  0  0999 V2000
    3.8595   -1.6031    1.1696 C   0  0  0  1  0  0  0  0  0  0  0  0
    5.1548   -1.3632    1.3975 N   0  0  0  1  0  0  0  0  0  0  0  0
    5.6808   -1.7821    2.5659 C   0  0  0  1  0  0  0  0  0  0  0  0
    4.8354   -2.4607    3.4915 C   0  0  0  1  0  0  0  0  0  0  0  0
    3.5164   -2.6278    3.0880 C   0  0  0  1  0  0  0  0  0  0  0  0
    2.9588   -2.2123    1.9259 N   0  0  0  1  0  0  0  0  0  0  0  0
    4.8885   -3.0745    4.7593 C   0  0  0  1  0  0  0  0  0  0  0  0
    3.7235   -3.5666    5.1124 N   0  0  0  1  0  0  0  0  0  0  0  0
    2.8744   -3.2897    4.0770 N   0  0  0  1  0  0  0  0  0  0  0  0
    1.5112   -3.6469    4.0448 C   0  0  0  1  0  0  0  0  0  0  0  0
    0.6290   -2.7549    3.4648 C   0  0  0  1  0  0  0  0  0  0  0  0
   -0.7221   -3.0585    3.4018 C   0  0  0  1  0  0  0  0  0  0  0  0
   -1.1878   -4.2506    3.9236 C   0  0  0  1  0  0  0  0  0  0  0  0
   -0.3028   -5.1451    4.5053 C   0  0  0  1  0  0  0  0  0  0  0  0
    1.0443   -4.8425    4.5683 C   0  0  0  1  0  0  0  0  0  0  0  0
   -2.4743   -4.6502    3.9244 O   0  0  0  1  0  0  0  0  0  0  0  0
   -3.4035   -3.7238    3.3153 C   0  0  0  1  0  0  0  0  0  0  0  0
    3.3925   -1.1495   -0.0292 N   0  0  0  1  0  0  0  0  0  0  0  0
    4.2811   -0.4699   -1.0063 C   0  0  0  1  0  0  0  0  0  0  0  0
    3.5361   -0.2092   -2.3061 C   0  0  0  1  0  0  0  0  0  0  0  0
    4.1662   -1.0878   -3.3992 C   0  0  0  1  0  0  0  0  0  0  0  0
    4.9500   -2.1189   -2.6062 C   0  0  0  1  0  0  0  0  0  0  0  0
    5.4678   -1.3807   -1.3748 C   0  0  0  1  0  0  0  0  0  0  0  0
    6.0905   -2.6449   -3.4176 N   0  0  0  1  0  0  0  0  0  0  0  0
    6.6829   -1.6137    2.7874 H   0  0  0  1  0  0  0  0  0  0  0  0
    5.7466   -3.1309    5.3441 H   0  0  0  1  0  0  0  0  0  0  0  0
    0.9788   -1.8561    3.0757 H   0  0  0  1  0  0  0  0  0  0  0  0
   -1.3854   -2.3892    2.9617 H   0  0  0  1  0  0  0  0  0  0  0  0
   -0.6526   -6.0439    4.8944 H   0  0  0  1  0  0  0  0  0  0  0  0
    1.7076   -5.5118    5.0083 H   0  0  0  1  0  0  0  0  0  0  0  0
   -3.0645   -3.4727    2.3319 H   0  0  0  1  0  0  0  0  0  0  0  0
   -3.4626   -2.8359    3.9094 H   0  0  0  1  0  0  0  0  0  0  0  0
   -4.3705   -4.1776    3.2538 H   0  0  0  1  0  0  0  0  0  0  0  0
    2.4464   -1.2752   -0.2514 H   0  0  0  1  0  0  0  0  0  0  0  0
    4.6338    0.4500   -0.5887 H   0  0  0  1  0  0  0  0  0  0  0  0
    3.6242    0.8229   -2.5742 H   0  0  0  1  0  0  0  0  0  0  0  0
    2.5027   -0.4608   -2.1889 H   0  0  0  1  0  0  0  0  0  0  0  0
    3.4123   -1.5557   -3.9972 H   0  0  0  1  0  0  0  0  0  0  0  0
    4.8144   -0.5130   -4.0272 H   0  0  0  1  0  0  0  0  0  0  0  0
    4.3143   -2.9293   -2.3162 H   0  0  0  1  0  0  0  0  0  0  0  0
    6.3390   -0.8047   -1.6076 H   0  0  0  1  0  0  0  0  0  0  0  0
    5.6921   -2.0628   -0.5815 H   0  0  0  1  0  0  0  0  0  0  0  0
    6.7015   -1.9109   -3.6374 H   0  0  0  1  0  0  0  0  0  0  0  0
    5.7467   -3.0422   -4.2449 H   0  0  0  1  0  0  0  0  0  0  0  0
  1  2  4  0  0  0  0
  1  6  4  0  0  0  0
  1 18  1  0  0  0  0
  2  3  4  0  0  0  0
  3  4  4  0  0  0  0
  3 25  1  0  0  0  0
  4  5  4  0  0  0  0
  4  7  4  0  0  0  0
  5  6  4  0  0  0  0
  5  9  4  0  0  0  0
  7  8  4  0  0  0  0
  7 26  1  0  0  0  0
  8  9  4  0  0  0  0
  9 10  1  0  0  0  0
 10 11  4  0  0  0  0
 10 15  4  0  0  0  0
 11 12  4  0  0  0  0
 11 27  1  0  0  0  0
 12 13  4  0  0  0  0
 12 28  1  0  0  0  0
 13 14  4  0  0  0  0
 13 16  1  0  0  0  0
 14 15  4  0  0  0  0
 14 29  1  0  0  0  0
 15 30  1  0  0  0  0
 16 17  1  0  0  0  0
 17 31  1  0  0  0  0
 17 32  1  0  0  0  0
 17 33  1  0  0  0  0
 18 19  1  0  0  0  0
 18 34  1  0  0  0  0
 19 20  1  0  0  0  0
 19 23  1  0  0  0  0
 19 35  1  0  0  0  0
 20 21  1  0  0  0  0
 20 36  1  0  0  0  0
 20 37  1  0  0  0  0
 21 22  1  0  0  0  0
 21 38  1  0  0  0  0
 21 39  1  0  0  0  0
 22 23  1  0  0  0  0
 22 24  1  0  0  0  0
 22 40  1  0  0  0  0
 23 41  1  0  0  0  0
 23 42  1  0  0  0  0
 24 43  1  0  0  0  0
 24 44  1  0  0  0  0
M  END
> <ConfClashScore>
0 

> <ConfOneFourInteractionScore>
-0.985399 

> <ConfScore>
-0.0612785 

> <ConfScorePBest>
0.00407305 

> <ConfTolerance>
0.297341 

$$$$
c22.sdf
 OpenBabel04162418103D

 44 47  0  0  0  0  0  0  0  0999 V2000
    3.3657   -1.2760    1.1030 C   0  0  0  1  0  0  0  0  0  0  0  0
    4.5132   -0.7914    1.5883 N   0  0  0  1  0  0  0  0  0  0  0  0
    4.7113   -0.8463    2.9206 C   0  0  0  1  0  0  0  0  0  0  0  0
    3.6953   -1.4202    3.7393 C   0  0  0  1  0  0  0  0  0  0  0  0
    2.5699   -1.8787    3.0656 C   0  0  0  1  0  0  0  0  0  0  0  0
    2.3402   -1.8305    1.7317 N   0  0  0  1  0  0  0  0  0  0  0  0
    3.4306   -1.7139    5.0922 C   0  0  0  1  0  0  0  0  0  0  0  0
    2.2602   -2.2886    5.2470 N   0  0  0  1  0  0  0  0  0  0  0  0
    1.7278   -2.3905    3.9915 N   0  0  0  1  0  0  0  0  0  0  0  0
    0.4645   -2.9560    3.7003 C   0  0  0  1  0  0  0  0  0  0  0  0
    0.3856   -4.1906    3.0842 C   0  0  0  1  0  0  0  0  0  0  0  0
   -0.8526   -4.7472    2.8037 C   0  0  0  1  0  0  0  0  0  0  0  0
   -2.0081   -4.0652    3.1352 C   0  0  0  1  0  0  0  0  0  0  0  0
   -1.9288   -2.8268    3.7531 C   0  0  0  1  0  0  0  0  0  0  0  0
   -0.6943   -2.2718    4.0329 C   0  0  0  1  0  0  0  0  0  0  0  0
   -3.2473   -4.5504    2.8841 O   0  0  0  1  0  0  0  0  0  0  0  0
   -4.3496   -3.9079    3.5434 C   0  0  0  1  0  0  0  0  0  0  0  0
    3.2279   -1.1842   -0.2701 N   0  0  0  1  0  0  0  0  0  0  0  0
    4.2682   -0.4764   -1.0157 C   0  0  0  1  0  0  0  0  0  0  0  0
    3.7906   -0.0981   -2.4237 C   0  0  0  1  0  0  0  0  0  0  0  0
    3.8810   -1.3921   -3.2231 C   0  0  0  1  0  0  0  0  0  0  0  0
    5.0200   -2.1900   -2.5777 C   0  0  0  1  0  0  0  0  0  0  0  0
    5.4510   -1.3945   -1.3353 C   0  0  0  1  0  0  0  0  0  0  0  0
    6.1541   -2.3213   -3.5220 N   0  0  0  1  0  0  0  0  0  0  0  0
    5.5874   -0.4775    3.3425 H   0  0  0  1  0  0  0  0  0  0  0  0
    4.0833   -1.5011    5.8734 H   0  0  0  1  0  0  0  0  0  0  0  0
    1.2550   -4.7021    2.8312 H   0  0  0  1  0  0  0  0  0  0  0  0
   -0.9120   -5.6780    2.3438 H   0  0  0  1  0  0  0  0  0  0  0  0
   -2.7983   -2.3154    4.0062 H   0  0  0  1  0  0  0  0  0  0  0  0
   -0.6349   -1.3409    4.4928 H   0  0  0  1  0  0  0  0  0  0  0  0
   -4.0681   -3.6530    4.5437 H   0  0  0  1  0  0  0  0  0  0  0  0
   -5.1873   -4.5731    3.5674 H   0  0  0  1  0  0  0  0  0  0  0  0
   -4.6146   -3.0189    3.0102 H   0  0  0  1  0  0  0  0  0  0  0  0
    2.4579   -1.5806   -0.7287 H   0  0  0  1  0  0  0  0  0  0  0  0
    4.5798    0.3854   -0.4634 H   0  0  0  1  0  0  0  0  0  0  0  0
    2.7823    0.2590   -2.3968 H   0  0  0  1  0  0  0  0  0  0  0  0
    4.4242    0.6525   -2.8480 H   0  0  0  1  0  0  0  0  0  0  0  0
    4.1043   -1.1837   -4.2486 H   0  0  0  1  0  0  0  0  0  0  0  0
    2.9614   -1.9354   -3.1611 H   0  0  0  1  0  0  0  0  0  0  0  0
    4.6767   -3.1629   -2.2942 H   0  0  0  1  0  0  0  0  0  0  0  0
    6.3275   -0.8177   -1.5449 H   0  0  0  1  0  0  0  0  0  0  0  0
    5.6454   -2.0547   -0.5161 H   0  0  0  1  0  0  0  0  0  0  0  0
    6.5341   -1.4361   -3.7021 H   0  0  0  1  0  0  0  0  0  0  0  0
    5.8365   -2.7170   -4.3605 H   0  0  0  1  0  0  0  0  0  0  0  0
  1  2  4  0  0  0  0
  1  6  4  0  0  0  0
  1 18  1  0  0  0  0
  2  3  4  0  0  0  0
  3  4  4  0  0  0  0
  3 25  1  0  0  0  0
  4  5  4  0  0  0  0
  4  7  4  0  0  0  0
  5  6  4  0  0  0  0
  5  9  4  0  0  0  0
  7  8  4  0  0  0  0
  7 26  1  0  0  0  0
  8  9  4  0  0  0  0
  9 10  1  0  0  0  0
 10 11  4  0  0  0  0
 10 15  4  0  0  0  0
 11 12  4  0  0  0  0
 11 27  1  0  0  0  0
 12 13  4  0  0  0  0
 12 28  1  0  0  0  0
 13 14  4  0  0  0  0
 13 16  1  0  0  0  0
 14 15  4  0  0  0  0
 14 29  1  0  0  0  0
 15 30  1  0  0  0  0
 16 17  1  0  0  0  0
 17 31  1  0  0  0  0
 17 32  1  0  0  0  0
 17 33  1  0  0  0  0
 18 19  1  0  0  0  0
 18 34  1  0  0  0  0
 19 20  1  0  0  0  0
 19 23  1  0  0  0  0
 19 35  1  0  0  0  0
 20 21  1  0  0  0  0
 20 36  1  0  0  0  0
 20 37  1  0  0  0  0
 21 22  1  0  0  0  0
 21 38  1  0  0  0  0
 21 39  1  0  0  0  0
 22 23  1  0  0  0  0
 22 24  1  0  0  0  0
 22 40  1  0  0  0  0
 23 41  1  0  0  0  0
 23 42  1  0  0  0  0
 24 43  1  0  0  0  0
 24 44  1  0  0  0  0
M  END
> <ConfClashScore>
0 

> <ConfOneFourInteractionScore>
-0.984337 

> <ConfScore>
-0.0610598 

> <ConfScorePBest>
0.00405972 

> <ConfTolerance>
0.272282 

$$$$
c22.sdf
 OpenBabel04162418103D

 44 47  0  0  0  0  0  0  0  0999 V2000
    3.1247    1.0078    0.2148 C   0  0  0  1  0  0  0  0  0  0  0  0
    2.3457    0.9228    1.2979 N   0  0  0  1  0  0  0  0  0  0  0  0
    1.6540    2.0190    1.6685 C   0  0  0  1  0  0  0  0  0  0  0  0
    1.7832    3.2047    0.8880 C   0  0  0  1  0  0  0  0  0  0  0  0
    2.6328    3.1120   -0.2076 C   0  0  0  1  0  0  0  0  0  0  0  0
    3.3449    2.0289   -0.5996 N   0  0  0  1  0  0  0  0  0  0  0  0
    1.2987    4.5274    0.8376 C   0  0  0  1  0  0  0  0  0  0  0  0
    1.7988    5.1920   -0.1784 N   0  0  0  1  0  0  0  0  0  0  0  0
    2.6247    4.3149   -0.8253 N   0  0  0  1  0  0  0  0  0  0  0  0
    3.3712    4.6246   -1.9861 C   0  0  0  1  0  0  0  0  0  0  0  0
    2.8999    5.5680   -2.8794 C   0  0  0  1  0  0  0  0  0  0  0  0
    3.6342    5.8753   -4.0142 C   0  0  0  1  0  0  0  0  0  0  0  0
    4.8349    5.2346   -4.2552 C   0  0  0  1  0  0  0  0  0  0  0  0
    5.3074    4.2884   -3.3592 C   0  0  0  1  0  0  0  0  0  0  0  0
    4.5754    3.9818   -2.2276 C   0  0  0  1  0  0  0  0  0  0  0  0
    5.5920    5.6016   -5.3164 O   0  0  0  1  0  0  0  0  0  0  0  0
    5.0073    6.5192   -6.2537 C   0  0  0  1  0  0  0  0  0  0  0  0
    3.7850   -0.1136   -0.0949 N   0  0  0  1  0  0  0  0  0  0  0  0
    4.5985   -0.3427   -1.2933 C   0  0  0  1  0  0  0  0  0  0  0  0
    3.7393   -0.1961   -2.5546 C   0  0  0  1  0  0  0  0  0  0  0  0
    3.6874   -1.5879   -3.1723 C   0  0  0  1  0  0  0  0  0  0  0  0
    5.0097   -2.2467   -2.7585 C   0  0  0  1  0  0  0  0  0  0  0  0
    5.1357   -1.7826   -1.3050 C   0  0  0  1  0  0  0  0  0  0  0  0
    6.1330   -1.7615   -3.5782 N   0  0  0  1  0  0  0  0  0  0  0  0
    1.0387    1.9998    2.5068 H   0  0  0  1  0  0  0  0  0  0  0  0
    0.6264    4.9284    1.5223 H   0  0  0  1  0  0  0  0  0  0  0  0
    1.9945    6.0472   -2.7002 H   0  0  0  1  0  0  0  0  0  0  0  0
    3.2815    6.5882   -4.6844 H   0  0  0  1  0  0  0  0  0  0  0  0
    6.2129    3.8091   -3.5384 H   0  0  0  1  0  0  0  0  0  0  0  0
    4.9280    3.2690   -1.5574 H   0  0  0  1  0  0  0  0  0  0  0  0
    4.5992    7.3563   -5.7268 H   0  0  0  1  0  0  0  0  0  0  0  0
    4.2285    6.0259   -6.7969 H   0  0  0  1  0  0  0  0  0  0  0  0
    5.7585    6.8590   -6.9357 H   0  0  0  1  0  0  0  0  0  0  0  0
    3.7184   -0.8554    0.5421 H   0  0  0  1  0  0  0  0  0  0  0  0
    5.4090    0.3556   -1.3137 H   0  0  0  1  0  0  0  0  0  0  0  0
    4.1873    0.4985   -3.2340 H   0  0  0  1  0  0  0  0  0  0  0  0
    2.7549    0.1375   -2.3002 H   0  0  0  1  0  0  0  0  0  0  0  0
    2.8548   -2.1400   -2.7890 H   0  0  0  1  0  0  0  0  0  0  0  0
    3.6144   -1.5253   -4.2379 H   0  0  0  1  0  0  0  0  0  0  0  0
    4.9534   -3.3132   -2.8253 H   0  0  0  1  0  0  0  0  0  0  0  0
    4.5519   -2.4059   -0.6603 H   0  0  0  1  0  0  0  0  0  0  0  0
    6.1586   -1.8037   -0.9919 H   0  0  0  1  0  0  0  0  0  0  0  0
    6.9790   -2.0574   -3.1819 H   0  0  0  1  0  0  0  0  0  0  0  0
    6.1132   -0.7823   -3.6121 H   0  0  0  1  0  0  0  0  0  0  0  0
  1  2  4  0  0  0  0
  1  6  4  0  0  0  0
  1 18  1  0  0  0  0
  2  3  4  0  0  0  0
  3  4  4  0  0  0  0
  3 25  1  0  0  0  0
  4  5  4  0  0  0  0
  4  7  4  0  0  0  0
  5  6  4  0  0  0  0
  5  9  4  0  0  0  0
  7  8  4  0  0  0  0
  7 26  1  0  0  0  0
  8  9  4  0  0  0  0
  9 10  1  0  0  0  0
 10 11  4  0  0  0  0
 10 15  4  0  0  0  0
 11 12  4  0  0  0  0
 11 27  1  0  0  0  0
 12 13  4  0  0  0  0
 12 28  1  0  0  0  0
 13 14  4  0  0  0  0
 13 16  1  0  0  0  0
 14 15  4  0  0  0  0
 14 29  1  0  0  0  0
 15 30  1  0  0  0  0
 16 17  1  0  0  0  0
 17 31  1  0  0  0  0
 17 32  1  0  0  0  0
 17 33  1  0  0  0  0
 18 19  1  0  0  0  0
 18 34  1  0  0  0  0
 19 20  1  0  0  0  0
 19 23  1  0  0  0  0
 19 35  1  0  0  0  0
 20 21  1  0  0  0  0
 20 36  1  0  0  0  0
 20 37  1  0  0  0  0
 21 22  1  0  0  0  0
 21 38  1  0  0  0  0
 21 39  1  0  0  0  0
 22 23  1  0  0  0  0
 22 24  1  0  0  0  0
 22 40  1  0  0  0  0
 23 41  1  0  0  0  0
 23 42  1  0  0  0  0
 24 43  1  0  0  0  0
 24 44  1  0  0  0  0
M  END
> <ConfClashScore>
0 

> <ConfOneFourInteractionScore>
-0.985399 

> <ConfScore>
-0.0608833 

> <ConfScorePBest>
0.00404639 

> <ConfTolerance>
0.318194 

$$$$
c22.sdf
 OpenBabel04162418103D

 44 47  0  0  0  0  0  0  0  0999 V2000
    2.3429   -0.6522    0.4339 C   0  0  0  1  0  0  0  0  0  0  0  0
    1.6695   -1.4608    1.2584 N   0  0  0  1  0  0  0  0  0  0  0  0
    0.5016   -1.0184    1.7657 C   0  0  0  1  0  0  0  0  0  0  0  0
    0.0436    0.2795    1.3950 C   0  0  0  1  0  0  0  0  0  0  0  0
    0.8685    0.9806    0.5240 C   0  0  0  1  0  0  0  0  0  0  0  0
    2.0484    0.5657    0.0046 N   0  0  0  1  0  0  0  0  0  0  0  0
   -1.0433    1.1495    1.6158 C   0  0  0  1  0  0  0  0  0  0  0  0
   -0.9072    2.2773    0.9573 N   0  0  0  1  0  0  0  0  0  0  0  0
    0.2767    2.1719    0.2813 N   0  0  0  1  0  0  0  0  0  0  0  0
    0.8144    3.1814   -0.5647 C   0  0  0  1  0  0  0  0  0  0  0  0
    2.1778    3.2472   -0.7816 C   0  0  0  1  0  0  0  0  0  0  0  0
    2.7011    4.2275   -1.6102 C   0  0  0  1  0  0  0  0  0  0  0  0
    1.8602    5.1424   -2.2153 C   0  0  0  1  0  0  0  0  0  0  0  0
    0.4927    5.0763   -1.9976 C   0  0  0  1  0  0  0  0  0  0  0  0
   -0.0292    4.0989   -1.1714 C   0  0  0  1  0  0  0  0  0  0  0  0
    2.3694    6.0984   -3.0164 O   0  0  0  1  0  0  0  0  0  0  0  0
    1.4215    7.1003   -3.4528 C   0  0  0  1  0  0  0  0  0  0  0  0
    3.5169   -1.1610   -0.0394 N   0  0  0  1  0  0  0  0  0  0  0  0
    4.3092   -0.4564   -1.0485 C   0  0  0  1  0  0  0  0  0  0  0  0
    3.4620   -0.1967   -2.2959 C   0  0  0  1  0  0  0  0  0  0  0  0
    4.0542   -1.0687   -3.3946 C   0  0  0  1  0  0  0  0  0  0  0  0
    4.8815   -2.1399   -2.6972 C   0  0  0  1  0  0  0  0  0  0  0  0
    5.5162   -1.3409   -1.4982 C   0  0  0  1  0  0  0  0  0  0  0  0
    5.9356   -2.6846   -3.6029 N   0  0  0  1  0  0  0  0  0  0  0  0
   -0.0540   -1.6120    2.4143 H   0  0  0  1  0  0  0  0  0  0  0  0
   -1.8548    0.9252    2.2263 H   0  0  0  1  0  0  0  0  0  0  0  0
    2.8110    2.5613   -0.3232 H   0  0  0  1  0  0  0  0  0  0  0  0
    3.7266    4.2746   -1.7766 H   0  0  0  1  0  0  0  0  0  0  0  0
   -0.1405    5.7622   -2.4560 H   0  0  0  1  0  0  0  0  0  0  0  0
   -1.0547    4.0518   -1.0050 H   0  0  0  1  0  0  0  0  0  0  0  0
    1.9338    7.8599   -4.0054 H   0  0  0  1  0  0  0  0  0  0  0  0
    0.9479    7.5385   -2.5992 H   0  0  0  1  0  0  0  0  0  0  0  0
    0.6818    6.6434   -4.0764 H   0  0  0  1  0  0  0  0  0  0  0  0
    3.8381   -2.0203    0.3052 H   0  0  0  1  0  0  0  0  0  0  0  0
    4.6617    0.4692   -0.6436 H   0  0  0  1  0  0  0  0  0  0  0  0
    3.5141    0.8357   -2.5722 H   0  0  0  1  0  0  0  0  0  0  0  0
    2.4425   -0.4672   -2.1157 H   0  0  0  1  0  0  0  0  0  0  0  0
    3.2729   -1.5208   -3.9691 H   0  0  0  1  0  0  0  0  0  0  0  0
    4.6762   -0.4815   -4.0374 H   0  0  0  1  0  0  0  0  0  0  0  0
    4.2637   -2.9400   -2.3464 H   0  0  0  1  0  0  0  0  0  0  0  0
    6.3423   -0.7419   -1.8203 H   0  0  0  1  0  0  0  0  0  0  0  0
    5.8345   -1.9969   -0.7151 H   0  0  0  1  0  0  0  0  0  0  0  0
    6.5614   -3.2321   -3.0843 H   0  0  0  1  0  0  0  0  0  0  0  0
    6.4204   -1.9435   -4.0224 H   0  0  0  1  0  0  0  0  0  0  0  0
  1  2  4  0  0  0  0
  1  6  4  0  0  0  0
  1 18  1  0  0  0  0
  2  3  4  0  0  0  0
  3  4  4  0  0  0  0
  3 25  1  0  0  0  0
  4  5  4  0  0  0  0
  4  7  4  0  0  0  0
  5  6  4  0  0  0  0
  5  9  4  0  0  0  0
  7  8  4  0  0  0  0
  7 26  1  0  0  0  0
  8  9  4  0  0  0  0
  9 10  1  0  0  0  0
 10 11  4  0  0  0  0
 10 15  4  0  0  0  0
 11 12  4  0  0  0  0
 11 27  1  0  0  0  0
 12 13  4  0  0  0  0
 12 28  1  0  0  0  0
 13 14  4  0  0  0  0
 13 16  1  0  0  0  0
 14 15  4  0  0  0  0
 14 29  1  0  0  0  0
 15 30  1  0  0  0  0
 16 17  1  0  0  0  0
 17 31  1  0  0  0  0
 17 32  1  0  0  0  0
 17 33  1  0  0  0  0
 18 19  1  0  0  0  0
 18 34  1  0  0  0  0
 19 20  1  0  0  0  0
 19 23  1  0  0  0  0
 19 35  1  0  0  0  0
 20 21  1  0  0  0  0
 20 36  1  0  0  0  0
 20 37  1  0  0  0  0
 21 22  1  0  0  0  0
 21 38  1  0  0  0  0
 21 39  1  0  0  0  0
 22 23  1  0  0  0  0
 22 24  1  0  0  0  0
 22 40  1  0  0  0  0
 23 41  1  0  0  0  0
 23 42  1  0  0  0  0
 24 43  1  0  0  0  0
 24 44  1  0  0  0  0
M  END
> <ConfClashScore>
0 

> <ConfOneFourInteractionScore>
-0.985399 

> <ConfScore>
-0.0608833 

> <ConfScorePBest>
0.00403306 

> <ConfTolerance>
0.223773 

$$$$
c22.sdf
 OpenBabel04162418103D

 44 47  0  0  0  0  0  0  0  0999 V2000
    3.5312   -1.1391    1.3141 C   0  0  0  1  0  0  0  0  0  0  0  0
    2.7205   -1.9795    1.9649 N   0  0  0  1  0  0  0  0  0  0  0  0
    2.6994   -1.9242    3.3116 C   0  0  0  1  0  0  0  0  0  0  0  0
    3.5338   -0.9740    3.9696 C   0  0  0  1  0  0  0  0  0  0  0  0
    4.3082   -0.1769    3.1357 C   0  0  0  1  0  0  0  0  0  0  0  0
    4.3556   -0.2145    1.7828 N   0  0  0  1  0  0  0  0  0  0  0  0
    3.8532   -0.5273    5.2677 C   0  0  0  1  0  0  0  0  0  0  0  0
    4.7389    0.4418    5.2462 N   0  0  0  1  0  0  0  0  0  0  0  0
    5.0201    0.6584    3.9257 N   0  0  0  1  0  0  0  0  0  0  0  0
    5.9308    1.6239    3.4511 C   0  0  0  1  0  0  0  0  0  0  0  0
    6.8184    1.2368    2.4649 C   0  0  0  1  0  0  0  0  0  0  0  0
    7.7320    2.1479    1.9585 C   0  0  0  1  0  0  0  0  0  0  0  0
    7.7590    3.4420    2.4433 C   0  0  0  1  0  0  0  0  0  0  0  0
    6.8687    3.8300    3.4324 C   0  0  0  1  0  0  0  0  0  0  0  0
    5.9577    2.9216    3.9375 C   0  0  0  1  0  0  0  0  0  0  0  0
    8.6766    4.2787    1.9115 O   0  0  0  1  0  0  0  0  0  0  0  0
    8.8943    5.5642    2.5136 C   0  0  0  1  0  0  0  0  0  0  0  0
    3.5057   -1.2497   -0.0263 N   0  0  0  1  0  0  0  0  0  0  0  0
    4.3079   -0.4792   -0.9777 C   0  0  0  1  0  0  0  0  0  0  0  0
    3.4910   -0.1636   -2.2361 C   0  0  0  1  0  0  0  0  0  0  0  0
    4.1552   -0.9391   -3.3847 C   0  0  0  1  0  0  0  0  0  0  0  0
    4.9777   -2.0373   -2.7053 C   0  0  0  1  0  0  0  0  0  0  0  0
    5.4953   -1.3016   -1.4625 C   0  0  0  1  0  0  0  0  0  0  0  0
    6.1063   -2.4984   -3.5800 N   0  0  0  1  0  0  0  0  0  0  0  0
    2.0869   -2.5618    3.8594 H   0  0  0  1  0  0  0  0  0  0  0  0
    3.4376   -0.9180    6.1373 H   0  0  0  1  0  0  0  0  0  0  0  0
    6.8009    0.2620    2.1029 H   0  0  0  1  0  0  0  0  0  0  0  0
    8.3973    1.8578    1.2136 H   0  0  0  1  0  0  0  0  0  0  0  0
    6.8863    4.8048    3.7945 H   0  0  0  1  0  0  0  0  0  0  0  0
    5.2924    3.2117    4.6824 H   0  0  0  1  0  0  0  0  0  0  0  0
    9.3212    5.4354    3.4863 H   0  0  0  1  0  0  0  0  0  0  0  0
    7.9609    6.0803    2.5995 H   0  0  0  1  0  0  0  0  0  0  0  0
    9.5631    6.1349    1.9037 H   0  0  0  1  0  0  0  0  0  0  0  0
    2.8890   -1.9117   -0.4031 H   0  0  0  1  0  0  0  0  0  0  0  0
    4.6432    0.4243   -0.5127 H   0  0  0  1  0  0  0  0  0  0  0  0
    3.5116    0.8871   -2.4376 H   0  0  0  1  0  0  0  0  0  0  0  0
    2.4777   -0.4833   -2.1101 H   0  0  0  1  0  0  0  0  0  0  0  0
    4.7901   -0.2937   -3.9551 H   0  0  0  1  0  0  0  0  0  0  0  0
    3.4136   -1.3681   -4.0256 H   0  0  0  1  0  0  0  0  0  0  0  0
    4.3675   -2.8748   -2.4385 H   0  0  0  1  0  0  0  0  0  0  0  0
    6.3170   -0.6648   -1.7161 H   0  0  0  1  0  0  0  0  0  0  0  0
    5.8027   -1.9994   -0.7118 H   0  0  0  1  0  0  0  0  0  0  0  0
    5.7555   -2.7565   -4.4579 H   0  0  0  1  0  0  0  0  0  0  0  0
    6.5470   -3.2692   -3.1652 H   0  0  0  1  0  0  0  0  0  0  0  0
  1  2  4  0  0  0  0
  1  6  4  0  0  0  0
  1 18  1  0  0  0  0
  2  3  4  0  0  0  0
  3  4  4  0  0  0  0
  3 25  1  0  0  0  0
  4  5  4  0  0  0  0
  4  7  4  0  0  0  0
  5  6  4  0  0  0  0
  5  9  4  0  0  0  0
  7  8  4  0  0  0  0
  7 26  1  0  0  0  0
  8  9  4  0  0  0  0
  9 10  1  0  0  0  0
 10 11  4  0  0  0  0
 10 15  4  0  0  0  0
 11 12  4  0  0  0  0
 11 27  1  0  0  0  0
 12 13  4  0  0  0  0
 12 28  1  0  0  0  0
 13 14  4  0  0  0  0
 13 16  1  0  0  0  0
 14 15  4  0  0  0  0
 14 29  1  0  0  0  0
 15 30  1  0  0  0  0
 16 17  1  0  0  0  0
 17 31  1  0  0  0  0
 17 32  1  0  0  0  0
 17 33  1  0  0  0  0
 18 19  1  0  0  0  0
 18 34  1  0  0  0  0
 19 20  1  0  0  0  0
 19 23  1  0  0  0  0
 19 35  1  0  0  0  0
 20 21  1  0  0  0  0
 20 36  1  0  0  0  0
 20 37  1  0  0  0  0
 21 22  1  0  0  0  0
 21 38  1  0  0  0  0
 21 39  1  0  0  0  0
 22 23  1  0  0  0  0
 22 24  1  0  0  0  0
 22 40  1  0  0  0  0
 23 41  1  0  0  0  0
 23 42  1  0  0  0  0
 24 43  1  0  0  0  0
 24 44  1  0  0  0  0
M  END
> <ConfClashScore>
0 

> <ConfOneFourInteractionScore>
-0.984337 

> <ConfScore>
-0.0595693 

> <ConfScorePBest>
0.00401973 

> <ConfTolerance>
0.264762 

$$$$
c22.sdf
 OpenBabel04162418103D

 44 47  0  0  0  0  0  0  0  0999 V2000
    2.1452   -0.7203    0.2893 C   0  0  0  1  0  0  0  0  0  0  0  0
    1.2148   -1.5736    0.7290 N   0  0  0  1  0  0  0  0  0  0  0  0
    0.1184   -1.0638    1.3251 C   0  0  0  1  0  0  0  0  0  0  0  0
    0.0047    0.3516    1.4506 C   0  0  0  1  0  0  0  0  0  0  0  0
    1.0640    1.0867    0.9327 C   0  0  0  1  0  0  0  0  0  0  0  0
    2.1794    0.6030    0.3361 N   0  0  0  1  0  0  0  0  0  0  0  0
   -0.8843    1.3281    1.9433 C   0  0  0  1  0  0  0  0  0  0  0  0
   -0.4247    2.5442    1.7586 N   0  0  0  1  0  0  0  0  0  0  0  0
    0.7817    2.3939    1.1326 N   0  0  0  1  0  0  0  0  0  0  0  0
    1.6224    3.4635    0.7456 C   0  0  0  1  0  0  0  0  0  0  0  0
    2.0227    3.5860   -0.5716 C   0  0  0  1  0  0  0  0  0  0  0  0
    2.8422    4.6373   -0.9518 C   0  0  0  1  0  0  0  0  0  0  0  0
    3.2635    5.5600   -0.0129 C   0  0  0  1  0  0  0  0  0  0  0  0
    2.8620    5.4369    1.3082 C   0  0  0  1  0  0  0  0  0  0  0  0
    2.0448    4.3887    1.6875 C   0  0  0  1  0  0  0  0  0  0  0  0
    4.1438    6.5284   -0.3609 O   0  0  0  1  0  0  0  0  0  0  0  0
    4.6122    6.5322   -1.7186 C   0  0  0  1  0  0  0  0  0  0  0  0
    3.2287   -1.3035   -0.2997 N   0  0  0  1  0  0  0  0  0  0  0  0
    4.2419   -0.5175   -0.9815 C   0  0  0  1  0  0  0  0  0  0  0  0
    3.7454   -0.0250   -2.3470 C   0  0  0  1  0  0  0  0  0  0  0  0
    3.8535   -1.2407   -3.2590 C   0  0  0  1  0  0  0  0  0  0  0  0
    5.0127   -2.0704   -2.6949 C   0  0  0  1  0  0  0  0  0  0  0  0
    5.4391   -1.3802   -1.3896 C   0  0  0  1  0  0  0  0  0  0  0  0
    6.1343   -2.0949   -3.6491 N   0  0  0  1  0  0  0  0  0  0  0  0
   -0.6292   -1.6903    1.6860 H   0  0  0  1  0  0  0  0  0  0  0  0
   -1.7941    1.1117    2.3982 H   0  0  0  1  0  0  0  0  0  0  0  0
    1.7090    2.8896   -1.2774 H   0  0  0  1  0  0  0  0  0  0  0  0
    3.1402    4.7319   -1.9437 H   0  0  0  1  0  0  0  0  0  0  0  0
    3.1756    6.1334    2.0140 H   0  0  0  1  0  0  0  0  0  0  0  0
    1.7468    4.2942    2.6794 H   0  0  0  1  0  0  0  0  0  0  0  0
    5.2837    5.7126   -1.8671 H   0  0  0  1  0  0  0  0  0  0  0  0
    5.1225    7.4515   -1.9169 H   0  0  0  1  0  0  0  0  0  0  0  0
    3.7792    6.4355   -2.3832 H   0  0  0  1  0  0  0  0  0  0  0  0
    3.3258   -2.2779   -0.2618 H   0  0  0  1  0  0  0  0  0  0  0  0
    4.5418    0.2977   -0.3567 H   0  0  0  1  0  0  0  0  0  0  0  0
    4.3610    0.7727   -2.7070 H   0  0  0  1  0  0  0  0  0  0  0  0
    2.7308    0.3085   -2.2816 H   0  0  0  1  0  0  0  0  0  0  0  0
    2.9448   -1.8053   -3.2394 H   0  0  0  1  0  0  0  0  0  0  0  0
    4.0640   -0.9376   -4.2633 H   0  0  0  1  0  0  0  0  0  0  0  0
    4.6903   -3.0712   -2.4969 H   0  0  0  1  0  0  0  0  0  0  0  0
    6.3028   -0.7700   -1.5528 H   0  0  0  1  0  0  0  0  0  0  0  0
    5.6529   -2.1068   -0.6337 H   0  0  0  1  0  0  0  0  0  0  0  0
    5.8437   -2.5163   -4.4848 H   0  0  0  1  0  0  0  0  0  0  0  0
    6.8773   -2.6068   -3.2665 H   0  0  0  1  0  0  0  0  0  0  0  0
  1  2  4  0  0  0  0
  1  6  4  0  0  0  0
  1 18  1  0  0  0  0
  2  3  4  0  0  0  0
  3  4  4  0  0  0  0
  3 25  1  0  0  0  0
  4  5  4  0  0  0  0
  4  7  4  0  0  0  0
  5  6  4  0  0  0  0
  5  9  4  0  0  0  0
  7  8  4  0  0  0  0
  7 26  1  0  0  0  0
  8  9  4  0  0  0  0
  9 10  1  0  0  0  0
 10 11  4  0  0  0  0
 10 15  4  0  0  0  0
 11 12  4  0  0  0  0
 11 27  1  0  0  0  0
 12 13  4  0  0  0  0
 12 28  1  0  0  0  0
 13 14  4  0  0  0  0
 13 16  1  0  0  0  0
 14 15  4  0  0  0  0
 14 29  1  0  0  0  0
 15 30  1  0  0  0  0
 16 17  1  0  0  0  0
 17 31  1  0  0  0  0
 17 32  1  0  0  0  0
 17 33  1  0  0  0  0
 18 19  1  0  0  0  0
 18 34  1  0  0  0  0
 19 20  1  0  0  0  0
 19 23  1  0  0  0  0
 19 35  1  0  0  0  0
 20 21  1  0  0  0  0
 20 36  1  0  0  0  0
 20 37  1  0  0  0  0
 21 22  1  0  0  0  0
 21 38  1  0  0  0  0
 21 39  1  0  0  0  0
 22 23  1  0  0  0  0
 22 24  1  0  0  0  0
 22 40  1  0  0  0  0
 23 41  1  0  0  0  0
 23 42  1  0  0  0  0
 24 43  1  0  0  0  0
 24 44  1  0  0  0  0
M  END
> <ConfClashScore>
0 

> <ConfOneFourInteractionScore>
-0.984337 

> <ConfScore>
-0.0593944 

> <ConfScorePBest>
0.00400641 

> <ConfTolerance>
0.293056 

$$$$
c22.sdf
 OpenBabel04162418103D

 44 47  0  0  0  0  0  0  0  0999 V2000
    3.5734    1.2707    0.3948 C   0  0  0  1  0  0  0  0  0  0  0  0
    3.5005    2.1253   -0.6306 N   0  0  0  1  0  0  0  0  0  0  0  0
    2.9026    3.3154   -0.4224 C   0  0  0  1  0  0  0  0  0  0  0  0
    2.3864    3.6030    0.8748 C   0  0  0  1  0  0  0  0  0  0  0  0
    2.5541    2.6011    1.8228 C   0  0  0  1  0  0  0  0  0  0  0  0
    3.1429    1.3951    1.6412 N   0  0  0  1  0  0  0  0  0  0  0  0
    1.7300    4.6346    1.5759 C   0  0  0  1  0  0  0  0  0  0  0  0
    1.5056    4.3079    2.8277 N   0  0  0  1  0  0  0  0  0  0  0  0
    2.0163    3.0486    2.9799 N   0  0  0  1  0  0  0  0  0  0  0  0
    1.9859    2.3071    4.1953 C   0  0  0  1  0  0  0  0  0  0  0  0
    2.0196    0.9258    4.1630 C   0  0  0  1  0  0  0  0  0  0  0  0
    1.9954    0.2042    5.3462 C   0  0  0  1  0  0  0  0  0  0  0  0
    1.9322    0.8657    6.5581 C   0  0  0  1  0  0  0  0  0  0  0  0
    1.8984    2.2511    6.5904 C   0  0  0  1  0  0  0  0  0  0  0  0
    1.9225    2.9708    5.4106 C   0  0  0  1  0  0  0  0  0  0  0  0
    1.9996    0.1618    7.7131 O   0  0  0  1  0  0  0  0  0  0  0  0
    1.9684   -1.2704    7.6114 C   0  0  0  1  0  0  0  0  0  0  0  0
    4.1786    0.1018    0.1174 N   0  0  0  1  0  0  0  0  0  0  0  0
    4.6451   -0.2802   -1.2193 C   0  0  0  1  0  0  0  0  0  0  0  0
    3.5134   -0.2118   -2.2482 C   0  0  0  1  0  0  0  0  0  0  0  0
    3.9308   -1.1739   -3.3716 C   0  0  0  1  0  0  0  0  0  0  0  0
    4.9750   -2.1165   -2.7621 C   0  0  0  1  0  0  0  0  0  0  0  0
    5.0184   -1.7671   -1.2797 C   0  0  0  1  0  0  0  0  0  0  0  0
    6.3104   -1.8930   -3.3906 N   0  0  0  1  0  0  0  0  0  0  0  0
    2.8198    4.0096   -1.1924 H   0  0  0  1  0  0  0  0  0  0  0  0
    1.4565    5.5445    1.1530 H   0  0  0  1  0  0  0  0  0  0  0  0
    2.0631    0.4278    3.2510 H   0  0  0  1  0  0  0  0  0  0  0  0
    2.0248   -0.8351    5.3221 H   0  0  0  1  0  0  0  0  0  0  0  0
    1.8549    2.7491    7.5024 H   0  0  0  1  0  0  0  0  0  0  0  0
    1.8932    4.0101    5.4347 H   0  0  0  1  0  0  0  0  0  0  0  0
    1.0255   -1.5796    7.2111 H   0  0  0  1  0  0  0  0  0  0  0  0
    2.1013   -1.6996    8.5825 H   0  0  0  1  0  0  0  0  0  0  0  0
    2.7551   -1.5990    6.9649 H   0  0  0  1  0  0  0  0  0  0  0  0
    4.3158   -0.5320    0.8522 H   0  0  0  1  0  0  0  0  0  0  0  0
    5.4687    0.3418   -1.5015 H   0  0  0  1  0  0  0  0  0  0  0  0
    3.4100    0.7838   -2.6263 H   0  0  0  1  0  0  0  0  0  0  0  0
    2.5889   -0.5253   -1.8102 H   0  0  0  1  0  0  0  0  0  0  0  0
    4.3557   -0.6283   -4.1882 H   0  0  0  1  0  0  0  0  0  0  0  0
    3.0847   -1.7310   -3.7161 H   0  0  0  1  0  0  0  0  0  0  0  0
    4.6827   -3.1369   -2.8978 H   0  0  0  1  0  0  0  0  0  0  0  0
    4.3122   -2.3559   -0.7325 H   0  0  0  1  0  0  0  0  0  0  0  0
    5.9994   -1.9262   -0.8832 H   0  0  0  1  0  0  0  0  0  0  0  0
    6.2384   -2.0076   -4.3612 H   0  0  0  1  0  0  0  0  0  0  0  0
    6.9524   -2.5408   -3.0321 H   0  0  0  1  0  0  0  0  0  0  0  0
  1  2  4  0  0  0  0
  1  6  4  0  0  0  0
  1 18  1  0  0  0  0
  2  3  4  0  0  0  0
  3  4  4  0  0  0  0
  3 25  1  0  0  0  0
  4  5  4  0  0  0  0
  4  7  4  0  0  0  0
  5  6  4  0  0  0  0
  5  9  4  0  0  0  0
  7  8  4  0  0  0  0
  7 26  1  0  0  0  0
  8  9  4  0  0  0  0
  9 10  1  0  0  0  0
 10 11  4  0  0  0  0
 10 15  4  0  0  0  0
 11 12  4  0  0  0  0
 11 27  1  0  0  0  0
 12 13  4  0  0  0  0
 12 28  1  0  0  0  0
 13 14  4  0  0  0  0
 13 16  1  0  0  0  0
 14 15  4  0  0  0  0
 14 29  1  0  0  0  0
 15 30  1  0  0  0  0
 16 17  1  0  0  0  0
 17 31  1  0  0  0  0
 17 32  1  0  0  0  0
 17 33  1  0  0  0  0
 18 19  1  0  0  0  0
 18 34  1  0  0  0  0
 19 20  1  0  0  0  0
 19 23  1  0  0  0  0
 19 35  1  0  0  0  0
 20 21  1  0  0  0  0
 20 36  1  0  0  0  0
 20 37  1  0  0  0  0
 21 22  1  0  0  0  0
 21 38  1  0  0  0  0
 21 39  1  0  0  0  0
 22 23  1  0  0  0  0
 22 24  1  0  0  0  0
 22 40  1  0  0  0  0
 23 41  1  0  0  0  0
 23 42  1  0  0  0  0
 24 43  1  0  0  0  0
 24 44  1  0  0  0  0
M  END
> <ConfClashScore>
0 

> <ConfOneFourInteractionScore>
-0.985399 

> <ConfScore>
-0.0582314 

> <ConfScorePBest>
0.00399308 

> <ConfTolerance>
0.240036 

$$$$
c22.sdf
 OpenBabel04162418103D

 44 47  0  0  0  0  0  0  0  0999 V2000
    2.0096   -0.3252   -0.0683 C   0  0  0  1  0  0  0  0  0  0  0  0
    1.0996   -1.0092    0.6325 N   0  0  0  1  0  0  0  0  0  0  0  0
   -0.0951   -0.4270    0.8581 C   0  0  0  1  0  0  0  0  0  0  0  0
   -0.3282    0.8789    0.3362 C   0  0  0  1  0  0  0  0  0  0  0  0
    0.7276    1.4389   -0.3725 C   0  0  0  1  0  0  0  0  0  0  0  0
    1.9393    0.8820   -0.6087 N   0  0  0  1  0  0  0  0  0  0  0  0
   -1.3401    1.8585    0.2787 C   0  0  0  1  0  0  0  0  0  0  0  0
   -0.9536    2.9206   -0.3896 N   0  0  0  1  0  0  0  0  0  0  0  0
    0.3268    2.6600   -0.7927 N   0  0  0  1  0  0  0  0  0  0  0  0
    1.1229    3.5464   -1.5459 C   0  0  0  1  0  0  0  0  0  0  0  0
    0.5819    4.4423   -2.4486 C   0  0  0  1  0  0  0  0  0  0  0  0
    1.4112    5.2956   -3.1596 C   0  0  0  1  0  0  0  0  0  0  0  0
    2.7794    5.2468   -2.9700 C   0  0  0  1  0  0  0  0  0  0  0  0
    3.3219    4.3481   -2.0646 C   0  0  0  1  0  0  0  0  0  0  0  0
    2.4951    3.4972   -1.3555 C   0  0  0  1  0  0  0  0  0  0  0  0
    3.7195    6.0029   -3.5852 O   0  0  0  1  0  0  0  0  0  0  0  0
    3.2836    6.8386   -4.6687 C   0  0  0  1  0  0  0  0  0  0  0  0
    3.1906   -0.9685   -0.2552 N   0  0  0  1  0  0  0  0  0  0  0  0
    4.2939   -0.4297   -1.0408 C   0  0  0  1  0  0  0  0  0  0  0  0
    3.8332   -0.0832   -2.4964 C   0  0  0  1  0  0  0  0  0  0  0  0
    3.8446   -1.4586   -3.1747 C   0  0  0  1  0  0  0  0  0  0  0  0
    5.0264   -2.2382   -2.6071 C   0  0  0  1  0  0  0  0  0  0  0  0
    5.3817   -1.4948   -1.2726 C   0  0  0  1  0  0  0  0  0  0  0  0
    6.1940   -2.2070   -3.5621 N   0  0  0  1  0  0  0  0  0  0  0  0
   -0.8317   -0.9204    1.4017 H   0  0  0  1  0  0  0  0  0  0  0  0
   -2.2791    1.7528    0.7130 H   0  0  0  1  0  0  0  0  0  0  0  0
   -0.4473    4.4763   -2.5943 H   0  0  0  1  0  0  0  0  0  0  0  0
    1.0039    5.9726   -3.8359 H   0  0  0  1  0  0  0  0  0  0  0  0
    4.3510    4.3141   -1.9189 H   0  0  0  1  0  0  0  0  0  0  0  0
    2.9024    2.8202   -0.6792 H   0  0  0  1  0  0  0  0  0  0  0  0
    2.6995    6.2600   -5.3534 H   0  0  0  1  0  0  0  0  0  0  0  0
    4.1367    7.2376   -5.1765 H   0  0  0  1  0  0  0  0  0  0  0  0
    2.6898    7.6410   -4.2833 H   0  0  0  1  0  0  0  0  0  0  0  0
    3.3082   -1.8470    0.1629 H   0  0  0  1  0  0  0  0  0  0  0  0
    4.6959    0.4311   -0.5486 H   0  0  0  1  0  0  0  0  0  0  0  0
    4.5177    0.5888   -2.9704 H   0  0  0  1  0  0  0  0  0  0  0  0
    2.8521    0.3438   -2.5016 H   0  0  0  1  0  0  0  0  0  0  0  0
    3.9569   -1.3435   -4.2325 H   0  0  0  1  0  0  0  0  0  0  0  0
    2.9315   -1.9763   -2.9667 H   0  0  0  1  0  0  0  0  0  0  0  0
    4.7511   -3.2538   -2.4125 H   0  0  0  1  0  0  0  0  0  0  0  0
    5.3941   -2.1890   -0.4584 H   0  0  0  1  0  0  0  0  0  0  0  0
    6.3402   -1.0270   -1.3577 H   0  0  0  1  0  0  0  0  0  0  0  0
    6.5723   -1.3033   -3.5869 H   0  0  0  1  0  0  0  0  0  0  0  0
    5.8889   -2.4579   -4.4590 H   0  0  0  1  0  0  0  0  0  0  0  0
  1  2  4  0  0  0  0
  1  6  4  0  0  0  0
  1 18  1  0  0  0  0
  2  3  4  0  0  0  0
  3  4  4  0  0  0  0
  3 25  1  0  0  0  0
  4  5  4  0  0  0  0
  4  7  4  0  0  0  0
  5  6  4  0  0  0  0
  5  9  4  0  0  0  0
  7  8  4  0  0  0  0
  7 26  1  0  0  0  0
  8  9  4  0  0  0  0
  9 10  1  0  0  0  0
 10 11  4  0  0  0  0
 10 15  4  0  0  0  0
 11 12  4  0  0  0  0
 11 27  1  0  0  0  0
 12 13  4  0  0  0  0
 12 28  1  0  0  0  0
 13 14  4  0  0  0  0
 13 16  1  0  0  0  0
 14 15  4  0  0  0  0
 14 29  1  0  0  0  0
 15 30  1  0  0  0  0
 16 17  1  0  0  0  0
 17 31  1  0  0  0  0
 17 32  1  0  0  0  0
 17 33  1  0  0  0  0
 18 19  1  0  0  0  0
 18 34  1  0  0  0  0
 19 20  1  0  0  0  0
 19 23  1  0  0  0  0
 19 35  1  0  0  0  0
 20 21  1  0  0  0  0
 20 36  1  0  0  0  0
 20 37  1  0  0  0  0
 21 22  1  0  0  0  0
 21 38  1  0  0  0  0
 21 39  1  0  0  0  0
 22 23  1  0  0  0  0
 22 24  1  0  0  0  0
 22 40  1  0  0  0  0
 23 41  1  0  0  0  0
 23 42  1  0  0  0  0
 24 43  1  0  0  0  0
 24 44  1  0  0  0  0
M  END
> <ConfClashScore>
0 

> <ConfOneFourInteractionScore>
-0.985399 

> <ConfScore>
-0.0578808 

> <ConfScorePBest>
0.00397975 

> <ConfTolerance>
0.338678 

$$$$
c22.sdf
 OpenBabel04162418103D

 44 47  0  0  0  0  0  0  0  0999 V2000
    3.8941    1.6370    0.0736 C   0  0  0  1  0  0  0  0  0  0  0  0
    3.6103    2.0279    1.3201 N   0  0  0  1  0  0  0  0  0  0  0  0
    3.2286    3.3065    1.5119 C   0  0  0  1  0  0  0  0  0  0  0  0
    3.1421    4.1705    0.3815 C   0  0  0  1  0  0  0  0  0  0  0  0
    3.4689    3.5947   -0.8400 C   0  0  0  1  0  0  0  0  0  0  0  0
    3.8619    2.3178   -1.0620 N   0  0  0  1  0  0  0  0  0  0  0  0
    2.8011    5.4990    0.0562 C   0  0  0  1  0  0  0  0  0  0  0  0
    2.9106    5.7295   -1.2318 N   0  0  0  1  0  0  0  0  0  0  0  0
    3.3240    4.5498   -1.7861 N   0  0  0  1  0  0  0  0  0  0  0  0
    3.5676    4.3546   -3.1657 C   0  0  0  1  0  0  0  0  0  0  0  0
    2.9183    5.1394   -4.0999 C   0  0  0  1  0  0  0  0  0  0  0  0
    3.1611    4.9517   -5.4516 C   0  0  0  1  0  0  0  0  0  0  0  0
    4.0485    3.9762   -5.8656 C   0  0  0  1  0  0  0  0  0  0  0  0
    4.6996    3.1891   -4.9285 C   0  0  0  1  0  0  0  0  0  0  0  0
    4.4576    3.3762   -3.5807 C   0  0  0  1  0  0  0  0  0  0  0  0
    4.3602    3.6989   -7.1505 O   0  0  0  1  0  0  0  0  0  0  0  0
    3.6020    4.3054   -8.2087 C   0  0  0  1  0  0  0  0  0  0  0  0
    4.2767    0.3332   -0.0476 N   0  0  0  1  0  0  0  0  0  0  0  0
    4.6954   -0.2317   -1.3378 C   0  0  0  1  0  0  0  0  0  0  0  0
    3.5200   -0.3429   -2.2992 C   0  0  0  1  0  0  0  0  0  0  0  0
    3.8847   -1.4272   -3.3040 C   0  0  0  1  0  0  0  0  0  0  0  0
    5.0047   -2.2435   -2.6558 C   0  0  0  1  0  0  0  0  0  0  0  0
    5.1425   -1.7336   -1.1852 C   0  0  0  1  0  0  0  0  0  0  0  0
    6.2806   -2.0359   -3.3910 N   0  0  0  1  0  0  0  0  0  0  0  0
    3.0019    3.6553    2.4651 H   0  0  0  1  0  0  0  0  0  0  0  0
    2.4994    6.2104    0.7521 H   0  0  0  1  0  0  0  0  0  0  0  0
    2.2476    5.8708   -3.7886 H   0  0  0  1  0  0  0  0  0  0  0  0
    2.6756    5.5449   -6.1544 H   0  0  0  1  0  0  0  0  0  0  0  0
    5.3704    2.4578   -5.2397 H   0  0  0  1  0  0  0  0  0  0  0  0
    4.9432    2.7830   -2.8778 H   0  0  0  1  0  0  0  0  0  0  0  0
    2.5582    4.1427   -8.0388 H   0  0  0  1  0  0  0  0  0  0  0  0
    3.8832    3.8687   -9.1441 H   0  0  0  1  0  0  0  0  0  0  0  0
    3.7998    5.3567   -8.2316 H   0  0  0  1  0  0  0  0  0  0  0  0
    4.2722   -0.2414    0.7462 H   0  0  0  1  0  0  0  0  0  0  0  0
    5.4800    0.3665   -1.7519 H   0  0  0  1  0  0  0  0  0  0  0  0
    3.3639    0.5890   -2.8015 H   0  0  0  1  0  0  0  0  0  0  0  0
    2.6322   -0.6152   -1.7676 H   0  0  0  1  0  0  0  0  0  0  0  0
    4.2264   -0.9874   -4.2177 H   0  0  0  1  0  0  0  0  0  0  0  0
    3.0377   -2.0502   -3.5024 H   0  0  0  1  0  0  0  0  0  0  0  0
    4.7536   -3.2836   -2.6628 H   0  0  0  1  0  0  0  0  0  0  0  0
    6.1516   -1.8086   -0.8375 H   0  0  0  1  0  0  0  0  0  0  0  0
    4.4956   -2.2696   -0.5225 H   0  0  0  1  0  0  0  0  0  0  0  0
    6.5781   -1.1094   -3.2748 H   0  0  0  1  0  0  0  0  0  0  0  0
    6.1414   -2.2170   -4.3440 H   0  0  0  1  0  0  0  0  0  0  0  0
  1  2  4  0  0  0  0
  1  6  4  0  0  0  0
  1 18  1  0  0  0  0
  2  3  4  0  0  0  0
  3  4  4  0  0  0  0
  3 25  1  0  0  0  0
  4  5  4  0  0  0  0
  4  7  4  0  0  0  0
  5  6  4  0  0  0  0
  5  9  4  0  0  0  0
  7  8  4  0  0  0  0
  7 26  1  0  0  0  0
  8  9  4  0  0  0  0
  9 10  1  0  0  0  0
 10 11  4  0  0  0  0
 10 15  4  0  0  0  0
 11 12  4  0  0  0  0
 11 27  1  0  0  0  0
 12 13  4  0  0  0  0
 12 28  1  0  0  0  0
 13 14  4  0  0  0  0
 13 16  1  0  0  0  0
 14 15  4  0  0  0  0
 14 29  1  0  0  0  0
 15 30  1  0  0  0  0
 16 17  1  0  0  0  0
 17 31  1  0  0  0  0
 17 32  1  0  0  0  0
 17 33  1  0  0  0  0
 18 19  1  0  0  0  0
 18 34  1  0  0  0  0
 19 20  1  0  0  0  0
 19 23  1  0  0  0  0
 19 35  1  0  0  0  0
 20 21  1  0  0  0  0
 20 36  1  0  0  0  0
 20 37  1  0  0  0  0
 21 22  1  0  0  0  0
 21 38  1  0  0  0  0
 21 39  1  0  0  0  0
 22 23  1  0  0  0  0
 22 24  1  0  0  0  0
 22 40  1  0  0  0  0
 23 41  1  0  0  0  0
 23 42  1  0  0  0  0
 24 43  1  0  0  0  0
 24 44  1  0  0  0  0
M  END
> <ConfClashScore>
0 

> <ConfOneFourInteractionScore>
-0.981848 

> <ConfScore>
-0.0578808 

> <ConfScorePBest>
0.00396642 

> <ConfTolerance>
0.378792 

$$$$
c22.sdf
 OpenBabel04162418103D

 44 47  0  0  0  0  0  0  0  0999 V2000
    2.3379   -0.6558    0.4855 C   0  0  0  1  0  0  0  0  0  0  0  0
    1.5694   -1.5376    1.1328 N   0  0  0  1  0  0  0  0  0  0  0  0
    0.5415   -1.0646    1.8656 C   0  0  0  1  0  0  0  0  0  0  0  0
    0.3241    0.3435    1.9086 C   0  0  0  1  0  0  0  0  0  0  0  0
    1.2173    1.1111    1.1713 C   0  0  0  1  0  0  0  0  0  0  0  0
    2.2614    0.6654    0.4329 N   0  0  0  1  0  0  0  0  0  0  0  0
   -0.5578    1.2874    2.4725 C   0  0  0  1  0  0  0  0  0  0  0  0
   -0.2436    2.5151    2.1289 N   0  0  0  1  0  0  0  0  0  0  0  0
    0.8556    2.4051    1.3230 N   0  0  0  1  0  0  0  0  0  0  0  0
    1.5291    3.5058    0.7239 C   0  0  0  1  0  0  0  0  0  0  0  0
    1.0468    4.0556   -0.4489 C   0  0  0  1  0  0  0  0  0  0  0  0
    1.7000    5.1314   -1.0297 C   0  0  0  1  0  0  0  0  0  0  0  0
    2.8365    5.6510   -0.4391 C   0  0  0  1  0  0  0  0  0  0  0  0
    3.3201    5.0994    0.7372 C   0  0  0  1  0  0  0  0  0  0  0  0
    2.6689    4.0267    1.3164 C   0  0  0  1  0  0  0  0  0  0  0  0
    3.5593    6.6926   -0.9149 O   0  0  0  1  0  0  0  0  0  0  0  0
    3.1740    7.2309   -2.1893 C   0  0  0  1  0  0  0  0  0  0  0  0
    3.3420   -1.1923   -0.2200 N   0  0  0  1  0  0  0  0  0  0  0  0
    4.3042   -0.4680   -1.0510 C   0  0  0  1  0  0  0  0  0  0  0  0
    3.7021   -0.0965   -2.4123 C   0  0  0  1  0  0  0  0  0  0  0  0
    3.7435   -1.3885   -3.2188 C   0  0  0  1  0  0  0  0  0  0  0  0
    4.9456   -2.1691   -2.6745 C   0  0  0  1  0  0  0  0  0  0  0  0
    5.4692   -1.3677   -1.4723 C   0  0  0  1  0  0  0  0  0  0  0  0
    6.0050   -2.2836   -3.7211 N   0  0  0  1  0  0  0  0  0  0  0  0
   -0.0800   -1.7137    2.3890 H   0  0  0  1  0  0  0  0  0  0  0  0
   -1.3604    1.0412    3.0865 H   0  0  0  1  0  0  0  0  0  0  0  0
    0.1940    3.6622   -0.8955 H   0  0  0  1  0  0  0  0  0  0  0  0
    1.3349    5.5478   -1.9100 H   0  0  0  1  0  0  0  0  0  0  0  0
    4.1729    5.4928    1.1838 H   0  0  0  1  0  0  0  0  0  0  0  0
    3.0340    3.6103    2.1967 H   0  0  0  1  0  0  0  0  0  0  0  0
    3.1680    6.4494   -2.9201 H   0  0  0  1  0  0  0  0  0  0  0  0
    3.8716    7.9875   -2.4823 H   0  0  0  1  0  0  0  0  0  0  0  0
    2.1953    7.6570   -2.1151 H   0  0  0  1  0  0  0  0  0  0  0  0
    3.4423   -2.1661   -0.1752 H   0  0  0  1  0  0  0  0  0  0  0  0
    4.6487    0.3983   -0.5259 H   0  0  0  1  0  0  0  0  0  0  0  0
    2.6945    0.2452   -2.2986 H   0  0  0  1  0  0  0  0  0  0  0  0
    4.2856    0.6640   -2.8880 H   0  0  0  1  0  0  0  0  0  0  0  0
    2.8409   -1.9460   -3.0792 H   0  0  0  1  0  0  0  0  0  0  0  0
    3.8750   -1.1763   -4.2592 H   0  0  0  1  0  0  0  0  0  0  0  0
    4.6427   -3.1474   -2.3644 H   0  0  0  1  0  0  0  0  0  0  0  0
    6.3156   -0.7774   -1.7551 H   0  0  0  1  0  0  0  0  0  0  0  0
    5.7430   -2.0252   -0.6738 H   0  0  0  1  0  0  0  0  0  0  0  0
    6.6835   -2.9283   -3.4305 H   0  0  0  1  0  0  0  0  0  0  0  0
    6.4239   -1.4084   -3.8586 H   0  0  0  1  0  0  0  0  0  0  0  0
  1  2  4  0  0  0  0
  1  6  4  0  0  0  0
  1 18  1  0  0  0  0
  2  3  4  0  0  0  0
  3  4  4  0  0  0  0
  3 25  1  0  0  0  0
  4  5  4  0  0  0  0
  4  7  4  0  0  0  0
  5  6  4  0  0  0  0
  5  9  4  0  0  0  0
  7  8  4  0  0  0  0
  7 26  1  0  0  0  0
  8  9  4  0  0  0  0
  9 10  1  0  0  0  0
 10 11  4  0  0  0  0
 10 15  4  0  0  0  0
 11 12  4  0  0  0  0
 11 27  1  0  0  0  0
 12 13  4  0  0  0  0
 12 28  1  0  0  0  0
 13 14  4  0  0  0  0
 13 16  1  0  0  0  0
 14 15  4  0  0  0  0
 14 29  1  0  0  0  0
 15 30  1  0  0  0  0
 16 17  1  0  0  0  0
 17 31  1  0  0  0  0
 17 32  1  0  0  0  0
 17 33  1  0  0  0  0
 18 19  1  0  0  0  0
 18 34  1  0  0  0  0
 19 20  1  0  0  0  0
 19 23  1  0  0  0  0
 19 35  1  0  0  0  0
 20 21  1  0  0  0  0
 20 36  1  0  0  0  0
 20 37  1  0  0  0  0
 21 22  1  0  0  0  0
 21 38  1  0  0  0  0
 21 39  1  0  0  0  0
 22 23  1  0  0  0  0
 22 24  1  0  0  0  0
 22 40  1  0  0  0  0
 23 41  1  0  0  0  0
 23 42  1  0  0  0  0
 24 43  1  0  0  0  0
 24 44  1  0  0  0  0
M  END
> <ConfClashScore>
0 

> <ConfOneFourInteractionScore>
-0.984337 

> <ConfScore>
-0.0578341 

> <ConfScorePBest>
0.00395309 

> <ConfTolerance>
0.364598 

$$$$
c22.sdf
 OpenBabel04162418103D

 44 47  0  0  0  0  0  0  0  0999 V2000
    3.9676    1.5493    0.1453 C   0  0  0  1  0  0  0  0  0  0  0  0
    3.4691    1.9496    1.3193 N   0  0  0  1  0  0  0  0  0  0  0  0
    3.2921    3.2716    1.5151 C   0  0  0  1  0  0  0  0  0  0  0  0
    3.6384    4.1702    0.4641 C   0  0  0  1  0  0  0  0  0  0  0  0
    4.1383    3.5794   -0.6899 C   0  0  0  1  0  0  0  0  0  0  0  0
    4.3335    2.2579   -0.9122 N   0  0  0  1  0  0  0  0  0  0  0  0
    3.6336    5.5489    0.1713 C   0  0  0  1  0  0  0  0  0  0  0  0
    4.0891    5.7931   -1.0358 N   0  0  0  1  0  0  0  0  0  0  0  0
    4.4013    4.5731   -1.5685 N   0  0  0  1  0  0  0  0  0  0  0  0
    4.9273    4.3772   -2.8615 C   0  0  0  1  0  0  0  0  0  0  0  0
    4.3971    3.4556   -3.7445 C   0  0  0  1  0  0  0  0  0  0  0  0
    4.9505    3.3075   -5.0068 C   0  0  0  1  0  0  0  0  0  0  0  0
    6.0358    4.0776   -5.3804 C   0  0  0  1  0  0  0  0  0  0  0  0
    6.5674    5.0019   -4.4946 C   0  0  0  1  0  0  0  0  0  0  0  0
    6.0157    5.1496   -3.2360 C   0  0  0  1  0  0  0  0  0  0  0  0
    6.6616    4.0181   -6.5798 O   0  0  0  1  0  0  0  0  0  0  0  0
    6.0243    3.2539   -7.6154 C   0  0  0  1  0  0  0  0  0  0  0  0
    4.1274    0.1701    0.0134 N   0  0  0  1  0  0  0  0  0  0  0  0
    4.6551   -0.2672   -1.2823 C   0  0  0  1  0  0  0  0  0  0  0  0
    3.5552   -0.2981   -2.3320 C   0  0  0  1  0  0  0  0  0  0  0  0
    3.8991   -1.4253   -3.2714 C   0  0  0  1  0  0  0  0  0  0  0  0
    5.0152   -2.2208   -2.6448 C   0  0  0  1  0  0  0  0  0  0  0  0
    5.1392   -1.7262   -1.2121 C   0  0  0  1  0  0  0  0  0  0  0  0
    6.2939   -1.9901   -3.3847 N   0  0  0  1  0  0  0  0  0  0  0  0
    2.9108    3.6285    2.4144 H   0  0  0  1  0  0  0  0  0  0  0  0
    3.3085    6.2839    0.8314 H   0  0  0  1  0  0  0  0  0  0  0  0
    3.5831    2.8733   -3.4620 H   0  0  0  1  0  0  0  0  0  0  0  0
    4.5491    2.6169   -5.6727 H   0  0  0  1  0  0  0  0  0  0  0  0
    7.3815    5.5842   -4.7771 H   0  0  0  1  0  0  0  0  0  0  0  0
    6.4171    5.8402   -2.5700 H   0  0  0  1  0  0  0  0  0  0  0  0
    6.7123    3.0996   -8.4202 H   0  0  0  1  0  0  0  0  0  0  0  0
    5.1683    3.7856   -7.9752 H   0  0  0  1  0  0  0  0  0  0  0  0
    5.7175    2.3073   -7.2223 H   0  0  0  1  0  0  0  0  0  0  0  0
    3.9041   -0.4581    0.7316 H   0  0  0  1  0  0  0  0  0  0  0  0
    5.4496    0.3836   -1.5825 H   0  0  0  1  0  0  0  0  0  0  0  0
    3.5238    0.6302   -2.8632 H   0  0  0  1  0  0  0  0  0  0  0  0
    2.6070   -0.4774   -1.8698 H   0  0  0  1  0  0  0  0  0  0  0  0
    4.2179   -1.0300   -4.2132 H   0  0  0  1  0  0  0  0  0  0  0  0
    3.0436   -2.0511   -3.4178 H   0  0  0  1  0  0  0  0  0  0  0  0
    4.7786   -3.2643   -2.6572 H   0  0  0  1  0  0  0  0  0  0  0  0
    6.1550   -1.7747   -0.8792 H   0  0  0  1  0  0  0  0  0  0  0  0
    4.5204   -2.3015   -0.5557 H   0  0  0  1  0  0  0  0  0  0  0  0
    6.4495   -1.0269   -3.4764 H   0  0  0  1  0  0  0  0  0  0  0  0
    6.2345   -2.3974   -4.2740 H   0  0  0  1  0  0  0  0  0  0  0  0
  1  2  4  0  0  0  0
  1  6  4  0  0  0  0
  1 18  1  0  0  0  0
  2  3  4  0  0  0  0
  3  4  4  0  0  0  0
  3 25  1  0  0  0  0
  4  5  4  0  0  0  0
  4  7  4  0  0  0  0
  5  6  4  0  0  0  0
  5  9  4  0  0  0  0
  7  8  4  0  0  0  0
  7 26  1  0  0  0  0
  8  9  4  0  0  0  0
  9 10  1  0  0  0  0
 10 11  4  0  0  0  0
 10 15  4  0  0  0  0
 11 12  4  0  0  0  0
 11 27  1  0  0  0  0
 12 13  4  0  0  0  0
 12 28  1  0  0  0  0
 13 14  4  0  0  0  0
 13 16  1  0  0  0  0
 14 15  4  0  0  0  0
 14 29  1  0  0  0  0
 15 30  1  0  0  0  0
 16 17  1  0  0  0  0
 17 31  1  0  0  0  0
 17 32  1  0  0  0  0
 17 33  1  0  0  0  0
 18 19  1  0  0  0  0
 18 34  1  0  0  0  0
 19 20  1  0  0  0  0
 19 23  1  0  0  0  0
 19 35  1  0  0  0  0
 20 21  1  0  0  0  0
 20 36  1  0  0  0  0
 20 37  1  0  0  0  0
 21 22  1  0  0  0  0
 21 38  1  0  0  0  0
 21 39  1  0  0  0  0
 22 23  1  0  0  0  0
 22 24  1  0  0  0  0
 22 40  1  0  0  0  0
 23 41  1  0  0  0  0
 23 42  1  0  0  0  0
 24 43  1  0  0  0  0
 24 44  1  0  0  0  0
M  END
> <ConfClashScore>
0 

> <ConfOneFourInteractionScore>
-0.984337 

> <ConfScore>
-0.057526 

> <ConfScorePBest>
0.00393977 

> <ConfTolerance>
0.294557 

$$$$
c22.sdf
 OpenBabel04162418103D

 44 47  0  0  0  0  0  0  0  0999 V2000
    2.9074   -0.9414    0.9779 C   0  0  0  1  0  0  0  0  0  0  0  0
    1.9444   -1.7366    1.4549 N   0  0  0  1  0  0  0  0  0  0  0  0
    1.4715   -1.4868    2.6924 C   0  0  0  1  0  0  0  0  0  0  0  0
    2.0152   -0.3904    3.4232 C   0  0  0  1  0  0  0  0  0  0  0  0
    3.0064    0.3326    2.7710 C   0  0  0  1  0  0  0  0  0  0  0  0
    3.5058    0.1014    1.5336 N   0  0  0  1  0  0  0  0  0  0  0  0
    1.8704    0.2641    4.6631 C   0  0  0  1  0  0  0  0  0  0  0  0
    2.6901    1.2837    4.7754 N   0  0  0  1  0  0  0  0  0  0  0  0
    3.3930    1.3256    3.6033 N   0  0  0  1  0  0  0  0  0  0  0  0
    4.3918    2.2807    3.3016 C   0  0  0  1  0  0  0  0  0  0  0  0
    4.2314    3.5960    3.6948 C   0  0  0  1  0  0  0  0  0  0  0  0
    5.2126    4.5308    3.4038 C   0  0  0  1  0  0  0  0  0  0  0  0
    6.3489    4.1489    2.7159 C   0  0  0  1  0  0  0  0  0  0  0  0
    6.5097    2.8297    2.3216 C   0  0  0  1  0  0  0  0  0  0  0  0
    5.5314    1.8975    2.6117 C   0  0  0  1  0  0  0  0  0  0  0  0
    7.3414    5.0130    2.3961 O   0  0  0  1  0  0  0  0  0  0  0  0
    7.1710    6.3832    2.7911 C   0  0  0  1  0  0  0  0  0  0  0  0
    3.3332   -1.2467   -0.2529 N   0  0  0  1  0  0  0  0  0  0  0  0
    4.2884   -0.4827   -1.0568 C   0  0  0  1  0  0  0  0  0  0  0  0
    3.6884   -0.0823   -2.3946 C   0  0  0  1  0  0  0  0  0  0  0  0
    3.7933   -1.3453   -3.2559 C   0  0  0  1  0  0  0  0  0  0  0  0
    4.9406   -2.1749   -2.6639 C   0  0  0  1  0  0  0  0  0  0  0  0
    5.4744   -1.3523   -1.4879 C   0  0  0  1  0  0  0  0  0  0  0  0
    5.9960   -2.3824   -3.6673 N   0  0  0  1  0  0  0  0  0  0  0  0
    0.7252   -2.0820    3.1054 H   0  0  0  1  0  0  0  0  0  0  0  0
    1.1960   -0.0256    5.3999 H   0  0  0  1  0  0  0  0  0  0  0  0
    3.3745    3.8842    4.2089 H   0  0  0  1  0  0  0  0  0  0  0  0
    5.0938    5.5197    3.7032 H   0  0  0  1  0  0  0  0  0  0  0  0
    7.3665    2.5414    1.8075 H   0  0  0  1  0  0  0  0  0  0  0  0
    5.6501    0.9086    2.3123 H   0  0  0  1  0  0  0  0  0  0  0  0
    6.2698    6.7691    2.3624 H   0  0  0  1  0  0  0  0  0  0  0  0
    8.0045    6.9595    2.4474 H   0  0  0  1  0  0  0  0  0  0  0  0
    7.1118    6.4419    3.8579 H   0  0  0  1  0  0  0  0  0  0  0  0
    2.9696   -2.0625   -0.6563 H   0  0  0  1  0  0  0  0  0  0  0  0
    4.6147    0.3741   -0.5051 H   0  0  0  1  0  0  0  0  0  0  0  0
    4.2433    0.7210   -2.8325 H   0  0  0  1  0  0  0  0  0  0  0  0
    2.6663    0.2117   -2.2777 H   0  0  0  1  0  0  0  0  0  0  0  0
    2.8779   -1.8978   -3.2164 H   0  0  0  1  0  0  0  0  0  0  0  0
    4.0098   -1.0848   -4.2708 H   0  0  0  1  0  0  0  0  0  0  0  0
    4.5798   -3.1231   -2.3238 H   0  0  0  1  0  0  0  0  0  0  0  0
    6.2978   -0.7424   -1.7962 H   0  0  0  1  0  0  0  0  0  0  0  0
    5.7839   -1.9926   -0.6884 H   0  0  0  1  0  0  0  0  0  0  0  0
    6.6998   -2.9500   -3.2892 H   0  0  0  1  0  0  0  0  0  0  0  0
    6.3773   -1.5168   -3.9238 H   0  0  0  1  0  0  0  0  0  0  0  0
  1  2  4  0  0  0  0
  1  6  4  0  0  0  0
  1 18  1  0  0  0  0
  2  3  4  0  0  0  0
  3  4  4  0  0  0  0
  3 25  1  0  0  0  0
  4  5  4  0  0  0  0
  4  7  4  0  0  0  0
  5  6  4  0  0  0  0
  5  9  4  0  0  0  0
  7  8  4  0  0  0  0
  7 26  1  0  0  0  0
  8  9  4  0  0  0  0
  9 10  1  0  0  0  0
 10 11  4  0  0  0  0
 10 15  4  0  0  0  0
 11 12  4  0  0  0  0
 11 27  1  0  0  0  0
 12 13  4  0  0  0  0
 12 28  1  0  0  0  0
 13 14  4  0  0  0  0
 13 16  1  0  0  0  0
 14 15  4  0  0  0  0
 14 29  1  0  0  0  0
 15 30  1  0  0  0  0
 16 17  1  0  0  0  0
 17 31  1  0  0  0  0
 17 32  1  0  0  0  0
 17 33  1  0  0  0  0
 18 19  1  0  0  0  0
 18 34  1  0  0  0  0
 19 20  1  0  0  0  0
 19 23  1  0  0  0  0
 19 35  1  0  0  0  0
 20 21  1  0  0  0  0
 20 36  1  0  0  0  0
 20 37  1  0  0  0  0
 21 22  1  0  0  0  0
 21 38  1  0  0  0  0
 21 39  1  0  0  0  0
 22 23  1  0  0  0  0
 22 24  1  0  0  0  0
 22 40  1  0  0  0  0
 23 41  1  0  0  0  0
 23 42  1  0  0  0  0
 24 43  1  0  0  0  0
 24 44  1  0  0  0  0
M  END
> <ConfClashScore>
0 

> <ConfOneFourInteractionScore>
-0.984337 

> <ConfScore>
-0.0573275 

> <ConfScorePBest>
0.00392644 

> <ConfTolerance>
0.409135 

$$$$
c22.sdf
 OpenBabel04162418103D

 44 47  0  0  0  0  0  0  0  0999 V2000
    2.2895   -0.4961    0.4928 C   0  0  0  1  0  0  0  0  0  0  0  0
    1.4117   -1.2526    1.1593 N   0  0  0  1  0  0  0  0  0  0  0  0
    0.5109   -0.6325    1.9476 C   0  0  0  1  0  0  0  0  0  0  0  0
    0.5363    0.7905    2.0257 C   0  0  0  1  0  0  0  0  0  0  0  0
    1.5138    1.4158    1.2614 C   0  0  0  1  0  0  0  0  0  0  0  0
    2.4351    0.8201    0.4674 N   0  0  0  1  0  0  0  0  0  0  0  0
   -0.1486    1.8544    2.6468 C   0  0  0  1  0  0  0  0  0  0  0  0
    0.3533    3.0203    2.3109 N   0  0  0  1  0  0  0  0  0  0  0  0
    1.3826    2.7480    1.4528 N   0  0  0  1  0  0  0  0  0  0  0  0
    2.2011    3.7292    0.8462 C   0  0  0  1  0  0  0  0  0  0  0  0
    1.6449    4.6584   -0.0124 C   0  0  0  1  0  0  0  0  0  0  0  0
    2.4462    5.6232   -0.6027 C   0  0  0  1  0  0  0  0  0  0  0  0
    3.8022    5.6528   -0.3368 C   0  0  0  1  0  0  0  0  0  0  0  0
    4.3599    4.7207    0.5244 C   0  0  0  1  0  0  0  0  0  0  0  0
    3.5611    3.7586    1.1130 C   0  0  0  1  0  0  0  0  0  0  0  0
    4.4791    6.6301   -0.9706 O   0  0  0  1  0  0  0  0  0  0  0  0
    5.9109    6.6157   -0.7647 C   0  0  0  1  0  0  0  0  0  0  0  0
    3.1857   -1.1974   -0.2929 N   0  0  0  1  0  0  0  0  0  0  0  0
    4.2505   -0.4823   -1.0026 C   0  0  0  1  0  0  0  0  0  0  0  0
    3.8073   -0.0715   -2.4127 C   0  0  0  1  0  0  0  0  0  0  0  0
    3.9045   -1.3498   -3.2361 C   0  0  0  1  0  0  0  0  0  0  0  0
    5.0223   -2.1705   -2.5823 C   0  0  0  1  0  0  0  0  0  0  0  0
    5.4324   -1.4040   -1.3149 C   0  0  0  1  0  0  0  0  0  0  0  0
    6.1851   -2.2937   -3.5114 N   0  0  0  1  0  0  0  0  0  0  0  0
   -0.1883   -1.1812    2.4876 H   0  0  0  1  0  0  0  0  0  0  0  0
   -0.9541    1.7309    3.2930 H   0  0  0  1  0  0  0  0  0  0  0  0
    0.6252    4.6337   -0.2157 H   0  0  0  1  0  0  0  0  0  0  0  0
    2.0270    6.3249   -1.2457 H   0  0  0  1  0  0  0  0  0  0  0  0
    5.3796    4.7454    0.7277 H   0  0  0  1  0  0  0  0  0  0  0  0
    3.9802    3.0569    1.7560 H   0  0  0  1  0  0  0  0  0  0  0  0
    6.3102    5.6806   -1.0977 H   0  0  0  1  0  0  0  0  0  0  0  0
    6.1226    6.7432    0.2764 H   0  0  0  1  0  0  0  0  0  0  0  0
    6.3589    7.4128   -1.3205 H   0  0  0  1  0  0  0  0  0  0  0  0
    3.1091   -2.1709   -0.3752 H   0  0  0  1  0  0  0  0  0  0  0  0
    4.5570    0.3655   -0.4262 H   0  0  0  1  0  0  0  0  0  0  0  0
    4.4563    0.6820   -2.8077 H   0  0  0  1  0  0  0  0  0  0  0  0
    2.8016    0.2939   -2.4007 H   0  0  0  1  0  0  0  0  0  0  0  0
    2.9792   -1.8862   -3.2053 H   0  0  0  1  0  0  0  0  0  0  0  0
    4.1521   -1.1227   -4.2520 H   0  0  0  1  0  0  0  0  0  0  0  0
    4.6648   -3.1459   -2.3262 H   0  0  0  1  0  0  0  0  0  0  0  0
    5.6031   -2.0824   -0.5051 H   0  0  0  1  0  0  0  0  0  0  0  0
    6.3181   -0.8308   -1.4933 H   0  0  0  1  0  0  0  0  0  0  0  0
    6.3687   -1.4235   -3.9229 H   0  0  0  1  0  0  0  0  0  0  0  0
    5.9763   -2.9479   -4.2106 H   0  0  0  1  0  0  0  0  0  0  0  0
  1  2  4  0  0  0  0
  1  6  4  0  0  0  0
  1 18  1  0  0  0  0
  2  3  4  0  0  0  0
  3  4  4  0  0  0  0
  3 25  1  0  0  0  0
  4  5  4  0  0  0  0
  4  7  4  0  0  0  0
  5  6  4  0  0  0  0
  5  9  4  0  0  0  0
  7  8  4  0  0  0  0
  7 26  1  0  0  0  0
  8  9  4  0  0  0  0
  9 10  1  0  0  0  0
 10 11  4  0  0  0  0
 10 15  4  0  0  0  0
 11 12  4  0  0  0  0
 11 27  1  0  0  0  0
 12 13  4  0  0  0  0
 12 28  1  0  0  0  0
 13 14  4  0  0  0  0
 13 16  1  0  0  0  0
 14 15  4  0  0  0  0
 14 29  1  0  0  0  0
 15 30  1  0  0  0  0
 16 17  1  0  0  0  0
 17 31  1  0  0  0  0
 17 32  1  0  0  0  0
 17 33  1  0  0  0  0
 18 19  1  0  0  0  0
 18 34  1  0  0  0  0
 19 20  1  0  0  0  0
 19 23  1  0  0  0  0
 19 35  1  0  0  0  0
 20 21  1  0  0  0  0
 20 36  1  0  0  0  0
 20 37  1  0  0  0  0
 21 22  1  0  0  0  0
 21 38  1  0  0  0  0
 21 39  1  0  0  0  0
 22 23  1  0  0  0  0
 22 24  1  0  0  0  0
 22 40  1  0  0  0  0
 23 41  1  0  0  0  0
 23 42  1  0  0  0  0
 24 43  1  0  0  0  0
 24 44  1  0  0  0  0
M  END
> <ConfClashScore>
0 

> <ConfOneFourInteractionScore>
-0.984337 

> <ConfScore>
-0.0572708 

> <ConfScorePBest>
0.00391311 

> <ConfTolerance>
0.238649 

$$$$
c22.sdf
 OpenBabel04162418103D

 44 47  0  0  0  0  0  0  0  0999 V2000
    3.9224    1.5714    0.1880 C   0  0  0  1  0  0  0  0  0  0  0  0
    4.0167    2.3574   -0.8892 N   0  0  0  1  0  0  0  0  0  0  0  0
    3.7196    3.6647   -0.7477 C   0  0  0  1  0  0  0  0  0  0  0  0
    3.3277    4.1411    0.5373 C   0  0  0  1  0  0  0  0  0  0  0  0
    3.2888    3.1854    1.5451 C   0  0  0  1  0  0  0  0  0  0  0  0
    3.5742    1.8664    1.4314 N   0  0  0  1  0  0  0  0  0  0  0  0
    2.9531    5.3373    1.1820 C   0  0  0  1  0  0  0  0  0  0  0  0
    2.7003    5.1465    2.4562 N   0  0  0  1  0  0  0  0  0  0  0  0
    2.9085    3.8137    2.6804 N   0  0  0  1  0  0  0  0  0  0  0  0
    2.7464    3.1728    3.9418 C   0  0  0  1  0  0  0  0  0  0  0  0
    3.7103    2.2944    4.3994 C   0  0  0  1  0  0  0  0  0  0  0  0
    3.5551    1.6746    5.6295 C   0  0  0  1  0  0  0  0  0  0  0  0
    2.4339    1.9310    6.3961 C   0  0  0  1  0  0  0  0  0  0  0  0
    1.4672    2.8121    5.9370 C   0  0  0  1  0  0  0  0  0  0  0  0
    1.6219    3.4301    4.7104 C   0  0  0  1  0  0  0  0  0  0  0  0
    2.2798    1.3215    7.5955 O   0  0  0  1  0  0  0  0  0  0  0  0
    3.3716    0.5168    8.0677 C   0  0  0  1  0  0  0  0  0  0  0  0
    4.2292    0.2789   -0.0239 N   0  0  0  1  0  0  0  0  0  0  0  0
    4.6716   -0.2512   -1.3077 C   0  0  0  1  0  0  0  0  0  0  0  0
    3.5167   -0.3399   -2.2959 C   0  0  0  1  0  0  0  0  0  0  0  0
    3.9031   -1.4002   -3.3180 C   0  0  0  1  0  0  0  0  0  0  0  0
    5.0098   -2.2315   -2.6657 C   0  0  0  1  0  0  0  0  0  0  0  0
    5.1163   -1.7562   -1.1810 C   0  0  0  1  0  0  0  0  0  0  0  0
    6.3194   -2.0032   -3.3791 N   0  0  0  1  0  0  0  0  0  0  0  0
    3.7753    4.3124   -1.5595 H   0  0  0  1  0  0  0  0  0  0  0  0
    2.8852    6.2594    0.7059 H   0  0  0  1  0  0  0  0  0  0  0  0
    4.5520    2.0984    3.8208 H   0  0  0  1  0  0  0  0  0  0  0  0
    4.2823    1.0167    5.9757 H   0  0  0  1  0  0  0  0  0  0  0  0
    0.6255    3.0081    6.5155 H   0  0  0  1  0  0  0  0  0  0  0  0
    0.8947    4.0880    4.3642 H   0  0  0  1  0  0  0  0  0  0  0  0
    3.5881   -0.2476    7.3510 H   0  0  0  1  0  0  0  0  0  0  0  0
    3.1044    0.0655    9.0004 H   0  0  0  1  0  0  0  0  0  0  0  0
    4.2358    1.1330    8.2037 H   0  0  0  1  0  0  0  0  0  0  0  0
    4.1506   -0.3430    0.7293 H   0  0  0  1  0  0  0  0  0  0  0  0
    5.4644    0.3566   -1.6910 H   0  0  0  1  0  0  0  0  0  0  0  0
    3.3706    0.6035   -2.7792 H   0  0  0  1  0  0  0  0  0  0  0  0
    2.6181   -0.6247   -1.7896 H   0  0  0  1  0  0  0  0  0  0  0  0
    3.0608   -2.0185   -3.5486 H   0  0  0  1  0  0  0  0  0  0  0  0
    4.2636   -0.9391   -4.2137 H   0  0  0  1  0  0  0  0  0  0  0  0
    4.7595   -3.2711   -2.7024 H   0  0  0  1  0  0  0  0  0  0  0  0
    6.1180   -1.8393   -0.8140 H   0  0  0  1  0  0  0  0  0  0  0  0
    4.4560   -2.3077   -0.5448 H   0  0  0  1  0  0  0  0  0  0  0  0
    6.5573   -1.0538   -3.3306 H   0  0  0  1  0  0  0  0  0  0  0  0
    6.2306   -2.2699   -4.3179 H   0  0  0  1  0  0  0  0  0  0  0  0
  1  2  4  0  0  0  0
  1  6  4  0  0  0  0
  1 18  1  0  0  0  0
  2  3  4  0  0  0  0
  3  4  4  0  0  0  0
  3 25  1  0  0  0  0
  4  5  4  0  0  0  0
  4  7  4  0  0  0  0
  5  6  4  0  0  0  0
  5  9  4  0  0  0  0
  7  8  4  0  0  0  0
  7 26  1  0  0  0  0
  8  9  4  0  0  0  0
  9 10  1  0  0  0  0
 10 11  4  0  0  0  0
 10 15  4  0  0  0  0
 11 12  4  0  0  0  0
 11 27  1  0  0  0  0
 12 13  4  0  0  0  0
 12 28  1  0  0  0  0
 13 14  4  0  0  0  0
 13 16  1  0  0  0  0
 14 15  4  0  0  0  0
 14 29  1  0  0  0  0
 15 30  1  0  0  0  0
 16 17  1  0  0  0  0
 17 31  1  0  0  0  0
 17 32  1  0  0  0  0
 17 33  1  0  0  0  0
 18 19  1  0  0  0  0
 18 34  1  0  0  0  0
 19 20  1  0  0  0  0
 19 23  1  0  0  0  0
 19 35  1  0  0  0  0
 20 21  1  0  0  0  0
 20 36  1  0  0  0  0
 20 37  1  0  0  0  0
 21 22  1  0  0  0  0
 21 38  1  0  0  0  0
 21 39  1  0  0  0  0
 22 23  1  0  0  0  0
 22 24  1  0  0  0  0
 22 40  1  0  0  0  0
 23 41  1  0  0  0  0
 23 42  1  0  0  0  0
 24 43  1  0  0  0  0
 24 44  1  0  0  0  0
M  END
> <ConfClashScore>
0 

> <ConfOneFourInteractionScore>
-0.984337 

> <ConfScore>
-0.0569451 

> <ConfScorePBest>
0.00389978 

> <ConfTolerance>
0.224386 

$$$$
c22.sdf
 OpenBabel04162418103D

 44 47  0  0  0  0  0  0  0  0999 V2000
    3.0243    0.5904    0.7008 C   0  0  0  1  0  0  0  0  0  0  0  0
    3.3875    1.7874    0.2293 N   0  0  0  1  0  0  0  0  0  0  0  0
    2.9843    2.8829    0.9035 C   0  0  0  1  0  0  0  0  0  0  0  0
    2.2002    2.7102    2.0814 C   0  0  0  1  0  0  0  0  0  0  0  0
    1.9206    1.3941    2.4281 C   0  0  0  1  0  0  0  0  0  0  0  0
    2.3052    0.2761    1.7677 N   0  0  0  1  0  0  0  0  0  0  0  0
    1.5801    3.4722    3.0921 C   0  0  0  1  0  0  0  0  0  0  0  0
    0.9717    2.7117    3.9728 N   0  0  0  1  0  0  0  0  0  0  0  0
    1.1831    1.4250    3.5611 N   0  0  0  1  0  0  0  0  0  0  0  0
    0.6969    0.2828    4.2288 C   0  0  0  1  0  0  0  0  0  0  0  0
   -0.6694    0.0746    4.2297 C   0  0  0  1  0  0  0  0  0  0  0  0
   -1.2007   -1.0359    4.8669 C   0  0  0  1  0  0  0  0  0  0  0  0
   -0.3647   -1.9320    5.5060 C   0  0  0  1  0  0  0  0  0  0  0  0
    1.0057   -1.7229    5.5051 C   0  0  0  1  0  0  0  0  0  0  0  0
    1.5356   -0.6157    4.8697 C   0  0  0  1  0  0  0  0  0  0  0  0
   -0.9970   -2.9735    6.0970 O   0  0  0  1  0  0  0  0  0  0  0  0
   -0.1976   -3.8572    6.8986 C   0  0  0  1  0  0  0  0  0  0  0  0
    3.4585   -0.4629   -0.0239 N   0  0  0  1  0  0  0  0  0  0  0  0
    4.4407   -0.3597   -1.1100 C   0  0  0  1  0  0  0  0  0  0  0  0
    3.7436   -0.1343   -2.4478 C   0  0  0  1  0  0  0  0  0  0  0  0
    3.6950   -1.4843   -3.1738 C   0  0  0  1  0  0  0  0  0  0  0  0
    5.0647   -2.1255   -2.7691 C   0  0  0  1  0  0  0  0  0  0  0  0
    5.2100   -1.7143   -1.2923 C   0  0  0  1  0  0  0  0  0  0  0  0
    6.1658   -1.5817   -3.5820 N   0  0  0  1  0  0  0  0  0  0  0  0
    3.2400    3.8346    0.5711 H   0  0  0  1  0  0  0  0  0  0  0  0
    1.6019    4.5111    3.1351 H   0  0  0  1  0  0  0  0  0  0  0  0
   -1.2989    0.7509    3.7523 H   0  0  0  1  0  0  0  0  0  0  0  0
   -2.2285   -1.1948    4.8642 H   0  0  0  1  0  0  0  0  0  0  0  0
    1.6352   -2.3993    5.9825 H   0  0  0  1  0  0  0  0  0  0  0  0
    2.5633   -0.4568    4.8724 H   0  0  0  1  0  0  0  0  0  0  0  0
   -0.7985   -4.6761    7.2350 H   0  0  0  1  0  0  0  0  0  0  0  0
    0.1841   -3.3241    7.7442 H   0  0  0  1  0  0  0  0  0  0  0  0
    0.6173   -4.2297    6.3137 H   0  0  0  1  0  0  0  0  0  0  0  0
    3.0966   -1.3487    0.1876 H   0  0  0  1  0  0  0  0  0  0  0  0
    5.1230    0.4374   -0.9000 H   0  0  0  1  0  0  0  0  0  0  0  0
    4.2928    0.5748   -3.0312 H   0  0  0  1  0  0  0  0  0  0  0  0
    2.7504    0.2294   -2.2856 H   0  0  0  1  0  0  0  0  0  0  0  0
    3.6262   -1.3527   -4.2334 H   0  0  0  1  0  0  0  0  0  0  0  0
    2.8728   -2.0785   -2.8335 H   0  0  0  1  0  0  0  0  0  0  0  0
    5.0371   -3.1903   -2.8717 H   0  0  0  1  0  0  0  0  0  0  0  0
    6.2437   -1.5844   -1.0480 H   0  0  0  1  0  0  0  0  0  0  0  0
    4.7851   -2.4651   -0.6593 H   0  0  0  1  0  0  0  0  0  0  0  0
    6.1328   -1.9718   -4.4804 H   0  0  0  1  0  0  0  0  0  0  0  0
    7.0227   -1.8035   -3.1612 H   0  0  0  1  0  0  0  0  0  0  0  0
  1  2  4  0  0  0  0
  1  6  4  0  0  0  0
  1 18  1  0  0  0  0
  2  3  4  0  0  0  0
  3  4  4  0  0  0  0
  3 25  1  0  0  0  0
  4  5  4  0  0  0  0
  4  7  4  0  0  0  0
  5  6  4  0  0  0  0
  5  9  4  0  0  0  0
  7  8  4  0  0  0  0
  7 26  1  0  0  0  0
  8  9  4  0  0  0  0
  9 10  1  0  0  0  0
 10 11  4  0  0  0  0
 10 15  4  0  0  0  0
 11 12  4  0  0  0  0
 11 27  1  0  0  0  0
 12 13  4  0  0  0  0
 12 28  1  0  0  0  0
 13 14  4  0  0  0  0
 13 16  1  0  0  0  0
 14 15  4  0  0  0  0
 14 29  1  0  0  0  0
 15 30  1  0  0  0  0
 16 17  1  0  0  0  0
 17 31  1  0  0  0  0
 17 32  1  0  0  0  0
 17 33  1  0  0  0  0
 18 19  1  0  0  0  0
 18 34  1  0  0  0  0
 19 20  1  0  0  0  0
 19 23  1  0  0  0  0
 19 35  1  0  0  0  0
 20 21  1  0  0  0  0
 20 36  1  0  0  0  0
 20 37  1  0  0  0  0
 21 22  1  0  0  0  0
 21 38  1  0  0  0  0
 21 39  1  0  0  0  0
 22 23  1  0  0  0  0
 22 24  1  0  0  0  0
 22 40  1  0  0  0  0
 23 41  1  0  0  0  0
 23 42  1  0  0  0  0
 24 43  1  0  0  0  0
 24 44  1  0  0  0  0
M  END
> <ConfClashScore>
0 

> <ConfOneFourInteractionScore>
-0.984337 

> <ConfScore>
-0.0566948 

> <ConfScorePBest>
0.00388645 

> <ConfTolerance>
0.323044 

$$$$
c22.sdf
 OpenBabel04162418103D

 44 47  0  0  0  0  0  0  0  0999 V2000
    2.9090   -0.6174    1.0060 C   0  0  0  1  0  0  0  0  0  0  0  0
    3.0628    0.7098    1.0500 N   0  0  0  1  0  0  0  0  0  0  0  0
    2.4412    1.3874    2.0358 C   0  0  0  1  0  0  0  0  0  0  0  0
    1.6603    0.6579    2.9791 C   0  0  0  1  0  0  0  0  0  0  0  0
    1.6148   -0.7171    2.7846 C   0  0  0  1  0  0  0  0  0  0  0  0
    2.2218   -1.4234    1.8013 N   0  0  0  1  0  0  0  0  0  0  0  0
    0.8747    0.8694    4.1302 C   0  0  0  1  0  0  0  0  0  0  0  0
    0.3850   -0.2547    4.6001 N   0  0  0  1  0  0  0  0  0  0  0  0
    0.8439   -1.2366    3.7665 N   0  0  0  1  0  0  0  0  0  0  0  0
    0.5491   -2.6222    3.9129 C   0  0  0  1  0  0  0  0  0  0  0  0
   -0.2787   -3.2523    3.0030 C   0  0  0  1  0  0  0  0  0  0  0  0
   -0.5614   -4.6022    3.1425 C   0  0  0  1  0  0  0  0  0  0  0  0
   -0.0198   -5.3167    4.1944 C   0  0  0  1  0  0  0  0  0  0  0  0
    0.8105   -4.6845    5.1069 C   0  0  0  1  0  0  0  0  0  0  0  0
    1.0924   -3.3386    4.9679 C   0  0  0  1  0  0  0  0  0  0  0  0
   -0.2589   -6.6281    4.3892 O   0  0  0  1  0  0  0  0  0  0  0  0
   -0.9915   -7.2813    3.3265 C   0  0  0  1  0  0  0  0  0  0  0  0
    3.5619   -1.2388   -0.0180 N   0  0  0  1  0  0  0  0  0  0  0  0
    4.2907   -0.4808   -1.0393 C   0  0  0  1  0  0  0  0  0  0  0  0
    3.4032   -0.2628   -2.2665 C   0  0  0  1  0  0  0  0  0  0  0  0
    4.0219   -1.0910   -3.3845 C   0  0  0  1  0  0  0  0  0  0  0  0
    4.9254   -2.1164   -2.7133 C   0  0  0  1  0  0  0  0  0  0  0  0
    5.5376   -1.2897   -1.5214 C   0  0  0  1  0  0  0  0  0  0  0  0
    5.9918   -2.5928   -3.6468 N   0  0  0  1  0  0  0  0  0  0  0  0
    2.5295    2.4212    2.1065 H   0  0  0  1  0  0  0  0  0  0  0  0
    0.7037    1.8027    4.5558 H   0  0  0  1  0  0  0  0  0  0  0  0
   -0.6895   -2.7138    2.2138 H   0  0  0  1  0  0  0  0  0  0  0  0
   -1.1811   -5.0773    2.4556 H   0  0  0  1  0  0  0  0  0  0  0  0
    1.2213   -5.2230    5.8961 H   0  0  0  1  0  0  0  0  0  0  0  0
    1.7121   -2.8634    5.6548 H   0  0  0  1  0  0  0  0  0  0  0  0
   -0.6786   -8.3017    3.2517 H   0  0  0  1  0  0  0  0  0  0  0  0
   -0.7986   -6.7806    2.4007 H   0  0  0  1  0  0  0  0  0  0  0  0
   -2.0391   -7.2445    3.5409 H   0  0  0  1  0  0  0  0  0  0  0  0
    3.5431   -2.2171   -0.0723 H   0  0  0  1  0  0  0  0  0  0  0  0
    4.5969    0.4611   -0.6344 H   0  0  0  1  0  0  0  0  0  0  0  0
    2.4055   -0.5941   -2.0672 H   0  0  0  1  0  0  0  0  0  0  0  0
    3.3887    0.7727   -2.5355 H   0  0  0  1  0  0  0  0  0  0  0  0
    3.2563   -1.5843   -3.9461 H   0  0  0  1  0  0  0  0  0  0  0  0
    4.5945   -0.4638   -4.0354 H   0  0  0  1  0  0  0  0  0  0  0  0
    4.3632   -2.9539   -2.3560 H   0  0  0  1  0  0  0  0  0  0  0  0
    6.3201   -0.6409   -1.8558 H   0  0  0  1  0  0  0  0  0  0  0  0
    5.9105   -1.9311   -0.7505 H   0  0  0  1  0  0  0  0  0  0  0  0
    6.5717   -3.2319   -3.1823 H   0  0  0  1  0  0  0  0  0  0  0  0
    6.5253   -1.8287   -3.9502 H   0  0  0  1  0  0  0  0  0  0  0  0
  1  2  4  0  0  0  0
  1  6  4  0  0  0  0
  1 18  1  0  0  0  0
  2  3  4  0  0  0  0
  3  4  4  0  0  0  0
  3 25  1  0  0  0  0
  4  5  4  0  0  0  0
  4  7  4  0  0  0  0
  5  6  4  0  0  0  0
  5  9  4  0  0  0  0
  7  8  4  0  0  0  0
  7 26  1  0  0  0  0
  8  9  4  0  0  0  0
  9 10  1  0  0  0  0
 10 11  4  0  0  0  0
 10 15  4  0  0  0  0
 11 12  4  0  0  0  0
 11 27  1  0  0  0  0
 12 13  4  0  0  0  0
 12 28  1  0  0  0  0
 13 14  4  0  0  0  0
 13 16  1  0  0  0  0
 14 15  4  0  0  0  0
 14 29  1  0  0  0  0
 15 30  1  0  0  0  0
 16 17  1  0  0  0  0
 17 31  1  0  0  0  0
 17 32  1  0  0  0  0
 17 33  1  0  0  0  0
 18 19  1  0  0  0  0
 18 34  1  0  0  0  0
 19 20  1  0  0  0  0
 19 23  1  0  0  0  0
 19 35  1  0  0  0  0
 20 21  1  0  0  0  0
 20 36  1  0  0  0  0
 20 37  1  0  0  0  0
 21 22  1  0  0  0  0
 21 38  1  0  0  0  0
 21 39  1  0  0  0  0
 22 23  1  0  0  0  0
 22 24  1  0  0  0  0
 22 40  1  0  0  0  0
 23 41  1  0  0  0  0
 23 42  1  0  0  0  0
 24 43  1  0  0  0  0
 24 44  1  0  0  0  0
M  END
> <ConfClashScore>
0 

> <ConfOneFourInteractionScore>
-0.984337 

> <ConfScore>
-0.0566785 

> <ConfScorePBest>
0.00387312 

> <ConfTolerance>
0.333826 

$$$$
c22.sdf
 OpenBabel04162418103D

 44 47  0  0  0  0  0  0  0  0999 V2000
    3.4916   -0.4897    1.2783 C   0  0  0  1  0  0  0  0  0  0  0  0
    2.8472   -1.2512    2.1681 N   0  0  0  1  0  0  0  0  0  0  0  0
    2.6176   -0.7378    3.3933 C   0  0  0  1  0  0  0  0  0  0  0  0
    3.0661    0.5856    3.6745 C   0  0  0  1  0  0  0  0  0  0  0  0
    3.7139    1.2340    2.6302 C   0  0  0  1  0  0  0  0  0  0  0  0
    3.9649    0.7420    1.3936 N   0  0  0  1  0  0  0  0  0  0  0  0
    3.0644    1.5316    4.7194 C   0  0  0  1  0  0  0  0  0  0  0  0
    3.6552    2.6499    4.3664 N   0  0  0  1  0  0  0  0  0  0  0  0
    4.0570    2.4649    3.0725 N   0  0  0  1  0  0  0  0  0  0  0  0
    4.7405    3.4324    2.2996 C   0  0  0  1  0  0  0  0  0  0  0  0
    4.3005    3.7351    1.0248 C   0  0  0  1  0  0  0  0  0  0  0  0
    4.9672    4.6871    0.2695 C   0  0  0  1  0  0  0  0  0  0  0  0
    6.0751    5.3298    0.7889 C   0  0  0  1  0  0  0  0  0  0  0  0
    6.5163    5.0261    2.0674 C   0  0  0  1  0  0  0  0  0  0  0  0
    5.8516    4.0769    2.8207 C   0  0  0  1  0  0  0  0  0  0  0  0
    6.6690    6.3222    0.0843 O   0  0  0  1  0  0  0  0  0  0  0  0
    6.0079    6.7641   -1.1117 C   0  0  0  1  0  0  0  0  0  0  0  0
    3.6914   -1.0661    0.0738 N   0  0  0  1  0  0  0  0  0  0  0  0
    4.3593   -0.4015   -1.0499 C   0  0  0  1  0  0  0  0  0  0  0  0
    3.3852   -0.2724   -2.2547 C   0  0  0  1  0  0  0  0  0  0  0  0
    3.9388   -1.1783   -3.3687 C   0  0  0  1  0  0  0  0  0  0  0  0
    4.9293   -2.1393   -2.6833 C   0  0  0  1  0  0  0  0  0  0  0  0
    5.5660   -1.2649   -1.5504 C   0  0  0  1  0  0  0  0  0  0  0  0
    5.9764   -2.6085   -3.6503 N   0  0  0  1  0  0  0  0  0  0  0  0
    2.1233   -1.2960    4.1184 H   0  0  0  1  0  0  0  0  0  0  0  0
    2.6458    1.3642    5.6566 H   0  0  0  1  0  0  0  0  0  0  0  0
    3.4692    3.2487    0.6324 H   0  0  0  1  0  0  0  0  0  0  0  0
    4.6337    4.9178   -0.6882 H   0  0  0  1  0  0  0  0  0  0  0  0
    7.3476    5.5126    2.4599 H   0  0  0  1  0  0  0  0  0  0  0  0
    6.1851    3.8461    3.7784 H   0  0  0  1  0  0  0  0  0  0  0  0
    6.5694    7.5583   -1.5575 H   0  0  0  1  0  0  0  0  0  0  0  0
    5.0267    7.1144   -0.8679 H   0  0  0  1  0  0  0  0  0  0  0  0
    5.9351    5.9487   -1.8007 H   0  0  0  1  0  0  0  0  0  0  0  0
    3.3710   -1.9830   -0.0573 H   0  0  0  1  0  0  0  0  0  0  0  0
    4.6983    0.5657   -0.7425 H   0  0  0  1  0  0  0  0  0  0  0  0
    2.4043   -0.5930   -1.9720 H   0  0  0  1  0  0  0  0  0  0  0  0
    3.3462    0.7429   -2.5903 H   0  0  0  1  0  0  0  0  0  0  0  0
    4.4420   -0.5918   -4.1087 H   0  0  0  1  0  0  0  0  0  0  0  0
    3.1449   -1.7289   -3.8285 H   0  0  0  1  0  0  0  0  0  0  0  0
    4.4186   -2.9847   -2.2719 H   0  0  0  1  0  0  0  0  0  0  0  0
    5.9526   -1.8779   -0.7632 H   0  0  0  1  0  0  0  0  0  0  0  0
    6.3478   -0.6450   -1.9370 H   0  0  0  1  0  0  0  0  0  0  0  0
    6.6142   -3.1894   -3.1854 H   0  0  0  1  0  0  0  0  0  0  0  0
    6.4497   -1.8341   -4.0201 H   0  0  0  1  0  0  0  0  0  0  0  0
  1  2  4  0  0  0  0
  1  6  4  0  0  0  0
  1 18  1  0  0  0  0
  2  3  4  0  0  0  0
  3  4  4  0  0  0  0
  3 25  1  0  0  0  0
  4  5  4  0  0  0  0
  4  7  4  0  0  0  0
  5  6  4  0  0  0  0
  5  9  4  0  0  0  0
  7  8  4  0  0  0  0
  7 26  1  0  0  0  0
  8  9  4  0  0  0  0
  9 10  1  0  0  0  0
 10 11  4  0  0  0  0
 10 15  4  0  0  0  0
 11 12  4  0  0  0  0
 11 27  1  0  0  0  0
 12 13  4  0  0  0  0
 12 28  1  0  0  0  0
 13 14  4  0  0  0  0
 13 16  1  0  0  0  0
 14 15  4  0  0  0  0
 14 29  1  0  0  0  0
 15 30  1  0  0  0  0
 16 17  1  0  0  0  0
 17 31  1  0  0  0  0
 17 32  1  0  0  0  0
 17 33  1  0  0  0  0
 18 19  1  0  0  0  0
 18 34  1  0  0  0  0
 19 20  1  0  0  0  0
 19 23  1  0  0  0  0
 19 35  1  0  0  0  0
 20 21  1  0  0  0  0
 20 36  1  0  0  0  0
 20 37  1  0  0  0  0
 21 22  1  0  0  0  0
 21 38  1  0  0  0  0
 21 39  1  0  0  0  0
 22 23  1  0  0  0  0
 22 24  1  0  0  0  0
 22 40  1  0  0  0  0
 23 41  1  0  0  0  0
 23 42  1  0  0  0  0
 24 43  1  0  0  0  0
 24 44  1  0  0  0  0
M  END
> <ConfClashScore>
0 

> <ConfOneFourInteractionScore>
-0.984337 

> <ConfScore>
-0.0563918 

> <ConfScorePBest>
0.0038598 

> <ConfTolerance>
0.295191 

$$$$
c22.sdf
 OpenBabel04162418103D

 44 47  0  0  0  0  0  0  0  0999 V2000
    3.6268   -1.0749    1.3254 C   0  0  0  1  0  0  0  0  0  0  0  0
    4.6586   -0.2974    1.6690 N   0  0  0  1  0  0  0  0  0  0  0  0
    4.8889   -0.0935    2.9815 C   0  0  0  1  0  0  0  0  0  0  0  0
    4.0288   -0.7182    3.9312 C   0  0  0  1  0  0  0  0  0  0  0  0
    3.0096   -1.4965    3.3965 C   0  0  0  1  0  0  0  0  0  0  0  0
    2.7498   -1.7135    2.0851 N   0  0  0  1  0  0  0  0  0  0  0  0
    3.8559   -0.8343    5.3253 C   0  0  0  1  0  0  0  0  0  0  0  0
    2.8324   -1.5989    5.6282 N   0  0  0  1  0  0  0  0  0  0  0  0
    2.3089   -2.0088    4.4333 N   0  0  0  1  0  0  0  0  0  0  0  0
    1.1757   -2.8621    4.2987 C   0  0  0  1  0  0  0  0  0  0  0  0
   -0.0873   -2.3185    4.1600 C   0  0  0  1  0  0  0  0  0  0  0  0
   -1.1976   -3.1473    4.1171 C   0  0  0  1  0  0  0  0  0  0  0  0
   -1.0421   -4.5169    4.2183 C   0  0  0  1  0  0  0  0  0  0  0  0
    0.2249   -5.0621    4.3573 C   0  0  0  1  0  0  0  0  0  0  0  0
    1.3320   -4.2357    4.4002 C   0  0  0  1  0  0  0  0  0  0  0  0
   -2.0485   -5.4227    4.1943 O   0  0  0  1  0  0  0  0  0  0  0  0
   -3.3868   -4.9138    4.0824 C   0  0  0  1  0  0  0  0  0  0  0  0
    3.4495   -1.2355   -0.0176 N   0  0  0  1  0  0  0  0  0  0  0  0
    4.2571   -0.5001   -0.9942 C   0  0  0  1  0  0  0  0  0  0  0  0
    3.4610   -0.2700   -2.2841 C   0  0  0  1  0  0  0  0  0  0  0  0
    4.1646   -1.0924   -3.3753 C   0  0  0  1  0  0  0  0  0  0  0  0
    4.9940   -2.1349   -2.6207 C   0  0  0  1  0  0  0  0  0  0  0  0
    5.4706   -1.3225   -1.4097 C   0  0  0  1  0  0  0  0  0  0  0  0
    6.1360   -2.6130   -3.4363 N   0  0  0  1  0  0  0  0  0  0  0  0
    5.6779    0.5072    3.2948 H   0  0  0  1  0  0  0  0  0  0  0  0
    4.4654   -0.3704    6.0288 H   0  0  0  1  0  0  0  0  0  0  0  0
   -0.2048   -1.2876    4.0880 H   0  0  0  1  0  0  0  0  0  0  0  0
   -2.1477   -2.7385    4.0088 H   0  0  0  1  0  0  0  0  0  0  0  0
    0.3424   -6.0929    4.4294 H   0  0  0  1  0  0  0  0  0  0  0  0
    2.2821   -4.6445    4.5085 H   0  0  0  1  0  0  0  0  0  0  0  0
   -3.6100   -4.3057    4.9340 H   0  0  0  1  0  0  0  0  0  0  0  0
   -4.0762   -5.7308    4.0373 H   0  0  0  1  0  0  0  0  0  0  0  0
   -3.4712   -4.3256    3.1925 H   0  0  0  1  0  0  0  0  0  0  0  0
    2.7642   -1.8588   -0.3375 H   0  0  0  1  0  0  0  0  0  0  0  0
    4.5646    0.4340   -0.5725 H   0  0  0  1  0  0  0  0  0  0  0  0
    2.4518   -0.6036   -2.1613 H   0  0  0  1  0  0  0  0  0  0  0  0
    3.4650    0.7684   -2.5420 H   0  0  0  1  0  0  0  0  0  0  0  0
    3.4454   -1.5708   -4.0067 H   0  0  0  1  0  0  0  0  0  0  0  0
    4.7986   -0.4656   -3.9670 H   0  0  0  1  0  0  0  0  0  0  0  0
    4.3950   -2.9693   -2.3210 H   0  0  0  1  0  0  0  0  0  0  0  0
    6.2847   -0.6833   -1.6809 H   0  0  0  1  0  0  0  0  0  0  0  0
    5.7757   -1.9721   -0.6161 H   0  0  0  1  0  0  0  0  0  0  0  0
    6.7479   -1.8678   -3.6110 H   0  0  0  1  0  0  0  0  0  0  0  0
    5.8034   -2.9686   -4.2868 H   0  0  0  1  0  0  0  0  0  0  0  0
  1  2  4  0  0  0  0
  1  6  4  0  0  0  0
  1 18  1  0  0  0  0
  2  3  4  0  0  0  0
  3  4  4  0  0  0  0
  3 25  1  0  0  0  0
  4  5  4  0  0  0  0
  4  7  4  0  0  0  0
  5  6  4  0  0  0  0
  5  9  4  0  0  0  0
  7  8  4  0  0  0  0
  7 26  1  0  0  0  0
  8  9  4  0  0  0  0
  9 10  1  0  0  0  0
 10 11  4  0  0  0  0
 10 15  4  0  0  0  0
 11 12  4  0  0  0  0
 11 27  1  0  0  0  0
 12 13  4  0  0  0  0
 12 28  1  0  0  0  0
 13 14  4  0  0  0  0
 13 16  1  0  0  0  0
 14 15  4  0  0  0  0
 14 29  1  0  0  0  0
 15 30  1  0  0  0  0
 16 17  1  0  0  0  0
 17 31  1  0  0  0  0
 17 32  1  0  0  0  0
 17 33  1  0  0  0  0
 18 19  1  0  0  0  0
 18 34  1  0  0  0  0
 19 20  1  0  0  0  0
 19 23  1  0  0  0  0
 19 35  1  0  0  0  0
 20 21  1  0  0  0  0
 20 36  1  0  0  0  0
 20 37  1  0  0  0  0
 21 22  1  0  0  0  0
 21 38  1  0  0  0  0
 21 39  1  0  0  0  0
 22 23  1  0  0  0  0
 22 24  1  0  0  0  0
 22 40  1  0  0  0  0
 23 41  1  0  0  0  0
 23 42  1  0  0  0  0
 24 43  1  0  0  0  0
 24 44  1  0  0  0  0
M  END
> <ConfClashScore>
0 

> <ConfOneFourInteractionScore>
-0.984337 

> <ConfScore>
-0.0552243 

> <ConfScorePBest>
0.00384647 

> <ConfTolerance>
0.339162 

$$$$
c22.sdf
 OpenBabel04162418103D

 44 47  0  0  0  0  0  0  0  0999 V2000
    4.8115    1.3118    0.6102 C   0  0  0  1  0  0  0  0  0  0  0  0
    4.2542    1.6809    1.7679 N   0  0  0  1  0  0  0  0  0  0  0  0
    4.8015    2.7183    2.4324 C   0  0  0  1  0  0  0  0  0  0  0  0
    5.9370    3.3689    1.8674 C   0  0  0  1  0  0  0  0  0  0  0  0
    6.3806    2.8559    0.6547 C   0  0  0  1  0  0  0  0  0  0  0  0
    5.8564    1.8126   -0.0314 N   0  0  0  1  0  0  0  0  0  0  0  0
    6.8163    4.4385    2.1315 C   0  0  0  1  0  0  0  0  0  0  0  0
    7.7177    4.5740    1.1865 N   0  0  0  1  0  0  0  0  0  0  0  0
    7.4472    3.5938    0.2722 N   0  0  0  1  0  0  0  0  0  0  0  0
    8.1850    3.3800   -0.9155 C   0  0  0  1  0  0  0  0  0  0  0  0
    9.5636    3.2950   -0.8667 C   0  0  0  1  0  0  0  0  0  0  0  0
   10.2862    3.0802   -2.0299 C   0  0  0  1  0  0  0  0  0  0  0  0
    9.6286    2.9564   -3.2393 C   0  0  0  1  0  0  0  0  0  0  0  0
    8.2459    3.0417   -3.2881 C   0  0  0  1  0  0  0  0  0  0  0  0
    7.5252    3.2559   -2.1283 C   0  0  0  1  0  0  0  0  0  0  0  0
   10.4383    2.7547   -4.3059 O   0  0  0  1  0  0  0  0  0  0  0  0
    9.8383    2.8289   -5.6086 C   0  0  0  1  0  0  0  0  0  0  0  0
    4.2129    0.2591   -0.0037 N   0  0  0  1  0  0  0  0  0  0  0  0
    4.6725   -0.2370   -1.3018 C   0  0  0  1  0  0  0  0  0  0  0  0
    3.5057   -0.3155   -2.3052 C   0  0  0  1  0  0  0  0  0  0  0  0
    3.8866   -1.4117   -3.3158 C   0  0  0  1  0  0  0  0  0  0  0  0
    5.0184   -2.2505   -2.6579 C   0  0  0  1  0  0  0  0  0  0  0  0
    5.1633   -1.7204   -1.1916 C   0  0  0  1  0  0  0  0  0  0  0  0
    6.2875   -2.0669   -3.3967 N   0  0  0  1  0  0  0  0  0  0  0  0
    4.4035    3.0373    3.3387 H   0  0  0  1  0  0  0  0  0  0  0  0
    6.7580    5.0468    2.9730 H   0  0  0  1  0  0  0  0  0  0  0  0
   10.0588    3.3922    0.0427 H   0  0  0  1  0  0  0  0  0  0  0  0
   11.3233    3.0122   -1.9927 H   0  0  0  1  0  0  0  0  0  0  0  0
    7.7507    2.9446   -4.1974 H   0  0  0  1  0  0  0  0  0  0  0  0
    6.4881    3.3239   -2.1655 H   0  0  0  1  0  0  0  0  0  0  0  0
    9.3668    3.7816   -5.7309 H   0  0  0  1  0  0  0  0  0  0  0  0
    9.1073    2.0540   -5.7089 H   0  0  0  1  0  0  0  0  0  0  0  0
   10.5937    2.7064   -6.3564 H   0  0  0  1  0  0  0  0  0  0  0  0
    3.4536   -0.1798    0.4335 H   0  0  0  1  0  0  0  0  0  0  0  0
    5.4517    0.3967   -1.6710 H   0  0  0  1  0  0  0  0  0  0  0  0
    3.3812    0.6227   -2.8043 H   0  0  0  1  0  0  0  0  0  0  0  0
    2.5985   -0.5747   -1.8004 H   0  0  0  1  0  0  0  0  0  0  0  0
    4.2363   -0.9696   -4.2252 H   0  0  0  1  0  0  0  0  0  0  0  0
    3.0402   -2.0327   -3.5229 H   0  0  0  1  0  0  0  0  0  0  0  0
    4.7552   -3.2877   -2.6523 H   0  0  0  1  0  0  0  0  0  0  0  0
    6.1815   -1.7650   -0.8658 H   0  0  0  1  0  0  0  0  0  0  0  0
    4.5480   -2.2797   -0.5182 H   0  0  0  1  0  0  0  0  0  0  0  0
    6.5712   -1.1311   -3.3321 H   0  0  0  1  0  0  0  0  0  0  0  0
    6.1542   -2.3034   -4.3383 H   0  0  0  1  0  0  0  0  0  0  0  0
  1  2  4  0  0  0  0
  1  6  4  0  0  0  0
  1 18  1  0  0  0  0
  2  3  4  0  0  0  0
  3  4  4  0  0  0  0
  3 25  1  0  0  0  0
  4  5  4  0  0  0  0
  4  7  4  0  0  0  0
  5  6  4  0  0  0  0
  5  9  4  0  0  0  0
  7  8  4  0  0  0  0
  7 26  1  0  0  0  0
  8  9  4  0  0  0  0
  9 10  1  0  0  0  0
 10 11  4  0  0  0  0
 10 15  4  0  0  0  0
 11 12  4  0  0  0  0
 11 27  1  0  0  0  0
 12 13  4  0  0  0  0
 12 28  1  0  0  0  0
 13 14  4  0  0  0  0
 13 16  1  0  0  0  0
 14 15  4  0  0  0  0
 14 29  1  0  0  0  0
 15 30  1  0  0  0  0
 16 17  1  0  0  0  0
 17 31  1  0  0  0  0
 17 32  1  0  0  0  0
 17 33  1  0  0  0  0
 18 19  1  0  0  0  0
 18 34  1  0  0  0  0
 19 20  1  0  0  0  0
 19 23  1  0  0  0  0
 19 35  1  0  0  0  0
 20 21  1  0  0  0  0
 20 36  1  0  0  0  0
 20 37  1  0  0  0  0
 21 22  1  0  0  0  0
 21 38  1  0  0  0  0
 21 39  1  0  0  0  0
 22 23  1  0  0  0  0
 22 24  1  0  0  0  0
 22 40  1  0  0  0  0
 23 41  1  0  0  0  0
 23 42  1  0  0  0  0
 24 43  1  0  0  0  0
 24 44  1  0  0  0  0
M  END
> <ConfClashScore>
0 

> <ConfOneFourInteractionScore>
-0.984337 

> <ConfScore>
-0.0533894 

> <ConfScorePBest>
0.00383314 

> <ConfTolerance>
0.280816 

$$$$
c22.sdf
 OpenBabel04162418103D

 44 47  0  0  0  0  0  0  0  0999 V2000
    2.9301   -0.8880    1.0383 C   0  0  0  1  0  0  0  0  0  0  0  0
    3.8229   -0.1205    1.6714 N   0  0  0  1  0  0  0  0  0  0  0  0
    3.5880    0.1926    2.9614 C   0  0  0  1  0  0  0  0  0  0  0  0
    2.4089   -0.3124    3.5831 C   0  0  0  1  0  0  0  0  0  0  0  0
    1.5952   -1.0985    2.7766 C   0  0  0  1  0  0  0  0  0  0  0  0
    1.8013   -1.4234    1.4781 N   0  0  0  1  0  0  0  0  0  0  0  0
    1.7478   -0.2960    4.8279 C   0  0  0  1  0  0  0  0  0  0  0  0
    0.6353   -0.9927    4.7990 N   0  0  0  1  0  0  0  0  0  0  0  0
    0.5415   -1.4895    3.5285 N   0  0  0  1  0  0  0  0  0  0  0  0
   -0.5235   -2.3091    3.0598 C   0  0  0  1  0  0  0  0  0  0  0  0
   -0.2507   -3.5415    2.4969 C   0  0  0  1  0  0  0  0  0  0  0  0
   -1.2884   -4.3420    2.0453 C   0  0  0  1  0  0  0  0  0  0  0  0
   -2.5954   -3.9056    2.1530 C   0  0  0  1  0  0  0  0  0  0  0  0
   -2.8688   -2.6695    2.7177 C   0  0  0  1  0  0  0  0  0  0  0  0
   -1.8343   -1.8712    3.1680 C   0  0  0  1  0  0  0  0  0  0  0  0
   -3.6087   -4.6855    1.7071 O   0  0  0  1  0  0  0  0  0  0  0  0
   -3.2751   -6.0173    1.2856 C   0  0  0  1  0  0  0  0  0  0  0  0
    3.2250   -1.1598   -0.2509 N   0  0  0  1  0  0  0  0  0  0  0  0
    4.2749   -0.4704   -1.0140 C   0  0  0  1  0  0  0  0  0  0  0  0
    3.7678   -0.0646   -2.4385 C   0  0  0  1  0  0  0  0  0  0  0  0
    3.8782   -1.3825   -3.2274 C   0  0  0  1  0  0  0  0  0  0  0  0
    5.0394   -2.2148   -2.5802 C   0  0  0  1  0  0  0  0  0  0  0  0
    5.4361   -1.4168   -1.3422 C   0  0  0  1  0  0  0  0  0  0  0  0
    6.1727   -2.3327   -3.5070 N   0  0  0  1  0  0  0  0  0  0  0  0
    4.2534    0.7902    3.4921 H   0  0  0  1  0  0  0  0  0  0  0  0
    2.0988    0.2071    5.6677 H   0  0  0  1  0  0  0  0  0  0  0  0
    0.7330   -3.8683    2.4121 H   0  0  0  1  0  0  0  0  0  0  0  0
   -1.0834   -5.2712    1.6253 H   0  0  0  1  0  0  0  0  0  0  0  0
   -3.8525   -2.3427    2.8025 H   0  0  0  1  0  0  0  0  0  0  0  0
   -2.0392   -0.9421    3.5879 H   0  0  0  1  0  0  0  0  0  0  0  0
   -4.1395   -6.4851    0.8627 H   0  0  0  1  0  0  0  0  0  0  0  0
   -2.9395   -6.5844    2.1286 H   0  0  0  1  0  0  0  0  0  0  0  0
   -2.4979   -5.9746    0.5514 H   0  0  0  1  0  0  0  0  0  0  0  0
    2.7084   -1.8581   -0.7047 H   0  0  0  1  0  0  0  0  0  0  0  0
    4.6135    0.3833   -0.4649 H   0  0  0  1  0  0  0  0  0  0  0  0
    4.3887    0.6942   -2.8670 H   0  0  0  1  0  0  0  0  0  0  0  0
    2.7554    0.2799   -2.4035 H   0  0  0  1  0  0  0  0  0  0  0  0
    4.1020   -1.1777   -4.2535 H   0  0  0  1  0  0  0  0  0  0  0  0
    2.9586   -1.9257   -3.1639 H   0  0  0  1  0  0  0  0  0  0  0  0
    4.6981   -3.1915   -2.3073 H   0  0  0  1  0  0  0  0  0  0  0  0
    6.3231   -0.8520   -1.5402 H   0  0  0  1  0  0  0  0  0  0  0  0
    5.6108   -2.0797   -0.5206 H   0  0  0  1  0  0  0  0  0  0  0  0
    6.5589   -1.4461   -3.6659 H   0  0  0  1  0  0  0  0  0  0  0  0
    5.8619   -2.7103   -4.3562 H   0  0  0  1  0  0  0  0  0  0  0  0
  1  2  4  0  0  0  0
  1  6  4  0  0  0  0
  1 18  1  0  0  0  0
  2  3  4  0  0  0  0
  3  4  4  0  0  0  0
  3 25  1  0  0  0  0
  4  5  4  0  0  0  0
  4  7  4  0  0  0  0
  5  6  4  0  0  0  0
  5  9  4  0  0  0  0
  7  8  4  0  0  0  0
  7 26  1  0  0  0  0
  8  9  4  0  0  0  0
  9 10  1  0  0  0  0
 10 11  4  0  0  0  0
 10 15  4  0  0  0  0
 11 12  4  0  0  0  0
 11 27  1  0  0  0  0
 12 13  4  0  0  0  0
 12 28  1  0  0  0  0
 13 14  4  0  0  0  0
 13 16  1  0  0  0  0
 14 15  4  0  0  0  0
 14 29  1  0  0  0  0
 15 30  1  0  0  0  0
 16 17  1  0  0  0  0
 17 31  1  0  0  0  0
 17 32  1  0  0  0  0
 17 33  1  0  0  0  0
 18 19  1  0  0  0  0
 18 34  1  0  0  0  0
 19 20  1  0  0  0  0
 19 23  1  0  0  0  0
 19 35  1  0  0  0  0
 20 21  1  0  0  0  0
 20 36  1  0  0  0  0
 20 37  1  0  0  0  0
 21 22  1  0  0  0  0
 21 38  1  0  0  0  0
 21 39  1  0  0  0  0
 22 23  1  0  0  0  0
 22 24  1  0  0  0  0
 22 40  1  0  0  0  0
 23 41  1  0  0  0  0
 23 42  1  0  0  0  0
 24 43  1  0  0  0  0
 24 44  1  0  0  0  0
M  END
> <ConfClashScore>
0 

> <ConfOneFourInteractionScore>
-0.984337 

> <ConfScore>
-0.0533894 

> <ConfScorePBest>
0.00381981 

> <ConfTolerance>
0.302413 

$$$$
c22.sdf
 OpenBabel04162418103D

 44 47  0  0  0  0  0  0  0  0999 V2000
    4.3623    0.2925    1.0855 C   0  0  0  1  0  0  0  0  0  0  0  0
    3.4824    0.5115    2.0678 N   0  0  0  1  0  0  0  0  0  0  0  0
    3.9550    0.9191    3.2627 C   0  0  0  1  0  0  0  0  0  0  0  0
    5.3606    1.1002    3.4158 C   0  0  0  1  0  0  0  0  0  0  0  0
    6.1264    0.8312    2.2880 C   0  0  0  1  0  0  0  0  0  0  0  0
    5.6812    0.4143    1.0789 N   0  0  0  1  0  0  0  0  0  0  0  0
    6.3028    1.5000    4.3849 C   0  0  0  1  0  0  0  0  0  0  0  0
    7.5281    1.4762    3.9133 N   0  0  0  1  0  0  0  0  0  0  0  0
    7.4180    1.0620    2.6148 N   0  0  0  1  0  0  0  0  0  0  0  0
    8.5100    0.8971    1.7310 C   0  0  0  1  0  0  0  0  0  0  0  0
    8.6829    1.7724    0.6755 C   0  0  0  1  0  0  0  0  0  0  0  0
    9.7560    1.6139   -0.1874 C   0  0  0  1  0  0  0  0  0  0  0  0
   10.6501    0.5776    0.0044 C   0  0  0  1  0  0  0  0  0  0  0  0
   10.4766   -0.3002    1.0632 C   0  0  0  1  0  0  0  0  0  0  0  0
    9.4066   -0.1424    1.9237 C   0  0  0  1  0  0  0  0  0  0  0  0
   11.7288    0.3206   -0.7730 O   0  0  0  1  0  0  0  0  0  0  0  0
   11.9950    1.2341   -1.8486 C   0  0  0  1  0  0  0  0  0  0  0  0
    3.8241   -0.1153   -0.0779 N   0  0  0  1  0  0  0  0  0  0  0  0
    4.5972   -0.3297   -1.3055 C   0  0  0  1  0  0  0  0  0  0  0  0
    3.6791   -0.2558   -2.5311 C   0  0  0  1  0  0  0  0  0  0  0  0
    3.6736   -1.6621   -3.1173 C   0  0  0  1  0  0  0  0  0  0  0  0
    5.0446   -2.2431   -2.7478 C   0  0  0  1  0  0  0  0  0  0  0  0
    5.2075   -1.7402   -1.3108 C   0  0  0  1  0  0  0  0  0  0  0  0
    6.1199   -1.7128   -3.6369 N   0  0  0  1  0  0  0  0  0  0  0  0
    3.3074    1.0977    4.0567 H   0  0  0  1  0  0  0  0  0  0  0  0
    6.0573    1.7801    5.3559 H   0  0  0  1  0  0  0  0  0  0  0  0
    8.0079    2.5499    0.5287 H   0  0  0  1  0  0  0  0  0  0  0  0
    9.8884    2.2750   -0.9793 H   0  0  0  1  0  0  0  0  0  0  0  0
   11.1516   -1.0777    1.2100 H   0  0  0  1  0  0  0  0  0  0  0  0
    9.2741   -0.8033    2.7156 H   0  0  0  1  0  0  0  0  0  0  0  0
   11.2134    1.1667   -2.5763 H   0  0  0  1  0  0  0  0  0  0  0  0
   12.9298    0.9842   -2.3054 H   0  0  0  1  0  0  0  0  0  0  0  0
   12.0402    2.2322   -1.4656 H   0  0  0  1  0  0  0  0  0  0  0  0
    2.8583   -0.2787   -0.1069 H   0  0  0  1  0  0  0  0  0  0  0  0
    5.3688    0.4083   -1.3752 H   0  0  0  1  0  0  0  0  0  0  0  0
    4.0614    0.4452   -3.2434 H   0  0  0  1  0  0  0  0  0  0  0  0
    2.6904    0.0328   -2.2413 H   0  0  0  1  0  0  0  0  0  0  0  0
    2.8877   -2.2471   -2.6871 H   0  0  0  1  0  0  0  0  0  0  0  0
    3.5526   -1.6275   -4.1798 H   0  0  0  1  0  0  0  0  0  0  0  0
    5.0410   -3.3122   -2.7902 H   0  0  0  1  0  0  0  0  0  0  0  0
    6.2425   -1.7020   -1.0419 H   0  0  0  1  0  0  0  0  0  0  0  0
    4.6846   -2.3777   -0.6289 H   0  0  0  1  0  0  0  0  0  0  0  0
    6.9946   -1.8793   -3.2276 H   0  0  0  1  0  0  0  0  0  0  0  0
    5.9955   -0.7486   -3.7604 H   0  0  0  1  0  0  0  0  0  0  0  0
  1  2  4  0  0  0  0
  1  6  4  0  0  0  0
  1 18  1  0  0  0  0
  2  3  4  0  0  0  0
  3  4  4  0  0  0  0
  3 25  1  0  0  0  0
  4  5  4  0  0  0  0
  4  7  4  0  0  0  0
  5  6  4  0  0  0  0
  5  9  4  0  0  0  0
  7  8  4  0  0  0  0
  7 26  1  0  0  0  0
  8  9  4  0  0  0  0
  9 10  1  0  0  0  0
 10 11  4  0  0  0  0
 10 15  4  0  0  0  0
 11 12  4  0  0  0  0
 11 27  1  0  0  0  0
 12 13  4  0  0  0  0
 12 28  1  0  0  0  0
 13 14  4  0  0  0  0
 13 16  1  0  0  0  0
 14 15  4  0  0  0  0
 14 29  1  0  0  0  0
 15 30  1  0  0  0  0
 16 17  1  0  0  0  0
 17 31  1  0  0  0  0
 17 32  1  0  0  0  0
 17 33  1  0  0  0  0
 18 19  1  0  0  0  0
 18 34  1  0  0  0  0
 19 20  1  0  0  0  0
 19 23  1  0  0  0  0
 19 35  1  0  0  0  0
 20 21  1  0  0  0  0
 20 36  1  0  0  0  0
 20 37  1  0  0  0  0
 21 22  1  0  0  0  0
 21 38  1  0  0  0  0
 21 39  1  0  0  0  0
 22 23  1  0  0  0  0
 22 24  1  0  0  0  0
 22 40  1  0  0  0  0
 23 41  1  0  0  0  0
 23 42  1  0  0  0  0
 24 43  1  0  0  0  0
 24 44  1  0  0  0  0
M  END
> <ConfClashScore>
0 

> <ConfOneFourInteractionScore>
-0.984337 

> <ConfScore>
-0.0533015 

> <ConfScorePBest>
0.00380648 

> <ConfTolerance>
0.291324 

$$$$
c22.sdf
 OpenBabel04162418103D

 44 47  0  0  0  0  0  0  0  0999 V2000
    4.0378   -0.6586    1.2797 C   0  0  0  1  0  0  0  0  0  0  0  0
    5.2846   -1.1293    1.3842 N   0  0  0  1  0  0  0  0  0  0  0  0
    5.7030   -1.5524    2.5938 C   0  0  0  1  0  0  0  0  0  0  0  0
    4.7979   -1.4820    3.6928 C   0  0  0  1  0  0  0  0  0  0  0  0
    3.5395   -0.9700    3.4017 C   0  0  0  1  0  0  0  0  0  0  0  0
    3.0941   -0.5313    2.2003 N   0  0  0  1  0  0  0  0  0  0  0  0
    4.7357   -1.7888    5.0672 C   0  0  0  1  0  0  0  0  0  0  0  0
    3.5641   -1.4927    5.5808 N   0  0  0  1  0  0  0  0  0  0  0  0
    2.8239   -0.9859    4.5489 N   0  0  0  1  0  0  0  0  0  0  0  0
    1.4769   -0.5343    4.6668 C   0  0  0  1  0  0  0  0  0  0  0  0
    0.5343   -0.9172    3.7313 C   0  0  0  1  0  0  0  0  0  0  0  0
   -0.7533   -0.4082    3.7967 C   0  0  0  1  0  0  0  0  0  0  0  0
   -1.0932    0.4863    4.7940 C   0  0  0  1  0  0  0  0  0  0  0  0
   -0.1477    0.8703    5.7322 C   0  0  0  1  0  0  0  0  0  0  0  0
    1.1362    0.3628    5.6671 C   0  0  0  1  0  0  0  0  0  0  0  0
   -2.3590    0.9475    4.7986 O   0  0  0  1  0  0  0  0  0  0  0  0
   -2.7371    1.6860    5.9836 C   0  0  0  1  0  0  0  0  0  0  0  0
    3.6868   -0.2505    0.0470 N   0  0  0  1  0  0  0  0  0  0  0  0
    4.5569   -0.3541   -1.1255 C   0  0  0  1  0  0  0  0  0  0  0  0
    3.7419   -0.1129   -2.4437 C   0  0  0  1  0  0  0  0  0  0  0  0
    3.7093   -1.4483   -3.2099 C   0  0  0  1  0  0  0  0  0  0  0  0
    5.0381   -2.1405   -2.7556 C   0  0  0  1  0  0  0  0  0  0  0  0
    5.1023   -1.7713   -1.2685 C   0  0  0  1  0  0  0  0  0  0  0  0
    6.2136   -1.5973   -3.4998 N   0  0  0  1  0  0  0  0  0  0  0  0
    6.6663   -1.9226    2.7226 H   0  0  0  1  0  0  0  0  0  0  0  0
    5.5226   -2.2000    5.6088 H   0  0  0  1  0  0  0  0  0  0  0  0
    0.7911   -1.5872    2.9785 H   0  0  0  1  0  0  0  0  0  0  0  0
   -1.4638   -0.6994    3.0952 H   0  0  0  1  0  0  0  0  0  0  0  0
   -0.4045    1.5402    6.4850 H   0  0  0  1  0  0  0  0  0  0  0  0
    1.8467    0.6540    6.3686 H   0  0  0  1  0  0  0  0  0  0  0  0
   -2.5199    1.1016    6.8531 H   0  0  0  1  0  0  0  0  0  0  0  0
   -3.7850    1.9003    5.9508 H   0  0  0  1  0  0  0  0  0  0  0  0
   -2.1863    2.6025    6.0233 H   0  0  0  1  0  0  0  0  0  0  0  0
    2.7957    0.1393   -0.0733 H   0  0  0  1  0  0  0  0  0  0  0  0
    5.3563    0.3521   -1.0405 H   0  0  0  1  0  0  0  0  0  0  0  0
    2.7459    0.1982   -2.2070 H   0  0  0  1  0  0  0  0  0  0  0  0
    4.2193    0.6385   -3.0373 H   0  0  0  1  0  0  0  0  0  0  0  0
    2.8564   -2.0314   -2.9317 H   0  0  0  1  0  0  0  0  0  0  0  0
    3.7014   -1.2858   -4.2674 H   0  0  0  1  0  0  0  0  0  0  0  0
    4.9889   -3.2008   -2.8904 H   0  0  0  1  0  0  0  0  0  0  0  0
    4.5063   -2.4517   -0.6970 H   0  0  0  1  0  0  0  0  0  0  0  0
    6.1153   -1.8093   -0.9260 H   0  0  0  1  0  0  0  0  0  0  0  0
    6.0965   -1.7590   -4.4592 H   0  0  0  1  0  0  0  0  0  0  0  0
    7.0298   -2.0429   -3.1908 H   0  0  0  1  0  0  0  0  0  0  0  0
  1  2  4  0  0  0  0
  1  6  4  0  0  0  0
  1 18  1  0  0  0  0
  2  3  4  0  0  0  0
  3  4  4  0  0  0  0
  3 25  1  0  0  0  0
  4  5  4  0  0  0  0
  4  7  4  0  0  0  0
  5  6  4  0  0  0  0
  5  9  4  0  0  0  0
  7  8  4  0  0  0  0
  7 26  1  0  0  0  0
  8  9  4  0  0  0  0
  9 10  1  0  0  0  0
 10 11  4  0  0  0  0
 10 15  4  0  0  0  0
 11 12  4  0  0  0  0
 11 27  1  0  0  0  0
 12 13  4  0  0  0  0
 12 28  1  0  0  0  0
 13 14  4  0  0  0  0
 13 16  1  0  0  0  0
 14 15  4  0  0  0  0
 14 29  1  0  0  0  0
 15 30  1  0  0  0  0
 16 17  1  0  0  0  0
 17 31  1  0  0  0  0
 17 32  1  0  0  0  0
 17 33  1  0  0  0  0
 18 19  1  0  0  0  0
 18 34  1  0  0  0  0
 19 20  1  0  0  0  0
 19 23  1  0  0  0  0
 19 35  1  0  0  0  0
 20 21  1  0  0  0  0
 20 36  1  0  0  0  0
 20 37  1  0  0  0  0
 21 22  1  0  0  0  0
 21 38  1  0  0  0  0
 21 39  1  0  0  0  0
 22 23  1  0  0  0  0
 22 24  1  0  0  0  0
 22 40  1  0  0  0  0
 23 41  1  0  0  0  0
 23 42  1  0  0  0  0
 24 43  1  0  0  0  0
 24 44  1  0  0  0  0
M  END
> <ConfClashScore>
0 

> <ConfOneFourInteractionScore>
-0.985399 

> <ConfScore>
-0.0515754 

> <ConfScorePBest>
0.00379316 

> <ConfTolerance>
0.215901 

$$$$
c22.sdf
 OpenBabel04162418103D

 44 47  0  0  0  0  0  0  0  0999 V2000
    3.4361    0.6393    0.9570 C   0  0  0  1  0  0  0  0  0  0  0  0
    3.7152    1.8348    0.4280 N   0  0  0  1  0  0  0  0  0  0  0  0
    3.3732    2.9339    1.1298 C   0  0  0  1  0  0  0  0  0  0  0  0
    2.7399    2.7664    2.3957 C   0  0  0  1  0  0  0  0  0  0  0  0
    2.5311    1.4514    2.7927 C   0  0  0  1  0  0  0  0  0  0  0  0
    2.8567    0.3297    2.1072 N   0  0  0  1  0  0  0  0  0  0  0  0
    2.2299    3.5337    3.4625 C   0  0  0  1  0  0  0  0  0  0  0  0
    1.7473    2.7769    4.4209 N   0  0  0  1  0  0  0  0  0  0  0  0
    1.9343    1.4876    4.0055 N   0  0  0  1  0  0  0  0  0  0  0  0
    1.5515    0.3362    4.7511 C   0  0  0  1  0  0  0  0  0  0  0  0
    1.9930    0.1766    6.0510 C   0  0  0  1  0  0  0  0  0  0  0  0
    1.6160   -0.9415    6.7784 C   0  0  0  1  0  0  0  0  0  0  0  0
    0.8030   -1.8993    6.2021 C   0  0  0  1  0  0  0  0  0  0  0  0
    0.3604   -1.7390    4.8983 C   0  0  0  1  0  0  0  0  0  0  0  0
    0.7362   -0.6242    4.1729 C   0  0  0  1  0  0  0  0  0  0  0  0
    0.5061   -2.9478    7.0061 O   0  0  0  1  0  0  0  0  0  0  0  0
   -0.4889   -3.8719    6.5386 C   0  0  0  1  0  0  0  0  0  0  0  0
    3.8019   -0.4177    0.2008 N   0  0  0  1  0  0  0  0  0  0  0  0
    4.4141   -0.3010   -1.1169 C   0  0  0  1  0  0  0  0  0  0  0  0
    3.3642   -0.4649   -2.2088 C   0  0  0  1  0  0  0  0  0  0  0  0
    4.1178   -1.1089   -3.3797 C   0  0  0  1  0  0  0  0  0  0  0  0
    4.9940   -2.1299   -2.6490 C   0  0  0  1  0  0  0  0  0  0  0  0
    5.4181   -1.4371   -1.3443 C   0  0  0  1  0  0  0  0  0  0  0  0
    6.1829   -2.4730   -3.4653 N   0  0  0  1  0  0  0  0  0  0  0  0
    3.5675    3.8844    0.7552 H   0  0  0  1  0  0  0  0  0  0  0  0
    2.2352    4.5733    3.4875 H   0  0  0  1  0  0  0  0  0  0  0  0
    2.6079    0.8953    6.4833 H   0  0  0  1  0  0  0  0  0  0  0  0
    1.9448   -1.0597    7.7579 H   0  0  0  1  0  0  0  0  0  0  0  0
   -0.2546   -2.4577    4.4660 H   0  0  0  1  0  0  0  0  0  0  0  0
    0.4073   -0.5060    3.1934 H   0  0  0  1  0  0  0  0  0  0  0  0
   -0.8766   -4.4283    7.3663 H   0  0  0  1  0  0  0  0  0  0  0  0
   -0.0475   -4.5441    5.8328 H   0  0  0  1  0  0  0  0  0  0  0  0
   -1.2841   -3.3318    6.0685 H   0  0  0  1  0  0  0  0  0  0  0  0
    3.6466   -1.3166    0.5590 H   0  0  0  1  0  0  0  0  0  0  0  0
    4.8983    0.6493   -1.2028 H   0  0  0  1  0  0  0  0  0  0  0  0
    2.5700   -1.1003   -1.8763 H   0  0  0  1  0  0  0  0  0  0  0  0
    2.9651    0.4860   -2.4943 H   0  0  0  1  0  0  0  0  0  0  0  0
    4.7105   -0.3902   -3.9062 H   0  0  0  1  0  0  0  0  0  0  0  0
    3.4462   -1.5866   -4.0620 H   0  0  0  1  0  0  0  0  0  0  0  0
    4.4371   -3.0188   -2.4377 H   0  0  0  1  0  0  0  0  0  0  0  0
    5.3852   -2.1296   -0.5293 H   0  0  0  1  0  0  0  0  0  0  0  0
    6.4085   -1.0433   -1.4387 H   0  0  0  1  0  0  0  0  0  0  0  0
    6.6531   -1.6517   -3.7198 H   0  0  0  1  0  0  0  0  0  0  0  0
    5.8980   -2.9496   -4.2728 H   0  0  0  1  0  0  0  0  0  0  0  0
  1  2  4  0  0  0  0
  1  6  4  0  0  0  0
  1 18  1  0  0  0  0
  2  3  4  0  0  0  0
  3  4  4  0  0  0  0
  3 25  1  0  0  0  0
  4  5  4  0  0  0  0
  4  7  4  0  0  0  0
  5  6  4  0  0  0  0
  5  9  4  0  0  0  0
  7  8  4  0  0  0  0
  7 26  1  0  0  0  0
  8  9  4  0  0  0  0
  9 10  1  0  0  0  0
 10 11  4  0  0  0  0
 10 15  4  0  0  0  0
 11 12  4  0  0  0  0
 11 27  1  0  0  0  0
 12 13  4  0  0  0  0
 12 28  1  0  0  0  0
 13 14  4  0  0  0  0
 13 16  1  0  0  0  0
 14 15  4  0  0  0  0
 14 29  1  0  0  0  0
 15 30  1  0  0  0  0
 16 17  1  0  0  0  0
 17 31  1  0  0  0  0
 17 32  1  0  0  0  0
 17 33  1  0  0  0  0
 18 19  1  0  0  0  0
 18 34  1  0  0  0  0
 19 20  1  0  0  0  0
 19 23  1  0  0  0  0
 19 35  1  0  0  0  0
 20 21  1  0  0  0  0
 20 36  1  0  0  0  0
 20 37  1  0  0  0  0
 21 22  1  0  0  0  0
 21 38  1  0  0  0  0
 21 39  1  0  0  0  0
 22 23  1  0  0  0  0
 22 24  1  0  0  0  0
 22 40  1  0  0  0  0
 23 41  1  0  0  0  0
 23 42  1  0  0  0  0
 24 43  1  0  0  0  0
 24 44  1  0  0  0  0
M  END
> <ConfClashScore>
0 

> <ConfOneFourInteractionScore>
-0.984337 

> <ConfScore>
-0.0508541 

> <ConfScorePBest>
0.00377983 

> <ConfTolerance>
0.334226 

$$$$
c22.sdf
 OpenBabel04162418103D

 44 47  0  0  0  0  0  0  0  0999 V2000
    4.6464   -0.3612    1.2846 C   0  0  0  1  0  0  0  0  0  0  0  0
    3.9624   -0.0895    2.4006 N   0  0  0  1  0  0  0  0  0  0  0  0
    4.5898   -0.2487    3.5831 C   0  0  0  1  0  0  0  0  0  0  0  0
    5.9449   -0.6909    3.5834 C   0  0  0  1  0  0  0  0  0  0  0  0
    6.5010   -0.9212    2.3311 C   0  0  0  1  0  0  0  0  0  0  0  0
    5.8942   -0.7771    1.1289 N   0  0  0  1  0  0  0  0  0  0  0  0
    6.9900   -0.9816    4.4834 C   0  0  0  1  0  0  0  0  0  0  0  0
    8.0811   -1.3601    3.8585 N   0  0  0  1  0  0  0  0  0  0  0  0
    7.7775   -1.3223    2.5258 N   0  0  0  1  0  0  0  0  0  0  0  0
    8.6833   -1.6597    1.4838 C   0  0  0  1  0  0  0  0  0  0  0  0
    8.2150   -2.2509    0.3257 C   0  0  0  1  0  0  0  0  0  0  0  0
    9.0977   -2.5751   -0.6927 C   0  0  0  1  0  0  0  0  0  0  0  0
   10.4468   -2.3120   -0.5479 C   0  0  0  1  0  0  0  0  0  0  0  0
   10.9164   -1.7189    0.6137 C   0  0  0  1  0  0  0  0  0  0  0  0
   10.0363   -1.3957    1.6293 C   0  0  0  1  0  0  0  0  0  0  0  0
   11.2113   -2.6767   -1.6045 O   0  0  0  1  0  0  0  0  0  0  0  0
   12.6034   -2.3266   -1.5593 C   0  0  0  1  0  0  0  0  0  0  0  0
    3.9601   -0.1847    0.1412 N   0  0  0  1  0  0  0  0  0  0  0  0
    4.4946   -0.2942   -1.2231 C   0  0  0  1  0  0  0  0  0  0  0  0
    3.3542   -0.3539   -2.2430 C   0  0  0  1  0  0  0  0  0  0  0  0
    4.0414   -1.0521   -3.4236 C   0  0  0  1  0  0  0  0  0  0  0  0
    4.8878   -2.1467   -2.7858 C   0  0  0  1  0  0  0  0  0  0  0  0
    5.2609   -1.6150   -1.3971 C   0  0  0  1  0  0  0  0  0  0  0  0
    6.1132   -2.3957   -3.5948 N   0  0  0  1  0  0  0  0  0  0  0  0
    4.0953   -0.0529    4.4768 H   0  0  0  1  0  0  0  0  0  0  0  0
    6.9070   -0.9055    5.5173 H   0  0  0  1  0  0  0  0  0  0  0  0
    7.2004   -2.4526    0.2183 H   0  0  0  1  0  0  0  0  0  0  0  0
    8.7448   -3.0164   -1.5658 H   0  0  0  1  0  0  0  0  0  0  0  0
   11.9310   -1.5172    0.7211 H   0  0  0  1  0  0  0  0  0  0  0  0
   10.3892   -0.9544    2.5024 H   0  0  0  1  0  0  0  0  0  0  0  0
   13.1059   -2.9514   -0.8508 H   0  0  0  1  0  0  0  0  0  0  0  0
   12.7039   -1.3025   -1.2658 H   0  0  0  1  0  0  0  0  0  0  0  0
   13.0374   -2.4650   -2.5274 H   0  0  0  1  0  0  0  0  0  0  0  0
    3.0098    0.0390    0.2266 H   0  0  0  1  0  0  0  0  0  0  0  0
    5.1342    0.5397   -1.4242 H   0  0  0  1  0  0  0  0  0  0  0  0
    3.0165    0.6256   -2.5102 H   0  0  0  1  0  0  0  0  0  0  0  0
    2.5296   -0.9279   -1.8749 H   0  0  0  1  0  0  0  0  0  0  0  0
    3.3154   -1.4746   -4.0865 H   0  0  0  1  0  0  0  0  0  0  0  0
    4.6585   -0.3634   -3.9619 H   0  0  0  1  0  0  0  0  0  0  0  0
    4.3256   -3.0531   -2.7010 H   0  0  0  1  0  0  0  0  0  0  0  0
    4.9698   -2.3147   -0.6417 H   0  0  0  1  0  0  0  0  0  0  0  0
    6.3152   -1.4426   -1.3370 H   0  0  0  1  0  0  0  0  0  0  0  0
    6.6769   -3.0559   -3.1400 H   0  0  0  1  0  0  0  0  0  0  0  0
    6.6111   -1.5581   -3.6995 H   0  0  0  1  0  0  0  0  0  0  0  0
  1  2  4  0  0  0  0
  1  6  4  0  0  0  0
  1 18  1  0  0  0  0
  2  3  4  0  0  0  0
  3  4  4  0  0  0  0
  3 25  1  0  0  0  0
  4  5  4  0  0  0  0
  4  7  4  0  0  0  0
  5  6  4  0  0  0  0
  5  9  4  0  0  0  0
  7  8  4  0  0  0  0
  7 26  1  0  0  0  0
  8  9  4  0  0  0  0
  9 10  1  0  0  0  0
 10 11  4  0  0  0  0
 10 15  4  0  0  0  0
 11 12  4  0  0  0  0
 11 27  1  0  0  0  0
 12 13  4  0  0  0  0
 12 28  1  0  0  0  0
 13 14  4  0  0  0  0
 13 16  1  0  0  0  0
 14 15  4  0  0  0  0
 14 29  1  0  0  0  0
 15 30  1  0  0  0  0
 16 17  1  0  0  0  0
 17 31  1  0  0  0  0
 17 32  1  0  0  0  0
 17 33  1  0  0  0  0
 18 19  1  0  0  0  0
 18 34  1  0  0  0  0
 19 20  1  0  0  0  0
 19 23  1  0  0  0  0
 19 35  1  0  0  0  0
 20 21  1  0  0  0  0
 20 36  1  0  0  0  0
 20 37  1  0  0  0  0
 21 22  1  0  0  0  0
 21 38  1  0  0  0  0
 21 39  1  0  0  0  0
 22 23  1  0  0  0  0
 22 24  1  0  0  0  0
 22 40  1  0  0  0  0
 23 41  1  0  0  0  0
 23 42  1  0  0  0  0
 24 43  1  0  0  0  0
 24 44  1  0  0  0  0
M  END
> <ConfClashScore>
0 

> <ConfOneFourInteractionScore>
-0.985399 

> <ConfScore>
-0.0495702 

> <ConfScorePBest>
0.0037665 

> <ConfTolerance>
0.252893 

$$$$
c22.sdf
 OpenBabel04162418103D

 44 47  0  0  0  0  0  0  0  0999 V2000
    4.1637   -1.3366    1.2137 C   0  0  0  1  0  0  0  0  0  0  0  0
    3.3604   -1.8199    2.1666 N   0  0  0  1  0  0  0  0  0  0  0  0
    3.8977   -2.0847    3.3743 C   0  0  0  1  0  0  0  0  0  0  0  0
    5.2862   -1.8321    3.5746 C   0  0  0  1  0  0  0  0  0  0  0  0
    5.9681   -1.3245    2.4756 C   0  0  0  1  0  0  0  0  0  0  0  0
    5.4576   -1.0557    1.2503 N   0  0  0  1  0  0  0  0  0  0  0  0
    6.2687   -1.9149    4.5818 C   0  0  0  1  0  0  0  0  0  0  0  0
    7.4417   -1.5083    4.1540 N   0  0  0  1  0  0  0  0  0  0  0  0
    7.2547   -1.1427    2.8497 N   0  0  0  1  0  0  0  0  0  0  0  0
    8.2788   -0.6378    1.9986 C   0  0  0  1  0  0  0  0  0  0  0  0
    9.4005   -0.0474    2.5495 C   0  0  0  1  0  0  0  0  0  0  0  0
   10.4435    0.3569    1.7309 C   0  0  0  1  0  0  0  0  0  0  0  0
   10.3595    0.1746    0.3634 C   0  0  0  1  0  0  0  0  0  0  0  0
    9.2343   -0.4175   -0.1890 C   0  0  0  1  0  0  0  0  0  0  0  0
    8.1943   -0.8207    0.6272 C   0  0  0  1  0  0  0  0  0  0  0  0
   11.3309    0.6588   -0.4464 O   0  0  0  1  0  0  0  0  0  0  0  0
   12.5636    1.0575    0.1734 C   0  0  0  1  0  0  0  0  0  0  0  0
    3.5475   -1.0915   -0.0000 N   0  0  0  1  0  0  0  0  0  0  0  0
    4.3295   -0.4358   -1.0408 C   0  0  0  1  0  0  0  0  0  0  0  0
    3.4519   -0.1938   -2.3012 C   0  0  0  1  0  0  0  0  0  0  0  0
    4.0203   -1.0924   -3.4137 C   0  0  0  1  0  0  0  0  0  0  0  0
    4.8954   -2.1448   -2.7058 C   0  0  0  1  0  0  0  0  0  0  0  0
    5.5083   -1.3603   -1.4965 C   0  0  0  1  0  0  0  0  0  0  0  0
    5.9540   -2.6383   -3.6033 N   0  0  0  1  0  0  0  0  0  0  0  0
    3.3111   -2.4655    4.1441 H   0  0  0  1  0  0  0  0  0  0  0  0
    6.0867   -2.2566    5.5470 H   0  0  0  1  0  0  0  0  0  0  0  0
    9.4620    0.0934    3.5781 H   0  0  0  1  0  0  0  0  0  0  0  0
   11.2893    0.7974    2.1457 H   0  0  0  1  0  0  0  0  0  0  0  0
    9.1728   -0.5583   -1.2175 H   0  0  0  1  0  0  0  0  0  0  0  0
    7.3485   -1.2612    0.2124 H   0  0  0  1  0  0  0  0  0  0  0  0
   13.2955    1.2551   -0.5817 H   0  0  0  1  0  0  0  0  0  0  0  0
   12.9124    0.2720    0.8109 H   0  0  0  1  0  0  0  0  0  0  0  0
   12.4014    1.9422    0.7529 H   0  0  0  1  0  0  0  0  0  0  0  0
    2.6152   -1.3503   -0.1552 H   0  0  0  1  0  0  0  0  0  0  0  0
    4.7095    0.4933   -0.6703 H   0  0  0  1  0  0  0  0  0  0  0  0
    3.5034    0.8338   -2.5948 H   0  0  0  1  0  0  0  0  0  0  0  0
    2.4347   -0.4568   -2.0984 H   0  0  0  1  0  0  0  0  0  0  0  0
    3.2256   -1.5691   -3.9486 H   0  0  0  1  0  0  0  0  0  0  0  0
    4.6113   -0.5139   -4.0927 H   0  0  0  1  0  0  0  0  0  0  0  0
    4.3026   -2.9682   -2.3659 H   0  0  0  1  0  0  0  0  0  0  0  0
    5.7980   -2.0282   -0.7124 H   0  0  0  1  0  0  0  0  0  0  0  0
    6.3543   -0.7813   -1.8032 H   0  0  0  1  0  0  0  0  0  0  0  0
    6.5483   -3.2401   -3.1084 H   0  0  0  1  0  0  0  0  0  0  0  0
    6.4703   -1.8797   -3.9473 H   0  0  0  1  0  0  0  0  0  0  0  0
  1  2  4  0  0  0  0
  1  6  4  0  0  0  0
  1 18  1  0  0  0  0
  2  3  4  0  0  0  0
  3  4  4  0  0  0  0
  3 25  1  0  0  0  0
  4  5  4  0  0  0  0
  4  7  4  0  0  0  0
  5  6  4  0  0  0  0
  5  9  4  0  0  0  0
  7  8  4  0  0  0  0
  7 26  1  0  0  0  0
  8  9  4  0  0  0  0
  9 10  1  0  0  0  0
 10 11  4  0  0  0  0
 10 15  4  0  0  0  0
 11 12  4  0  0  0  0
 11 27  1  0  0  0  0
 12 13  4  0  0  0  0
 12 28  1  0  0  0  0
 13 14  4  0  0  0  0
 13 16  1  0  0  0  0
 14 15  4  0  0  0  0
 14 29  1  0  0  0  0
 15 30  1  0  0  0  0
 16 17  1  0  0  0  0
 17 31  1  0  0  0  0
 17 32  1  0  0  0  0
 17 33  1  0  0  0  0
 18 19  1  0  0  0  0
 18 34  1  0  0  0  0
 19 20  1  0  0  0  0
 19 23  1  0  0  0  0
 19 35  1  0  0  0  0
 20 21  1  0  0  0  0
 20 36  1  0  0  0  0
 20 37  1  0  0  0  0
 21 22  1  0  0  0  0
 21 38  1  0  0  0  0
 21 39  1  0  0  0  0
 22 23  1  0  0  0  0
 22 24  1  0  0  0  0
 22 40  1  0  0  0  0
 23 41  1  0  0  0  0
 23 42  1  0  0  0  0
 24 43  1  0  0  0  0
 24 44  1  0  0  0  0
M  END
> <ConfClashScore>
0 

> <ConfOneFourInteractionScore>
-0.981848 

> <ConfScore>
-0.0495702 

> <ConfScorePBest>
0.00375317 

> <ConfTolerance>
0.290138 

$$$$
c22.sdf
 OpenBabel04162418103D

 44 47  0  0  0  0  0  0  0  0999 V2000
    4.1970   -1.3830    1.2598 C   0  0  0  1  0  0  0  0  0  0  0  0
    3.3397   -1.9201    2.1336 N   0  0  0  1  0  0  0  0  0  0  0  0
    3.8042   -2.2518    3.3549 C   0  0  0  1  0  0  0  0  0  0  0  0
    5.1769   -2.0092    3.6528 C   0  0  0  1  0  0  0  0  0  0  0  0
    5.9217   -1.4397    2.6274 C   0  0  0  1  0  0  0  0  0  0  0  0
    5.4850   -1.1031    1.3904 N   0  0  0  1  0  0  0  0  0  0  0  0
    6.0971   -2.1474    4.7115 C   0  0  0  1  0  0  0  0  0  0  0  0
    7.2919   -1.7160    4.3791 N   0  0  0  1  0  0  0  0  0  0  0  0
    7.1825   -1.2778    3.0884 N   0  0  0  1  0  0  0  0  0  0  0  0
    8.2527   -0.7250    2.3315 C   0  0  0  1  0  0  0  0  0  0  0  0
    9.4819   -1.3565    2.3098 C   0  0  0  1  0  0  0  0  0  0  0  0
   10.5231   -0.8207    1.5679 C   0  0  0  1  0  0  0  0  0  0  0  0
   10.3337    0.3476    0.8542 C   0  0  0  1  0  0  0  0  0  0  0  0
    9.1007    0.9808    0.8760 C   0  0  0  1  0  0  0  0  0  0  0  0
    8.0625    0.4467    1.6157 C   0  0  0  1  0  0  0  0  0  0  0  0
   11.4166    0.7753    0.1764 O   0  0  0  1  0  0  0  0  0  0  0  0
   11.2314    2.0073   -0.5588 C   0  0  0  1  0  0  0  0  0  0  0  0
    3.6690   -1.0792    0.0604 N   0  0  0  1  0  0  0  0  0  0  0  0
    4.3548   -0.4125   -1.0476 C   0  0  0  1  0  0  0  0  0  0  0  0
    3.3958   -0.2639   -2.2624 C   0  0  0  1  0  0  0  0  0  0  0  0
    3.9538   -1.1654   -3.3778 C   0  0  0  1  0  0  0  0  0  0  0  0
    4.9275   -2.1414   -2.6895 C   0  0  0  1  0  0  0  0  0  0  0  0
    5.5591   -1.2828   -1.5418 C   0  0  0  1  0  0  0  0  0  0  0  0
    5.9670   -2.6057   -3.6354 N   0  0  0  1  0  0  0  0  0  0  0  0
    3.1740   -2.6760    4.0651 H   0  0  0  1  0  0  0  0  0  0  0  0
    5.8586   -2.5431    5.6432 H   0  0  0  1  0  0  0  0  0  0  0  0
    9.6257   -2.2334    2.8500 H   0  0  0  1  0  0  0  0  0  0  0  0
   11.4469   -1.2980    1.5483 H   0  0  0  1  0  0  0  0  0  0  0  0
    8.9569    1.8578    0.3358 H   0  0  0  1  0  0  0  0  0  0  0  0
    7.1386    0.9240    1.6353 H   0  0  0  1  0  0  0  0  0  0  0  0
   10.6282    1.8205   -1.4226 H   0  0  0  1  0  0  0  0  0  0  0  0
   12.1841    2.3865   -0.8645 H   0  0  0  1  0  0  0  0  0  0  0  0
   10.7449    2.7261    0.0670 H   0  0  0  1  0  0  0  0  0  0  0  0
    2.7328   -1.3290   -0.0860 H   0  0  0  1  0  0  0  0  0  0  0  0
    4.6991    0.5488   -0.7279 H   0  0  0  1  0  0  0  0  0  0  0  0
    2.4088   -0.5777   -1.9937 H   0  0  0  1  0  0  0  0  0  0  0  0
    3.3702    0.7545   -2.5895 H   0  0  0  1  0  0  0  0  0  0  0  0
    4.4710   -0.5773   -4.1069 H   0  0  0  1  0  0  0  0  0  0  0  0
    3.1603   -1.7046   -3.8514 H   0  0  0  1  0  0  0  0  0  0  0  0
    4.4042   -2.9856   -2.2913 H   0  0  0  1  0  0  0  0  0  0  0  0
    6.3510   -0.6670   -1.9140 H   0  0  0  1  0  0  0  0  0  0  0  0
    5.9308   -1.9062   -0.7556 H   0  0  0  1  0  0  0  0  0  0  0  0
    6.6127   -3.1700   -3.1609 H   0  0  0  1  0  0  0  0  0  0  0  0
    6.4297   -1.8312   -4.0180 H   0  0  0  1  0  0  0  0  0  0  0  0
  1  2  4  0  0  0  0
  1  6  4  0  0  0  0
  1 18  1  0  0  0  0
  2  3  4  0  0  0  0
  3  4  4  0  0  0  0
  3 25  1  0  0  0  0
  4  5  4  0  0  0  0
  4  7  4  0  0  0  0
  5  6  4  0  0  0  0
  5  9  4  0  0  0  0
  7  8  4  0  0  0  0
  7 26  1  0  0  0  0
  8  9  4  0  0  0  0
  9 10  1  0  0  0  0
 10 11  4  0  0  0  0
 10 15  4  0  0  0  0
 11 12  4  0  0  0  0
 11 27  1  0  0  0  0
 12 13  4  0  0  0  0
 12 28  1  0  0  0  0
 13 14  4  0  0  0  0
 13 16  1  0  0  0  0
 14 15  4  0  0  0  0
 14 29  1  0  0  0  0
 15 30  1  0  0  0  0
 16 17  1  0  0  0  0
 17 31  1  0  0  0  0
 17 32  1  0  0  0  0
 17 33  1  0  0  0  0
 18 19  1  0  0  0  0
 18 34  1  0  0  0  0
 19 20  1  0  0  0  0
 19 23  1  0  0  0  0
 19 35  1  0  0  0  0
 20 21  1  0  0  0  0
 20 36  1  0  0  0  0
 20 37  1  0  0  0  0
 21 22  1  0  0  0  0
 21 38  1  0  0  0  0
 21 39  1  0  0  0  0
 22 23  1  0  0  0  0
 22 24  1  0  0  0  0
 22 40  1  0  0  0  0
 23 41  1  0  0  0  0
 23 42  1  0  0  0  0
 24 43  1  0  0  0  0
 24 44  1  0  0  0  0
M  END
> <ConfClashScore>
0 

> <ConfOneFourInteractionScore>
-0.985399 

> <ConfScore>
-0.0486345 

> <ConfScorePBest>
0.00373984 

> <ConfTolerance>
0.251643 

$$$$
c22.sdf
 OpenBabel04162418103D

 44 47  0  0  0  0  0  0  0  0999 V2000
    4.3323   -0.2923    1.1614 C   0  0  0  1  0  0  0  0  0  0  0  0
    3.5024    0.0549    2.1503 N   0  0  0  1  0  0  0  0  0  0  0  0
    3.9221   -0.1173    3.4197 C   0  0  0  1  0  0  0  0  0  0  0  0
    5.2243   -0.6526    3.6420 C   0  0  0  1  0  0  0  0  0  0  0  0
    5.9528   -0.9530    2.4976 C   0  0  0  1  0  0  0  0  0  0  0  0
    5.5554   -0.7979    1.2123 N   0  0  0  1  0  0  0  0  0  0  0  0
    6.0904   -0.9922    4.7010 C   0  0  0  1  0  0  0  0  0  0  0  0
    7.2359   -1.4616    4.2632 N   0  0  0  1  0  0  0  0  0  0  0  0
    7.1500   -1.4369    2.8988 N   0  0  0  1  0  0  0  0  0  0  0  0
    8.1685   -1.8577    2.0305 C   0  0  0  1  0  0  0  0  0  0  0  0
    8.7581   -3.1073    2.0605 C   0  0  0  1  0  0  0  0  0  0  0  0
    9.7555   -3.4249    1.1518 C   0  0  0  1  0  0  0  0  0  0  0  0
   10.1642   -2.4901    0.2193 C   0  0  0  1  0  0  0  0  0  0  0  0
    9.5727   -1.2368    0.1894 C   0  0  0  1  0  0  0  0  0  0  0  0
    8.5782   -0.9200    1.0954 C   0  0  0  1  0  0  0  0  0  0  0  0
   11.1171   -2.6810   -0.7004 O   0  0  0  1  0  0  0  0  0  0  0  0
   11.6702   -1.5678   -1.4800 C   0  0  0  1  0  0  0  0  0  0  0  0
    3.8497   -0.0978   -0.0790 N   0  0  0  1  0  0  0  0  0  0  0  0
    4.6221   -0.3294   -1.3006 C   0  0  0  1  0  0  0  0  0  0  0  0
    3.7176   -0.2058   -2.5324 C   0  0  0  1  0  0  0  0  0  0  0  0
    3.6608   -1.6044   -3.1340 C   0  0  0  1  0  0  0  0  0  0  0  0
    5.0046   -2.2436   -2.7604 C   0  0  0  1  0  0  0  0  0  0  0  0
    5.1757   -1.7630   -1.3168 C   0  0  0  1  0  0  0  0  0  0  0  0
    6.0933   -1.7536   -3.6242 N   0  0  0  1  0  0  0  0  0  0  0  0
    3.3084    0.1353    4.2204 H   0  0  0  1  0  0  0  0  0  0  0  0
    5.8512   -0.8840    5.7073 H   0  0  0  1  0  0  0  0  0  0  0  0
    8.4534   -3.8094    2.7647 H   0  0  0  1  0  0  0  0  0  0  0  0
   10.1964   -4.3666    1.1717 H   0  0  0  1  0  0  0  0  0  0  0  0
    9.8774   -0.5348   -0.5149 H   0  0  0  1  0  0  0  0  0  0  0  0
    8.1373    0.0217    1.0755 H   0  0  0  1  0  0  0  0  0  0  0  0
   12.0507   -0.8206   -0.8153 H   0  0  0  1  0  0  0  0  0  0  0  0
   10.9008   -1.1433   -2.0905 H   0  0  0  1  0  0  0  0  0  0  0  0
   12.4625   -1.9276   -2.1026 H   0  0  0  1  0  0  0  0  0  0  0  0
    2.9263    0.2176   -0.1703 H   0  0  0  1  0  0  0  0  0  0  0  0
    5.4230    0.3779   -1.3563 H   0  0  0  1  0  0  0  0  0  0  0  0
    2.7388    0.1190   -2.2470 H   0  0  0  1  0  0  0  0  0  0  0  0
    4.1333    0.4869   -3.2340 H   0  0  0  1  0  0  0  0  0  0  0  0
    2.8487   -2.1621   -2.7164 H   0  0  0  1  0  0  0  0  0  0  0  0
    3.5499   -1.5536   -4.1970 H   0  0  0  1  0  0  0  0  0  0  0  0
    4.9586   -3.3112   -2.8146 H   0  0  0  1  0  0  0  0  0  0  0  0
    4.6222   -2.3863   -0.6459 H   0  0  0  1  0  0  0  0  0  0  0  0
    6.2091   -1.7691   -1.0395 H   0  0  0  1  0  0  0  0  0  0  0  0
    6.9507   -2.0972   -3.2967 H   0  0  0  1  0  0  0  0  0  0  0  0
    6.1068   -0.7738   -3.6083 H   0  0  0  1  0  0  0  0  0  0  0  0
  1  2  4  0  0  0  0
  1  6  4  0  0  0  0
  1 18  1  0  0  0  0
  2  3  4  0  0  0  0
  3  4  4  0  0  0  0
  3 25  1  0  0  0  0
  4  5  4  0  0  0  0
  4  7  4  0  0  0  0
  5  6  4  0  0  0  0
  5  9  4  0  0  0  0
  7  8  4  0  0  0  0
  7 26  1  0  0  0  0
  8  9  4  0  0  0  0
  9 10  1  0  0  0  0
 10 11  4  0  0  0  0
 10 15  4  0  0  0  0
 11 12  4  0  0  0  0
 11 27  1  0  0  0  0
 12 13  4  0  0  0  0
 12 28  1  0  0  0  0
 13 14  4  0  0  0  0
 13 16  1  0  0  0  0
 14 15  4  0  0  0  0
 14 29  1  0  0  0  0
 15 30  1  0  0  0  0
 16 17  1  0  0  0  0
 17 31  1  0  0  0  0
 17 32  1  0  0  0  0
 17 33  1  0  0  0  0
 18 19  1  0  0  0  0
 18 34  1  0  0  0  0
 19 20  1  0  0  0  0
 19 23  1  0  0  0  0
 19 35  1  0  0  0  0
 20 21  1  0  0  0  0
 20 36  1  0  0  0  0
 20 37  1  0  0  0  0
 21 22  1  0  0  0  0
 21 38  1  0  0  0  0
 21 39  1  0  0  0  0
 22 23  1  0  0  0  0
 22 24  1  0  0  0  0
 22 40  1  0  0  0  0
 23 41  1  0  0  0  0
 23 42  1  0  0  0  0
 24 43  1  0  0  0  0
 24 44  1  0  0  0  0
M  END
> <ConfClashScore>
0 

> <ConfOneFourInteractionScore>
-0.985399 

> <ConfScore>
-0.0486345 

> <ConfScorePBest>
0.00372651 

> <ConfTolerance>
0.290265 

$$$$
c22.sdf
 OpenBabel04162418103D

 44 47  0  0  0  0  0  0  0  0999 V2000
    4.2731   -0.3906    1.1854 C   0  0  0  1  0  0  0  0  0  0  0  0
    5.5361   -0.8271    1.2235 N   0  0  0  1  0  0  0  0  0  0  0  0
    6.0800   -1.0887    2.4289 C   0  0  0  1  0  0  0  0  0  0  0  0
    5.2836   -0.8932    3.5948 C   0  0  0  1  0  0  0  0  0  0  0  0
    3.9900   -0.4393    3.3684 C   0  0  0  1  0  0  0  0  0  0  0  0
    3.4196   -0.1615    2.1719 N   0  0  0  1  0  0  0  0  0  0  0  0
    5.3623   -1.0253    4.9959 C   0  0  0  1  0  0  0  0  0  0  0  0
    4.2384   -0.6832    5.5823 N   0  0  0  1  0  0  0  0  0  0  0  0
    3.3890   -0.3206    4.5738 N   0  0  0  1  0  0  0  0  0  0  0  0
    2.0634    0.1186    4.7654 C   0  0  0  1  0  0  0  0  0  0  0  0
    1.0590   -0.5750    4.1172 C   0  0  0  1  0  0  0  0  0  0  0  0
   -0.2629   -0.1890    4.2750 C   0  0  0  1  0  0  0  0  0  0  0  0
   -0.5762    0.8928    5.0762 C   0  0  0  1  0  0  0  0  0  0  0  0
    0.4313    1.5883    5.7263 C   0  0  0  1  0  0  0  0  0  0  0  0
    1.7495    1.2035    5.5691 C   0  0  0  1  0  0  0  0  0  0  0  0
   -1.8256    1.3641    5.3013 O   0  0  0  1  0  0  0  0  0  0  0  0
   -2.9229    0.5628    4.8361 C   0  0  0  1  0  0  0  0  0  0  0  0
    3.7875   -0.1424   -0.0651 N   0  0  0  1  0  0  0  0  0  0  0  0
    4.6008   -0.3379   -1.2523 C   0  0  0  1  0  0  0  0  0  0  0  0
    3.7316   -0.1931   -2.5498 C   0  0  0  1  0  0  0  0  0  0  0  0
    3.6638   -1.5826   -3.2100 C   0  0  0  1  0  0  0  0  0  0  0  0
    5.0090   -2.2455   -2.7604 C   0  0  0  1  0  0  0  0  0  0  0  0
    5.1366   -1.7649   -1.3097 C   0  0  0  1  0  0  0  0  0  0  0  0
    6.1411   -1.7718   -3.5834 N   0  0  0  1  0  0  0  0  0  0  0  0
    7.0606   -1.4264    2.5065 H   0  0  0  1  0  0  0  0  0  0  0  0
    6.2082   -1.3541    5.5038 H   0  0  0  1  0  0  0  0  0  0  0  0
    1.2950   -1.3865    3.5110 H   0  0  0  1  0  0  0  0  0  0  0  0
   -1.0191   -0.7134    3.7904 H   0  0  0  1  0  0  0  0  0  0  0  0
    0.1954    2.3998    6.3325 H   0  0  0  1  0  0  0  0  0  0  0  0
    2.5057    1.7279    6.0536 H   0  0  0  1  0  0  0  0  0  0  0  0
   -2.7993    0.3588    3.7930 H   0  0  0  1  0  0  0  0  0  0  0  0
   -3.8405    1.0915    4.9895 H   0  0  0  1  0  0  0  0  0  0  0  0
   -2.9466   -0.3588    5.3791 H   0  0  0  1  0  0  0  0  0  0  0  0
    2.8660    0.1761   -0.1648 H   0  0  0  1  0  0  0  0  0  0  0  0
    5.4046    0.3683   -1.2548 H   0  0  0  1  0  0  0  0  0  0  0  0
    4.1852    0.5085   -3.2183 H   0  0  0  1  0  0  0  0  0  0  0  0
    2.7471    0.1404   -2.2960 H   0  0  0  1  0  0  0  0  0  0  0  0
    2.8220   -2.1384   -2.8529 H   0  0  0  1  0  0  0  0  0  0  0  0
    3.6117   -1.5008   -4.2756 H   0  0  0  1  0  0  0  0  0  0  0  0
    4.9519   -3.3127   -2.8120 H   0  0  0  1  0  0  0  0  0  0  0  0
    4.5637   -2.3967   -0.6636 H   0  0  0  1  0  0  0  0  0  0  0  0
    6.1631   -1.7822   -1.0080 H   0  0  0  1  0  0  0  0  0  0  0  0
    6.9801   -2.1232   -3.2189 H   0  0  0  1  0  0  0  0  0  0  0  0
    6.1653   -0.7922   -3.5724 H   0  0  0  1  0  0  0  0  0  0  0  0
  1  2  4  0  0  0  0
  1  6  4  0  0  0  0
  1 18  1  0  0  0  0
  2  3  4  0  0  0  0
  3  4  4  0  0  0  0
  3 25  1  0  0  0  0
  4  5  4  0  0  0  0
  4  7  4  0  0  0  0
  5  6  4  0  0  0  0
  5  9  4  0  0  0  0
  7  8  4  0  0  0  0
  7 26  1  0  0  0  0
  8  9  4  0  0  0  0
  9 10  1  0  0  0  0
 10 11  4  0  0  0  0
 10 15  4  0  0  0  0
 11 12  4  0  0  0  0
 11 27  1  0  0  0  0
 12 13  4  0  0  0  0
 12 28  1  0  0  0  0
 13 14  4  0  0  0  0
 13 16  1  0  0  0  0
 14 15  4  0  0  0  0
 14 29  1  0  0  0  0
 15 30  1  0  0  0  0
 16 17  1  0  0  0  0
 17 31  1  0  0  0  0
 17 32  1  0  0  0  0
 17 33  1  0  0  0  0
 18 19  1  0  0  0  0
 18 34  1  0  0  0  0
 19 20  1  0  0  0  0
 19 23  1  0  0  0  0
 19 35  1  0  0  0  0
 20 21  1  0  0  0  0
 20 36  1  0  0  0  0
 20 37  1  0  0  0  0
 21 22  1  0  0  0  0
 21 38  1  0  0  0  0
 21 39  1  0  0  0  0
 22 23  1  0  0  0  0
 22 24  1  0  0  0  0
 22 40  1  0  0  0  0
 23 41  1  0  0  0  0
 23 42  1  0  0  0  0
 24 43  1  0  0  0  0
 24 44  1  0  0  0  0
M  END
> <ConfClashScore>
0 

> <ConfOneFourInteractionScore>
-0.985399 

> <ConfScore>
-0.0486345 

> <ConfScorePBest>
0.00371319 

> <ConfTolerance>
0.260838 

$$$$
c22.sdf
 OpenBabel04162418103D

 44 47  0  0  0  0  0  0  0  0999 V2000
    4.3641   -0.1507    1.2349 C   0  0  0  1  0  0  0  0  0  0  0  0
    3.5868    0.0739    2.2991 N   0  0  0  1  0  0  0  0  0  0  0  0
    4.1760    0.1517    3.5091 C   0  0  0  1  0  0  0  0  0  0  0  0
    5.5906   -0.0031    3.5914 C   0  0  0  1  0  0  0  0  0  0  0  0
    6.2409   -0.2255    2.3838 C   0  0  0  1  0  0  0  0  0  0  0  0
    5.6759   -0.3156    1.1563 N   0  0  0  1  0  0  0  0  0  0  0  0
    6.6284    0.0066    4.5451 C   0  0  0  1  0  0  0  0  0  0  0  0
    7.8018   -0.1955    3.9916 N   0  0  0  1  0  0  0  0  0  0  0  0
    7.5611   -0.3390    2.6532 N   0  0  0  1  0  0  0  0  0  0  0  0
    8.5602   -0.5747    1.6801 C   0  0  0  1  0  0  0  0  0  0  0  0
    9.7616    0.1055    1.7445 C   0  0  0  1  0  0  0  0  0  0  0  0
   10.7428   -0.1295    0.7940 C   0  0  0  1  0  0  0  0  0  0  0  0
   10.5177   -1.0399   -0.2213 C   0  0  0  1  0  0  0  0  0  0  0  0
    9.3126   -1.7220   -0.2858 C   0  0  0  1  0  0  0  0  0  0  0  0
    8.3342   -1.4878    0.6620 C   0  0  0  1  0  0  0  0  0  0  0  0
   11.4317   -1.3113   -1.1830 O   0  0  0  1  0  0  0  0  0  0  0  0
   12.7755   -0.8576   -0.9578 C   0  0  0  1  0  0  0  0  0  0  0  0
    3.6881   -0.2228    0.0172 N   0  0  0  1  0  0  0  0  0  0  0  0
    4.5544   -0.3565   -1.1628 C   0  0  0  1  0  0  0  0  0  0  0  0
    3.7484   -0.1123   -2.4439 C   0  0  0  1  0  0  0  0  0  0  0  0
    3.7288   -1.4515   -3.1704 C   0  0  0  1  0  0  0  0  0  0  0  0
    5.0354   -2.1392   -2.7539 C   0  0  0  1  0  0  0  0  0  0  0  0
    5.0980   -1.7904   -1.2645 C   0  0  0  1  0  0  0  0  0  0  0  0
    6.2077   -1.5815   -3.4959 N   0  0  0  1  0  0  0  0  0  0  0  0
    3.6100    0.3212    4.3649 H   0  0  0  1  0  0  0  0  0  0  0  0
    6.4824    0.1558    5.5639 H   0  0  0  1  0  0  0  0  0  0  0  0
    9.9296    0.7935    2.5061 H   0  0  0  1  0  0  0  0  0  0  0  0
   11.6484    0.3793    0.8447 H   0  0  0  1  0  0  0  0  0  0  0  0
    9.1447   -2.4101   -1.0474 H   0  0  0  1  0  0  0  0  0  0  0  0
    7.4286   -1.9966    0.6113 H   0  0  0  1  0  0  0  0  0  0  0  0
   12.8032    0.2112   -0.9985 H   0  0  0  1  0  0  0  0  0  0  0  0
   13.4186   -1.2597   -1.7126 H   0  0  0  1  0  0  0  0  0  0  0  0
   13.1060   -1.1864    0.0053 H   0  0  0  1  0  0  0  0  0  0  0  0
    2.7108   -0.1870   -0.0469 H   0  0  0  1  0  0  0  0  0  0  0  0
    5.3619    0.3421   -1.0940 H   0  0  0  1  0  0  0  0  0  0  0  0
    2.7527    0.1991   -2.2061 H   0  0  0  1  0  0  0  0  0  0  0  0
    4.2215    0.6340   -3.0473 H   0  0  0  1  0  0  0  0  0  0  0  0
    2.8832   -2.0328   -2.8672 H   0  0  0  1  0  0  0  0  0  0  0  0
    3.7004   -1.3055   -4.2300 H   0  0  0  1  0  0  0  0  0  0  0  0
    4.9867   -3.1972   -2.9064 H   0  0  0  1  0  0  0  0  0  0  0  0
    4.4903   -2.4630   -0.6959 H   0  0  0  1  0  0  0  0  0  0  0  0
    6.1069   -1.8349   -0.9109 H   0  0  0  1  0  0  0  0  0  0  0  0
    6.0768   -1.7103   -4.4586 H   0  0  0  1  0  0  0  0  0  0  0  0
    7.0237   -2.0444   -3.2126 H   0  0  0  1  0  0  0  0  0  0  0  0
  1  2  4  0  0  0  0
  1  6  4  0  0  0  0
  1 18  1  0  0  0  0
  2  3  4  0  0  0  0
  3  4  4  0  0  0  0
  3 25  1  0  0  0  0
  4  5  4  0  0  0  0
  4  7  4  0  0  0  0
  5  6  4  0  0  0  0
  5  9  4  0  0  0  0
  7  8  4  0  0  0  0
  7 26  1  0  0  0  0
  8  9  4  0  0  0  0
  9 10  1  0  0  0  0
 10 11  4  0  0  0  0
 10 15  4  0  0  0  0
 11 12  4  0  0  0  0
 11 27  1  0  0  0  0
 12 13  4  0  0  0  0
 12 28  1  0  0  0  0
 13 14  4  0  0  0  0
 13 16  1  0  0  0  0
 14 15  4  0  0  0  0
 14 29  1  0  0  0  0
 15 30  1  0  0  0  0
 16 17  1  0  0  0  0
 17 31  1  0  0  0  0
 17 32  1  0  0  0  0
 17 33  1  0  0  0  0
 18 19  1  0  0  0  0
 18 34  1  0  0  0  0
 19 20  1  0  0  0  0
 19 23  1  0  0  0  0
 19 35  1  0  0  0  0
 20 21  1  0  0  0  0
 20 36  1  0  0  0  0
 20 37  1  0  0  0  0
 21 22  1  0  0  0  0
 21 38  1  0  0  0  0
 21 39  1  0  0  0  0
 22 23  1  0  0  0  0
 22 24  1  0  0  0  0
 22 40  1  0  0  0  0
 23 41  1  0  0  0  0
 23 42  1  0  0  0  0
 24 43  1  0  0  0  0
 24 44  1  0  0  0  0
M  END
> <ConfClashScore>
0 

> <ConfOneFourInteractionScore>
-0.981848 

> <ConfScore>
-0.0477081 

> <ConfScorePBest>
0.00369986 

> <ConfTolerance>
0.250269 

$$$$
c22.sdf
 OpenBabel04162418103D

 44 47  0  0  0  0  0  0  0  0999 V2000
    3.9129   -0.0764    1.1773 C   0  0  0  1  0  0  0  0  0  0  0  0
    2.9022   -0.0923    2.0521 N   0  0  0  1  0  0  0  0  0  0  0  0
    3.1828    0.1464    3.3489 C   0  0  0  1  0  0  0  0  0  0  0  0
    4.5344    0.4076    3.7186 C   0  0  0  1  0  0  0  0  0  0  0  0
    5.4551    0.3897    2.6782 C   0  0  0  1  0  0  0  0  0  0  0  0
    5.2043    0.1464    1.3697 N   0  0  0  1  0  0  0  0  0  0  0  0
    5.3071    0.7125    4.8574 C   0  0  0  1  0  0  0  0  0  0  0  0
    6.5772    0.8620    4.5597 N   0  0  0  1  0  0  0  0  0  0  0  0
    6.6680    0.6622    3.2101 N   0  0  0  1  0  0  0  0  0  0  0  0
    7.8790    0.7317    2.4639 C   0  0  0  1  0  0  0  0  0  0  0  0
    8.9340    1.4941    2.9285 C   0  0  0  1  0  0  0  0  0  0  0  0
   10.1146    1.5575    2.2049 C   0  0  0  1  0  0  0  0  0  0  0  0
   10.2349    0.8627    1.0161 C   0  0  0  1  0  0  0  0  0  0  0  0
    9.1767    0.0980    0.5503 C   0  0  0  1  0  0  0  0  0  0  0  0
    7.9994    0.0347    1.2717 C   0  0  0  1  0  0  0  0  0  0  0  0
   11.4188    0.8545    0.3586 O   0  0  0  1  0  0  0  0  0  0  0  0
   12.5076    1.5733    0.9587 C   0  0  0  1  0  0  0  0  0  0  0  0
    3.5639   -0.3255   -0.0977 N   0  0  0  1  0  0  0  0  0  0  0  0
    4.5099   -0.3410   -1.2145 C   0  0  0  1  0  0  0  0  0  0  0  0
    3.7780   -0.1813   -2.5433 C   0  0  0  1  0  0  0  0  0  0  0  0
    3.6511   -1.5759   -3.1684 C   0  0  0  1  0  0  0  0  0  0  0  0
    5.0067   -2.2445   -2.7605 C   0  0  0  1  0  0  0  0  0  0  0  0
    5.2176   -1.7365   -1.3222 C   0  0  0  1  0  0  0  0  0  0  0  0
    6.1063   -1.8046   -3.6479 N   0  0  0  1  0  0  0  0  0  0  0  0
    2.4285    0.1400    4.0649 H   0  0  0  1  0  0  0  0  0  0  0  0
    4.9182    0.8075    5.8173 H   0  0  0  1  0  0  0  0  0  0  0  0
    8.8421    2.0202    3.8209 H   0  0  0  1  0  0  0  0  0  0  0  0
   10.9099    2.1280    2.5564 H   0  0  0  1  0  0  0  0  0  0  0  0
    9.2685   -0.4281   -0.3421 H   0  0  0  1  0  0  0  0  0  0  0  0
    7.2041   -0.5357    0.9202 H   0  0  0  1  0  0  0  0  0  0  0  0
   12.4153    1.5374    2.0241 H   0  0  0  1  0  0  0  0  0  0  0  0
   12.4845    2.5923    0.6331 H   0  0  0  1  0  0  0  0  0  0  0  0
   13.4344    1.1258    0.6660 H   0  0  0  1  0  0  0  0  0  0  0  0
    2.6203   -0.5074   -0.2902 H   0  0  0  1  0  0  0  0  0  0  0  0
    5.2302    0.4392   -1.0833 H   0  0  0  1  0  0  0  0  0  0  0  0
    2.8063    0.2347   -2.3776 H   0  0  0  1  0  0  0  0  0  0  0  0
    4.3355    0.4609   -3.1926 H   0  0  0  1  0  0  0  0  0  0  0  0
    3.5522   -1.5167   -4.2322 H   0  0  0  1  0  0  0  0  0  0  0  0
    2.8175   -2.1091   -2.7614 H   0  0  0  1  0  0  0  0  0  0  0  0
    4.9329   -3.3117   -2.7854 H   0  0  0  1  0  0  0  0  0  0  0  0
    4.7842   -2.4220   -0.6243 H   0  0  0  1  0  0  0  0  0  0  0  0
    6.2632   -1.6337   -1.1196 H   0  0  0  1  0  0  0  0  0  0  0  0
    6.9548   -2.1737   -3.3251 H   0  0  0  1  0  0  0  0  0  0  0  0
    6.1548   -0.8258   -3.6470 H   0  0  0  1  0  0  0  0  0  0  0  0
  1  2  4  0  0  0  0
  1  6  4  0  0  0  0
  1 18  1  0  0  0  0
  2  3  4  0  0  0  0
  3  4  4  0  0  0  0
  3 25  1  0  0  0  0
  4  5  4  0  0  0  0
  4  7  4  0  0  0  0
  5  6  4  0  0  0  0
  5  9  4  0  0  0  0
  7  8  4  0  0  0  0
  7 26  1  0  0  0  0
  8  9  4  0  0  0  0
  9 10  1  0  0  0  0
 10 11  4  0  0  0  0
 10 15  4  0  0  0  0
 11 12  4  0  0  0  0
 11 27  1  0  0  0  0
 12 13  4  0  0  0  0
 12 28  1  0  0  0  0
 13 14  4  0  0  0  0
 13 16  1  0  0  0  0
 14 15  4  0  0  0  0
 14 29  1  0  0  0  0
 15 30  1  0  0  0  0
 16 17  1  0  0  0  0
 17 31  1  0  0  0  0
 17 32  1  0  0  0  0
 17 33  1  0  0  0  0
 18 19  1  0  0  0  0
 18 34  1  0  0  0  0
 19 20  1  0  0  0  0
 19 23  1  0  0  0  0
 19 35  1  0  0  0  0
 20 21  1  0  0  0  0
 20 36  1  0  0  0  0
 20 37  1  0  0  0  0
 21 22  1  0  0  0  0
 21 38  1  0  0  0  0
 21 39  1  0  0  0  0
 22 23  1  0  0  0  0
 22 24  1  0  0  0  0
 22 40  1  0  0  0  0
 23 41  1  0  0  0  0
 23 42  1  0  0  0  0
 24 43  1  0  0  0  0
 24 44  1  0  0  0  0
M  END
> <ConfClashScore>
0 

> <ConfOneFourInteractionScore>
-0.984337 

> <ConfScore>
-0.0475164 

> <ConfScorePBest>
0.00368653 

> <ConfTolerance>
0.337772 

$$$$
c22.sdf
 OpenBabel04162418103D

 44 47  0  0  0  0  0  0  0  0999 V2000
    3.9939    0.1950    1.1454 C   0  0  0  1  0  0  0  0  0  0  0  0
    5.2452    0.6594    1.2196 N   0  0  0  1  0  0  0  0  0  0  0  0
    5.6523    1.2005    2.3853 C   0  0  0  1  0  0  0  0  0  0  0  0
    4.7347    1.2448    3.4752 C   0  0  0  1  0  0  0  0  0  0  0  0
    3.4767    0.7119    3.2223 C   0  0  0  1  0  0  0  0  0  0  0  0
    3.0378    0.1693    2.0617 N   0  0  0  1  0  0  0  0  0  0  0  0
    4.6684    1.6618    4.8200 C   0  0  0  1  0  0  0  0  0  0  0  0
    3.4907    1.4208    5.3482 N   0  0  0  1  0  0  0  0  0  0  0  0
    2.7533    0.8325    4.3583 N   0  0  0  1  0  0  0  0  0  0  0  0
    1.4123    0.4066    4.5034 C   0  0  0  1  0  0  0  0  0  0  0  0
    0.9601   -0.0469    5.7281 C   0  0  0  1  0  0  0  0  0  0  0  0
   -0.3556   -0.4592    5.8716 C   0  0  0  1  0  0  0  0  0  0  0  0
   -1.2137   -0.4218    4.7887 C   0  0  0  1  0  0  0  0  0  0  0  0
   -0.7599    0.0332    3.5604 C   0  0  0  1  0  0  0  0  0  0  0  0
    0.5519    0.4443    3.4172 C   0  0  0  1  0  0  0  0  0  0  0  0
   -2.5133   -0.8021    4.8066 O   0  0  0  1  0  0  0  0  0  0  0  0
   -3.0462   -1.2586    6.0596 C   0  0  0  1  0  0  0  0  0  0  0  0
    3.6523   -0.3280   -0.0460 N   0  0  0  1  0  0  0  0  0  0  0  0
    4.5250   -0.3171   -1.2233 C   0  0  0  1  0  0  0  0  0  0  0  0
    3.7013   -0.2297   -2.5042 C   0  0  0  1  0  0  0  0  0  0  0  0
    3.6142   -1.6435   -3.0918 C   0  0  0  1  0  0  0  0  0  0  0  0
    5.0292   -2.2259   -2.7604 C   0  0  0  1  0  0  0  0  0  0  0  0
    5.3028   -1.6732   -1.3494 C   0  0  0  1  0  0  0  0  0  0  0  0
    6.0513   -1.7423   -3.7348 N   0  0  0  1  0  0  0  0  0  0  0  0
    6.6160    1.5780    2.4872 H   0  0  0  1  0  0  0  0  0  0  0  0
    5.4569    2.1066    5.3319 H   0  0  0  1  0  0  0  0  0  0  0  0
    1.6068   -0.0789    6.5420 H   0  0  0  1  0  0  0  0  0  0  0  0
   -0.6970   -0.7967    6.7941 H   0  0  0  1  0  0  0  0  0  0  0  0
   -1.4066    0.0652    2.7466 H   0  0  0  1  0  0  0  0  0  0  0  0
    0.8933    0.7818    2.4947 H   0  0  0  1  0  0  0  0  0  0  0  0
   -2.3867   -0.9746    6.8529 H   0  0  0  1  0  0  0  0  0  0  0  0
   -3.1414   -2.3242    6.0394 H   0  0  0  1  0  0  0  0  0  0  0  0
   -4.0076   -0.8171    6.2200 H   0  0  0  1  0  0  0  0  0  0  0  0
    2.7676   -0.7407   -0.1317 H   0  0  0  1  0  0  0  0  0  0  0  0
    5.2066    0.5049   -1.1552 H   0  0  0  1  0  0  0  0  0  0  0  0
    2.7200    0.1354   -2.2834 H   0  0  0  1  0  0  0  0  0  0  0  0
    4.1783    0.4271   -3.2013 H   0  0  0  1  0  0  0  0  0  0  0  0
    2.8403   -2.2126   -2.6205 H   0  0  0  1  0  0  0  0  0  0  0  0
    3.4440   -1.6150   -4.1478 H   0  0  0  1  0  0  0  0  0  0  0  0
    5.0150   -3.2958   -2.7592 H   0  0  0  1  0  0  0  0  0  0  0  0
    6.3517   -1.5076   -1.2178 H   0  0  0  1  0  0  0  0  0  0  0  0
    4.9551   -2.3651   -0.6111 H   0  0  0  1  0  0  0  0  0  0  0  0
    6.9013   -2.2024   -3.5727 H   0  0  0  1  0  0  0  0  0  0  0  0
    6.1766   -0.7766   -3.6242 H   0  0  0  1  0  0  0  0  0  0  0  0
  1  2  4  0  0  0  0
  1  6  4  0  0  0  0
  1 18  1  0  0  0  0
  2  3  4  0  0  0  0
  3  4  4  0  0  0  0
  3 25  1  0  0  0  0
  4  5  4  0  0  0  0
  4  7  4  0  0  0  0
  5  6  4  0  0  0  0
  5  9  4  0  0  0  0
  7  8  4  0  0  0  0
  7 26  1  0  0  0  0
  8  9  4  0  0  0  0
  9 10  1  0  0  0  0
 10 11  4  0  0  0  0
 10 15  4  0  0  0  0
 11 12  4  0  0  0  0
 11 27  1  0  0  0  0
 12 13  4  0  0  0  0
 12 28  1  0  0  0  0
 13 14  4  0  0  0  0
 13 16  1  0  0  0  0
 14 15  4  0  0  0  0
 14 29  1  0  0  0  0
 15 30  1  0  0  0  0
 16 17  1  0  0  0  0
 17 31  1  0  0  0  0
 17 32  1  0  0  0  0
 17 33  1  0  0  0  0
 18 19  1  0  0  0  0
 18 34  1  0  0  0  0
 19 20  1  0  0  0  0
 19 23  1  0  0  0  0
 19 35  1  0  0  0  0
 20 21  1  0  0  0  0
 20 36  1  0  0  0  0
 20 37  1  0  0  0  0
 21 22  1  0  0  0  0
 21 38  1  0  0  0  0
 21 39  1  0  0  0  0
 22 23  1  0  0  0  0
 22 24  1  0  0  0  0
 22 40  1  0  0  0  0
 23 41  1  0  0  0  0
 23 42  1  0  0  0  0
 24 43  1  0  0  0  0
 24 44  1  0  0  0  0
M  END
> <ConfClashScore>
0 

> <ConfOneFourInteractionScore>
-0.984337 

> <ConfScore>
-0.0475164 

> <ConfScorePBest>
0.0036732 

> <ConfTolerance>
0.258015 

$$$$
c22.sdf
 OpenBabel04162418103D

 44 47  0  0  0  0  0  0  0  0999 V2000
    3.0975    1.0157    0.2450 C   0  0  0  1  0  0  0  0  0  0  0  0
    3.2610    2.0184   -0.6238 N   0  0  0  1  0  0  0  0  0  0  0  0
    2.6259    3.1814   -0.3761 C   0  0  0  1  0  0  0  0  0  0  0  0
    1.8211    3.2842    0.7959 C   0  0  0  1  0  0  0  0  0  0  0  0
    1.7685    2.1448    1.5892 C   0  0  0  1  0  0  0  0  0  0  0  0
    2.3887    0.9623    1.3626 N   0  0  0  1  0  0  0  0  0  0  0  0
    1.0152    4.2174    1.4789 C   0  0  0  1  0  0  0  0  0  0  0  0
    0.5075    3.7110    2.5789 N   0  0  0  1  0  0  0  0  0  0  0  0
    0.9746    2.4276    2.6466 N   0  0  0  1  0  0  0  0  0  0  0  0
    0.6659    1.5108    3.6918 C   0  0  0  1  0  0  0  0  0  0  0  0
   -0.1922    0.4540    3.4528 C   0  0  0  1  0  0  0  0  0  0  0  0
   -0.4884   -0.4414    4.4687 C   0  0  0  1  0  0  0  0  0  0  0  0
    0.0700   -0.2744    5.7219 C   0  0  0  1  0  0  0  0  0  0  0  0
    0.9306    0.7856    5.9614 C   0  0  0  1  0  0  0  0  0  0  0  0
    1.2260    1.6785    4.9486 C   0  0  0  1  0  0  0  0  0  0  0  0
   -0.1458   -1.0689    6.7767 O   0  0  0  1  0  0  0  0  0  0  0  0
   -0.7663   -2.3906    6.6320 C   0  0  0  1  0  0  0  0  0  0  0  0
    3.7521   -0.1098   -0.0623 N   0  0  0  1  0  0  0  0  0  0  0  0
    4.5954   -0.3292   -1.2308 C   0  0  0  1  0  0  0  0  0  0  0  0
    3.7625   -0.2265   -2.5139 C   0  0  0  1  0  0  0  0  0  0  0  0
    3.7676   -1.6277   -3.1121 C   0  0  0  1  0  0  0  0  0  0  0  0
    5.0990   -2.2400   -2.6579 C   0  0  0  1  0  0  0  0  0  0  0  0
    5.1761   -1.7520   -1.2087 C   0  0  0  1  0  0  0  0  0  0  0  0
    6.2422   -1.7249   -3.4693 N   0  0  0  1  0  0  0  0  0  0  0  0
    2.7211    3.9871   -1.0268 H   0  0  0  1  0  0  0  0  0  0  0  0
    0.8434    5.1893    1.1513 H   0  0  0  1  0  0  0  0  0  0  0  0
   -0.6156    0.3306    2.5109 H   0  0  0  1  0  0  0  0  0  0  0  0
   -1.1309   -1.2389    4.2878 H   0  0  0  1  0  0  0  0  0  0  0  0
    1.3540    0.9091    6.9033 H   0  0  0  1  0  0  0  0  0  0  0  0
    1.8686    2.4761    5.1294 H   0  0  0  1  0  0  0  0  0  0  0  0
   -0.7990   -2.8761    7.5850 H   0  0  0  1  0  0  0  0  0  0  0  0
   -0.1910   -2.9818    5.9505 H   0  0  0  1  0  0  0  0  0  0  0  0
   -1.7613   -2.2779    6.2551 H   0  0  0  1  0  0  0  0  0  0  0  0
    3.6550   -0.8609    0.5595 H   0  0  0  1  0  0  0  0  0  0  0  0
    5.3847    0.3932   -1.2423 H   0  0  0  1  0  0  0  0  0  0  0  0
    2.7628    0.0803   -2.2876 H   0  0  0  1  0  0  0  0  0  0  0  0
    4.2055    0.4720   -3.1927 H   0  0  0  1  0  0  0  0  0  0  0  0
    3.7182   -1.5822   -4.1800 H   0  0  0  1  0  0  0  0  0  0  0  0
    2.9432   -2.1996   -2.7405 H   0  0  0  1  0  0  0  0  0  0  0  0
    5.0766   -3.3084   -2.7104 H   0  0  0  1  0  0  0  0  0  0  0  0
    6.1914   -1.7374   -0.8714 H   0  0  0  1  0  0  0  0  0  0  0  0
    4.5962   -2.3838   -0.5689 H   0  0  0  1  0  0  0  0  0  0  0  0
    6.2325   -0.7449   -3.4631 H   0  0  0  1  0  0  0  0  0  0  0  0
    6.1591   -2.0463   -4.3913 H   0  0  0  1  0  0  0  0  0  0  0  0
  1  2  4  0  0  0  0
  1  6  4  0  0  0  0
  1 18  1  0  0  0  0
  2  3  4  0  0  0  0
  3  4  4  0  0  0  0
  3 25  1  0  0  0  0
  4  5  4  0  0  0  0
  4  7  4  0  0  0  0
  5  6  4  0  0  0  0
  5  9  4  0  0  0  0
  7  8  4  0  0  0  0
  7 26  1  0  0  0  0
  8  9  4  0  0  0  0
  9 10  1  0  0  0  0
 10 11  4  0  0  0  0
 10 15  4  0  0  0  0
 11 12  4  0  0  0  0
 11 27  1  0  0  0  0
 12 13  4  0  0  0  0
 12 28  1  0  0  0  0
 13 14  4  0  0  0  0
 13 16  1  0  0  0  0
 14 15  4  0  0  0  0
 14 29  1  0  0  0  0
 15 30  1  0  0  0  0
 16 17  1  0  0  0  0
 17 31  1  0  0  0  0
 17 32  1  0  0  0  0
 17 33  1  0  0  0  0
 18 19  1  0  0  0  0
 18 34  1  0  0  0  0
 19 20  1  0  0  0  0
 19 23  1  0  0  0  0
 19 35  1  0  0  0  0
 20 21  1  0  0  0  0
 20 36  1  0  0  0  0
 20 37  1  0  0  0  0
 21 22  1  0  0  0  0
 21 38  1  0  0  0  0
 21 39  1  0  0  0  0
 22 23  1  0  0  0  0
 22 24  1  0  0  0  0
 22 40  1  0  0  0  0
 23 41  1  0  0  0  0
 23 42  1  0  0  0  0
 24 43  1  0  0  0  0
 24 44  1  0  0  0  0
M  END
> <ConfClashScore>
0 

> <ConfOneFourInteractionScore>
-0.985399 

> <ConfScore>
-0.0471977 

> <ConfScorePBest>
0.00365987 

> <ConfTolerance>
0.339065 

$$$$
c22.sdf
 OpenBabel04162418103D

 44 47  0  0  0  0  0  0  0  0999 V2000
    4.5791   -0.6432    1.3694 C   0  0  0  1  0  0  0  0  0  0  0  0
    5.8939   -0.5784    1.1366 N   0  0  0  1  0  0  0  0  0  0  0  0
    6.7276   -0.6188    2.1952 C   0  0  0  1  0  0  0  0  0  0  0  0
    6.1683   -0.7334    3.5013 C   0  0  0  1  0  0  0  0  0  0  0  0
    4.7813   -0.7934    3.5567 C   0  0  0  1  0  0  0  0  0  0  0  0
    3.9194   -0.7480    2.5131 N   0  0  0  1  0  0  0  0  0  0  0  0
    6.5715   -0.8267    4.8487 C   0  0  0  1  0  0  0  0  0  0  0  0
    5.5438   -0.9272    5.6598 N   0  0  0  1  0  0  0  0  0  0  0  0
    4.4356   -0.9067    4.8591 N   0  0  0  1  0  0  0  0  0  0  0  0
    3.1047   -0.9926    5.3304 C   0  0  0  1  0  0  0  0  0  0  0  0
    2.7988   -1.8282    6.3878 C   0  0  0  1  0  0  0  0  0  0  0  0
    1.4955   -1.9083    6.8531 C   0  0  0  1  0  0  0  0  0  0  0  0
    0.5010   -1.1567    6.2562 C   0  0  0  1  0  0  0  0  0  0  0  0
    0.8080   -0.3186    5.1955 C   0  0  0  1  0  0  0  0  0  0  0  0
    2.1075   -0.2387    4.7315 C   0  0  0  1  0  0  0  0  0  0  0  0
   -0.7914   -1.1929    6.6589 O   0  0  0  1  0  0  0  0  0  0  0  0
   -1.7692   -0.6161    5.7793 C   0  0  0  1  0  0  0  0  0  0  0  0
    3.7835   -0.5929    0.2394 N   0  0  0  1  0  0  0  0  0  0  0  0
    4.3911   -0.3466   -1.0714 C   0  0  0  1  0  0  0  0  0  0  0  0
    3.3190   -0.3973   -2.1767 C   0  0  0  1  0  0  0  0  0  0  0  0
    4.0920   -0.9669   -3.3632 C   0  0  0  1  0  0  0  0  0  0  0  0
    5.0114   -2.0254   -2.7796 C   0  0  0  1  0  0  0  0  0  0  0  0
    5.3881   -1.4447   -1.4067 C   0  0  0  1  0  0  0  0  0  0  0  0
    6.2230   -2.2116   -3.6329 N   0  0  0  1  0  0  0  0  0  0  0  0
    7.7577   -0.5673    2.0617 H   0  0  0  1  0  0  0  0  0  0  0  0
    7.5630   -0.8171    5.1625 H   0  0  0  1  0  0  0  0  0  0  0  0
    3.5463   -2.3969    6.8345 H   0  0  0  1  0  0  0  0  0  0  0  0
    1.2660   -2.5341    7.6515 H   0  0  0  1  0  0  0  0  0  0  0  0
    0.0605    0.2501    4.7489 H   0  0  0  1  0  0  0  0  0  0  0  0
    2.3371    0.3871    3.9332 H   0  0  0  1  0  0  0  0  0  0  0  0
   -1.5150    0.4044    5.5826 H   0  0  0  1  0  0  0  0  0  0  0  0
   -2.7338   -0.6606    6.2404 H   0  0  0  1  0  0  0  0  0  0  0  0
   -1.7875   -1.1625    4.8595 H   0  0  0  1  0  0  0  0  0  0  0  0
    2.8149   -0.7217    0.3151 H   0  0  0  1  0  0  0  0  0  0  0  0
    4.8759    0.6073   -1.0669 H   0  0  0  1  0  0  0  0  0  0  0  0
    2.5087   -1.0388   -1.8998 H   0  0  0  1  0  0  0  0  0  0  0  0
    2.9423    0.5802   -2.3945 H   0  0  0  1  0  0  0  0  0  0  0  0
    4.6629   -0.1982   -3.8408 H   0  0  0  1  0  0  0  0  0  0  0  0
    3.4200   -1.4049   -4.0713 H   0  0  0  1  0  0  0  0  0  0  0  0
    4.5018   -2.9602   -2.6741 H   0  0  0  1  0  0  0  0  0  0  0  0
    5.3452   -2.2133   -0.6634 H   0  0  0  1  0  0  0  0  0  0  0  0
    6.3772   -1.0382   -1.4434 H   0  0  0  1  0  0  0  0  0  0  0  0
    5.9632   -2.6187   -4.4856 H   0  0  0  1  0  0  0  0  0  0  0  0
    6.8598   -2.7971   -3.1723 H   0  0  0  1  0  0  0  0  0  0  0  0
  1  2  4  0  0  0  0
  1  6  4  0  0  0  0
  1 18  1  0  0  0  0
  2  3  4  0  0  0  0
  3  4  4  0  0  0  0
  3 25  1  0  0  0  0
  4  5  4  0  0  0  0
  4  7  4  0  0  0  0
  5  6  4  0  0  0  0
  5  9  4  0  0  0  0
  7  8  4  0  0  0  0
  7 26  1  0  0  0  0
  8  9  4  0  0  0  0
  9 10  1  0  0  0  0
 10 11  4  0  0  0  0
 10 15  4  0  0  0  0
 11 12  4  0  0  0  0
 11 27  1  0  0  0  0
 12 13  4  0  0  0  0
 12 28  1  0  0  0  0
 13 14  4  0  0  0  0
 13 16  1  0  0  0  0
 14 15  4  0  0  0  0
 14 29  1  0  0  0  0
 15 30  1  0  0  0  0
 16 17  1  0  0  0  0
 17 31  1  0  0  0  0
 17 32  1  0  0  0  0
 17 33  1  0  0  0  0
 18 19  1  0  0  0  0
 18 34  1  0  0  0  0
 19 20  1  0  0  0  0
 19 23  1  0  0  0  0
 19 35  1  0  0  0  0
 20 21  1  0  0  0  0
 20 36  1  0  0  0  0
 20 37  1  0  0  0  0
 21 22  1  0  0  0  0
 21 38  1  0  0  0  0
 21 39  1  0  0  0  0
 22 23  1  0  0  0  0
 22 24  1  0  0  0  0
 22 40  1  0  0  0  0
 23 41  1  0  0  0  0
 23 42  1  0  0  0  0
 24 43  1  0  0  0  0
 24 44  1  0  0  0  0
M  END
> <ConfClashScore>
0 

> <ConfOneFourInteractionScore>
-0.981848 

> <ConfScore>
-0.0469183 

> <ConfScorePBest>
0.00364655 

> <ConfTolerance>
0.306111 

$$$$
c22.sdf
 OpenBabel04162418103D

 44 47  0  0  0  0  0  0  0  0999 V2000
    4.9956    0.2881    1.1693 C   0  0  0  1  0  0  0  0  0  0  0  0
    4.3824    0.6512    2.3003 N   0  0  0  1  0  0  0  0  0  0  0  0
    5.1414    0.8542    3.3957 C   0  0  0  1  0  0  0  0  0  0  0  0
    6.5521    0.6780    3.2917 C   0  0  0  1  0  0  0  0  0  0  0  0
    7.0189    0.3036    2.0377 C   0  0  0  1  0  0  0  0  0  0  0  0
    6.2812    0.0857    0.9231 N   0  0  0  1  0  0  0  0  0  0  0  0
    7.7174    0.7739    4.0788 C   0  0  0  1  0  0  0  0  0  0  0  0
    8.7969    0.4831    3.3901 N   0  0  0  1  0  0  0  0  0  0  0  0
    8.3636    0.1921    2.1262 N   0  0  0  1  0  0  0  0  0  0  0  0
    9.2158   -0.1792    1.0461 C   0  0  0  1  0  0  0  0  0  0  0  0
   10.1041   -1.2276    1.1944 C   0  0  0  1  0  0  0  0  0  0  0  0
   10.9930   -1.5321    0.1753 C   0  0  0  1  0  0  0  0  0  0  0  0
   10.9948   -0.7840   -0.9869 C   0  0  0  1  0  0  0  0  0  0  0  0
   10.1038    0.2675   -1.1355 C   0  0  0  1  0  0  0  0  0  0  0  0
    9.2174    0.5712   -0.1194 C   0  0  0  1  0  0  0  0  0  0  0  0
   11.8668   -1.0783   -1.9803 O   0  0  0  1  0  0  0  0  0  0  0  0
   11.7402   -0.3388   -3.2050 C   0  0  0  1  0  0  0  0  0  0  0  0
    4.1795    0.0987    0.1169 N   0  0  0  1  0  0  0  0  0  0  0  0
    4.6453   -0.2808   -1.2207 C   0  0  0  1  0  0  0  0  0  0  0  0
    3.5124   -0.2129   -2.2484 C   0  0  0  1  0  0  0  0  0  0  0  0
    3.9303   -1.1729   -3.3734 C   0  0  0  1  0  0  0  0  0  0  0  0
    4.9767   -2.1145   -2.7662 C   0  0  0  1  0  0  0  0  0  0  0  0
    5.0210   -1.7669   -1.2834 C   0  0  0  1  0  0  0  0  0  0  0  0
    6.3018   -1.8895   -3.3914 N   0  0  0  1  0  0  0  0  0  0  0  0
    4.7067    1.1338    4.2982 H   0  0  0  1  0  0  0  0  0  0  0  0
    7.7217    1.0426    5.0835 H   0  0  0  1  0  0  0  0  0  0  0  0
   10.1056   -1.7880    2.0705 H   0  0  0  1  0  0  0  0  0  0  0  0
   11.6587   -2.3235    0.2852 H   0  0  0  1  0  0  0  0  0  0  0  0
   10.1023    0.8279   -2.0116 H   0  0  0  1  0  0  0  0  0  0  0  0
    8.5516    1.3626   -0.2293 H   0  0  0  1  0  0  0  0  0  0  0  0
   10.7341   -0.4091   -3.5623 H   0  0  0  1  0  0  0  0  0  0  0  0
   12.4074   -0.7441   -3.9367 H   0  0  0  1  0  0  0  0  0  0  0  0
   11.9848    0.6878   -3.0283 H   0  0  0  1  0  0  0  0  0  0  0  0
    3.2167    0.2217    0.2521 H   0  0  0  1  0  0  0  0  0  0  0  0
    5.4675    0.3431   -1.5030 H   0  0  0  1  0  0  0  0  0  0  0  0
    3.4069    0.7830   -2.6250 H   0  0  0  1  0  0  0  0  0  0  0  0
    2.5888   -0.5286   -1.8098 H   0  0  0  1  0  0  0  0  0  0  0  0
    4.3533   -0.6255   -4.1897 H   0  0  0  1  0  0  0  0  0  0  0  0
    3.0847   -1.7310   -3.7177 H   0  0  0  1  0  0  0  0  0  0  0  0
    4.6860   -3.1352   -2.9028 H   0  0  0  1  0  0  0  0  0  0  0  0
    4.3164   -2.3576   -0.7362 H   0  0  0  1  0  0  0  0  0  0  0  0
    6.0027   -1.9248   -0.8881 H   0  0  0  1  0  0  0  0  0  0  0  0
    6.2375   -2.0405   -4.3576 H   0  0  0  1  0  0  0  0  0  0  0  0
    6.9542   -2.5114   -3.0066 H   0  0  0  1  0  0  0  0  0  0  0  0
  1  2  4  0  0  0  0
  1  6  4  0  0  0  0
  1 18  1  0  0  0  0
  2  3  4  0  0  0  0
  3  4  4  0  0  0  0
  3 25  1  0  0  0  0
  4  5  4  0  0  0  0
  4  7  4  0  0  0  0
  5  6  4  0  0  0  0
  5  9  4  0  0  0  0
  7  8  4  0  0  0  0
  7 26  1  0  0  0  0
  8  9  4  0  0  0  0
  9 10  1  0  0  0  0
 10 11  4  0  0  0  0
 10 15  4  0  0  0  0
 11 12  4  0  0  0  0
 11 27  1  0  0  0  0
 12 13  4  0  0  0  0
 12 28  1  0  0  0  0
 13 14  4  0  0  0  0
 13 16  1  0  0  0  0
 14 15  4  0  0  0  0
 14 29  1  0  0  0  0
 15 30  1  0  0  0  0
 16 17  1  0  0  0  0
 17 31  1  0  0  0  0
 17 32  1  0  0  0  0
 17 33  1  0  0  0  0
 18 19  1  0  0  0  0
 18 34  1  0  0  0  0
 19 20  1  0  0  0  0
 19 23  1  0  0  0  0
 19 35  1  0  0  0  0
 20 21  1  0  0  0  0
 20 36  1  0  0  0  0
 20 37  1  0  0  0  0
 21 22  1  0  0  0  0
 21 38  1  0  0  0  0
 21 39  1  0  0  0  0
 22 23  1  0  0  0  0
 22 24  1  0  0  0  0
 22 40  1  0  0  0  0
 23 41  1  0  0  0  0
 23 42  1  0  0  0  0
 24 43  1  0  0  0  0
 24 44  1  0  0  0  0
M  END
> <ConfClashScore>
0 

> <ConfOneFourInteractionScore>
-0.984337 

> <ConfScore>
-0.0467724 

> <ConfScorePBest>
0.00363322 

> <ConfTolerance>
0.302526 

$$$$
c22.sdf
 OpenBabel04162418103D

 44 47  0  0  0  0  0  0  0  0999 V2000
    3.5844    0.1052    1.1789 C   0  0  0  1  0  0  0  0  0  0  0  0
    2.5560   -0.0958    2.0089 N   0  0  0  1  0  0  0  0  0  0  0  0
    2.6428    0.4038    3.2580 C   0  0  0  1  0  0  0  0  0  0  0  0
    3.8177    1.1219    3.6265 C   0  0  0  1  0  0  0  0  0  0  0  0
    4.7845    1.2392    2.6355 C   0  0  0  1  0  0  0  0  0  0  0  0
    4.7284    0.7427    1.3768 N   0  0  0  1  0  0  0  0  0  0  0  0
    4.3653    1.8133    4.7260 C   0  0  0  1  0  0  0  0  0  0  0  0
    5.5519    2.3042    4.4519 N   0  0  0  1  0  0  0  0  0  0  0  0
    5.8108    1.9484    3.1573 N   0  0  0  1  0  0  0  0  0  0  0  0
    6.9905    2.2773    2.4594 C   0  0  0  1  0  0  0  0  0  0  0  0
    8.2487    2.0525    2.9853 C   0  0  0  1  0  0  0  0  0  0  0  0
    9.3762    2.3904    2.2531 C   0  0  0  1  0  0  0  0  0  0  0  0
    9.2422    2.9569    0.9995 C   0  0  0  1  0  0  0  0  0  0  0  0
    7.9802    3.1822    0.4722 C   0  0  0  1  0  0  0  0  0  0  0  0
    6.8559    2.8454    1.2021 C   0  0  0  1  0  0  0  0  0  0  0  0
   10.2611    3.3297    0.2008 O   0  0  0  1  0  0  0  0  0  0  0  0
   11.5814    3.0581    0.7257 C   0  0  0  1  0  0  0  0  0  0  0  0
    3.4333   -0.4243   -0.0539 N   0  0  0  1  0  0  0  0  0  0  0  0
    4.4479   -0.3627   -1.0916 C   0  0  0  1  0  0  0  0  0  0  0  0
    3.8126   -0.0900   -2.4513 C   0  0  0  1  0  0  0  0  0  0  0  0
    3.7220   -1.4292   -3.1930 C   0  0  0  1  0  0  0  0  0  0  0  0
    5.0415   -2.1435   -2.7459 C   0  0  0  1  0  0  0  0  0  0  0  0
    5.1533   -1.7533   -1.2605 C   0  0  0  1  0  0  0  0  0  0  0  0
    6.2175   -1.6413   -3.5255 N   0  0  0  1  0  0  0  0  0  0  0  0
    1.8684    0.2681    3.9388 H   0  0  0  1  0  0  0  0  0  0  0  0
    3.8873    1.9215    5.6433 H   0  0  0  1  0  0  0  0  0  0  0  0
    8.3495    1.6300    3.9302 H   0  0  0  1  0  0  0  0  0  0  0  0
   10.3230    2.2176    2.6471 H   0  0  0  1  0  0  0  0  0  0  0  0
    7.8793    3.6047   -0.4727 H   0  0  0  1  0  0  0  0  0  0  0  0
    5.9090    3.0181    0.8081 H   0  0  0  1  0  0  0  0  0  0  0  0
   11.8804    2.0694    0.4465 H   0  0  0  1  0  0  0  0  0  0  0  0
   11.5640    3.1373    1.7927 H   0  0  0  1  0  0  0  0  0  0  0  0
   12.2764    3.7669    0.3263 H   0  0  0  1  0  0  0  0  0  0  0  0
    2.5891   -0.8770   -0.2609 H   0  0  0  1  0  0  0  0  0  0  0  0
    5.1617    0.3965   -0.8486 H   0  0  0  1  0  0  0  0  0  0  0  0
    2.8340    0.3227   -2.3213 H   0  0  0  1  0  0  0  0  0  0  0  0
    4.4183    0.5952   -3.0068 H   0  0  0  1  0  0  0  0  0  0  0  0
    3.6989   -1.2850   -4.2529 H   0  0  0  1  0  0  0  0  0  0  0  0
    2.8586   -1.9834   -2.8890 H   0  0  0  1  0  0  0  0  0  0  0  0
    4.9634   -3.2044   -2.8609 H   0  0  0  1  0  0  0  0  0  0  0  0
    4.6677   -2.4869   -0.6514 H   0  0  0  1  0  0  0  0  0  0  0  0
    6.1826   -1.6788   -0.9776 H   0  0  0  1  0  0  0  0  0  0  0  0
    6.0389   -1.7360   -4.4844 H   0  0  0  1  0  0  0  0  0  0  0  0
    7.0129   -2.1626   -3.2886 H   0  0  0  1  0  0  0  0  0  0  0  0
  1  2  4  0  0  0  0
  1  6  4  0  0  0  0
  1 18  1  0  0  0  0
  2  3  4  0  0  0  0
  3  4  4  0  0  0  0
  3 25  1  0  0  0  0
  4  5  4  0  0  0  0
  4  7  4  0  0  0  0
  5  6  4  0  0  0  0
  5  9  4  0  0  0  0
  7  8  4  0  0  0  0
  7 26  1  0  0  0  0
  8  9  4  0  0  0  0
  9 10  1  0  0  0  0
 10 11  4  0  0  0  0
 10 15  4  0  0  0  0
 11 12  4  0  0  0  0
 11 27  1  0  0  0  0
 12 13  4  0  0  0  0
 12 28  1  0  0  0  0
 13 14  4  0  0  0  0
 13 16  1  0  0  0  0
 14 15  4  0  0  0  0
 14 29  1  0  0  0  0
 15 30  1  0  0  0  0
 16 17  1  0  0  0  0
 17 31  1  0  0  0  0
 17 32  1  0  0  0  0
 17 33  1  0  0  0  0
 18 19  1  0  0  0  0
 18 34  1  0  0  0  0
 19 20  1  0  0  0  0
 19 23  1  0  0  0  0
 19 35  1  0  0  0  0
 20 21  1  0  0  0  0
 20 36  1  0  0  0  0
 20 37  1  0  0  0  0
 21 22  1  0  0  0  0
 21 38  1  0  0  0  0
 21 39  1  0  0  0  0
 22 23  1  0  0  0  0
 22 24  1  0  0  0  0
 22 40  1  0  0  0  0
 23 41  1  0  0  0  0
 23 42  1  0  0  0  0
 24 43  1  0  0  0  0
 24 44  1  0  0  0  0
M  END
> <ConfClashScore>
0 

> <ConfOneFourInteractionScore>
-0.984337 

> <ConfScore>
-0.0466996 

> <ConfScorePBest>
0.00361989 

> <ConfTolerance>
0.381068 

$$$$
c22.sdf
 OpenBabel04162418103D

 44 47  0  0  0  0  0  0  0  0999 V2000
    4.2486   -0.3907    1.4254 C   0  0  0  1  0  0  0  0  0  0  0  0
    5.2829    0.4551    1.3807 N   0  0  0  1  0  0  0  0  0  0  0  0
    5.8178    0.8643    2.5485 C   0  0  0  1  0  0  0  0  0  0  0  0
    5.2602    0.3727    3.7648 C   0  0  0  1  0  0  0  0  0  0  0  0
    4.1909   -0.5032    3.6236 C   0  0  0  1  0  0  0  0  0  0  0  0
    3.6286   -0.9258    2.4663 N   0  0  0  1  0  0  0  0  0  0  0  0
    5.4455    0.4686    5.1588 C   0  0  0  1  0  0  0  0  0  0  0  0
    4.5785   -0.2649    5.8180 N   0  0  0  1  0  0  0  0  0  0  0  0
    3.8021   -0.8665    4.8666 N   0  0  0  1  0  0  0  0  0  0  0  0
    2.7379   -1.7480    5.1448 C   0  0  0  1  0  0  0  0  0  0  0  0
    2.6677   -3.0176    4.6034 C   0  0  0  1  0  0  0  0  0  0  0  0
    1.6006   -3.8458    4.9150 C   0  0  0  1  0  0  0  0  0  0  0  0
    0.6042   -3.4000    5.7628 C   0  0  0  1  0  0  0  0  0  0  0  0
    0.6749   -2.1265    6.3058 C   0  0  0  1  0  0  0  0  0  0  0  0
    1.7387   -1.3007    5.9951 C   0  0  0  1  0  0  0  0  0  0  0  0
   -0.3880   -4.2933    5.9892 O   0  0  0  1  0  0  0  0  0  0  0  0
   -1.3636   -3.9517    6.9862 C   0  0  0  1  0  0  0  0  0  0  0  0
    3.7598   -0.7568    0.2212 N   0  0  0  1  0  0  0  0  0  0  0  0
    4.3663   -0.3765   -1.0555 C   0  0  0  1  0  0  0  0  0  0  0  0
    3.3239   -0.4368   -2.1771 C   0  0  0  1  0  0  0  0  0  0  0  0
    4.0951   -0.9375   -3.3873 C   0  0  0  1  0  0  0  0  0  0  0  0
    5.0145   -1.9932   -2.7637 C   0  0  0  1  0  0  0  0  0  0  0  0
    5.4677   -1.3740   -1.4386 C   0  0  0  1  0  0  0  0  0  0  0  0
    6.1715   -2.2572   -3.6375 N   0  0  0  1  0  0  0  0  0  0  0  0
    6.6208    1.5250    2.5617 H   0  0  0  1  0  0  0  0  0  0  0  0
    6.1800    1.0499    5.6106 H   0  0  0  1  0  0  0  0  0  0  0  0
    3.4153   -3.3517    3.9622 H   0  0  0  1  0  0  0  0  0  0  0  0
    1.5498   -4.8026    4.5107 H   0  0  0  1  0  0  0  0  0  0  0  0
   -0.0728   -1.7924    6.9469 H   0  0  0  1  0  0  0  0  0  0  0  0
    1.7896   -0.3438    6.3993 H   0  0  0  1  0  0  0  0  0  0  0  0
   -1.6151   -4.8235    7.5533 H   0  0  0  1  0  0  0  0  0  0  0  0
   -2.2425   -3.5711    6.5091 H   0  0  0  1  0  0  0  0  0  0  0  0
   -0.9602   -3.2060    7.6389 H   0  0  0  1  0  0  0  0  0  0  0  0
    2.9509   -1.3098    0.2008 H   0  0  0  1  0  0  0  0  0  0  0  0
    4.7711    0.6109   -0.9786 H   0  0  0  1  0  0  0  0  0  0  0  0
    2.5355   -1.1147   -1.9244 H   0  0  0  1  0  0  0  0  0  0  0  0
    2.9141    0.5336   -2.3649 H   0  0  0  1  0  0  0  0  0  0  0  0
    4.6594   -0.1500   -3.8416 H   0  0  0  1  0  0  0  0  0  0  0  0
    3.4401   -1.3722   -4.1131 H   0  0  0  1  0  0  0  0  0  0  0  0
    4.4812   -2.9048   -2.5921 H   0  0  0  1  0  0  0  0  0  0  0  0
    6.4030   -0.8692   -1.5622 H   0  0  0  1  0  0  0  0  0  0  0  0
    5.5661   -2.1294   -0.6872 H   0  0  0  1  0  0  0  0  0  0  0  0
    5.8725   -2.7292   -4.4426 H   0  0  0  1  0  0  0  0  0  0  0  0
    6.8233   -2.8101   -3.1580 H   0  0  0  1  0  0  0  0  0  0  0  0
  1  2  4  0  0  0  0
  1  6  4  0  0  0  0
  1 18  1  0  0  0  0
  2  3  4  0  0  0  0
  3  4  4  0  0  0  0
  3 25  1  0  0  0  0
  4  5  4  0  0  0  0
  4  7  4  0  0  0  0
  5  6  4  0  0  0  0
  5  9  4  0  0  0  0
  7  8  4  0  0  0  0
  7 26  1  0  0  0  0
  8  9  4  0  0  0  0
  9 10  1  0  0  0  0
 10 11  4  0  0  0  0
 10 15  4  0  0  0  0
 11 12  4  0  0  0  0
 11 27  1  0  0  0  0
 12 13  4  0  0  0  0
 12 28  1  0  0  0  0
 13 14  4  0  0  0  0
 13 16  1  0  0  0  0
 14 15  4  0  0  0  0
 14 29  1  0  0  0  0
 15 30  1  0  0  0  0
 16 17  1  0  0  0  0
 17 31  1  0  0  0  0
 17 32  1  0  0  0  0
 17 33  1  0  0  0  0
 18 19  1  0  0  0  0
 18 34  1  0  0  0  0
 19 20  1  0  0  0  0
 19 23  1  0  0  0  0
 19 35  1  0  0  0  0
 20 21  1  0  0  0  0
 20 36  1  0  0  0  0
 20 37  1  0  0  0  0
 21 22  1  0  0  0  0
 21 38  1  0  0  0  0
 21 39  1  0  0  0  0
 22 23  1  0  0  0  0
 22 24  1  0  0  0  0
 22 40  1  0  0  0  0
 23 41  1  0  0  0  0
 23 42  1  0  0  0  0
 24 43  1  0  0  0  0
 24 44  1  0  0  0  0
M  END
> <ConfClashScore>
0 

> <ConfOneFourInteractionScore>
-0.984337 

> <ConfScore>
-0.0466996 

> <ConfScorePBest>
0.00360656 

> <ConfTolerance>
0.32086 

$$$$
c22.sdf
 OpenBabel04162418103D

 44 47  0  0  0  0  0  0  0  0999 V2000
    3.9718   -0.8387    1.3460 C   0  0  0  1  0  0  0  0  0  0  0  0
    3.2151   -1.4957    2.2308 N   0  0  0  1  0  0  0  0  0  0  0  0
    3.5081   -1.3600    3.5396 C   0  0  0  1  0  0  0  0  0  0  0  0
    4.6004   -0.5233    3.9120 C   0  0  0  1  0  0  0  0  0  0  0  0
    5.2744    0.0865    2.8610 C   0  0  0  1  0  0  0  0  0  0  0  0
    5.0079   -0.0365    1.5389 N   0  0  0  1  0  0  0  0  0  0  0  0
    5.2679   -0.0608    5.0641 C   0  0  0  1  0  0  0  0  0  0  0  0
    6.2584    0.7469    4.7631 N   0  0  0  1  0  0  0  0  0  0  0  0
    6.2617    0.8377    3.3988 N   0  0  0  1  0  0  0  0  0  0  0  0
    7.1825    1.6196    2.6445 C   0  0  0  1  0  0  0  0  0  0  0  0
    6.7355    2.7292    1.9524 C   0  0  0  1  0  0  0  0  0  0  0  0
    7.6416    3.5488    1.2976 C   0  0  0  1  0  0  0  0  0  0  0  0
    8.9914    3.2535    1.3323 C   0  0  0  1  0  0  0  0  0  0  0  0
    9.4395    2.1405    2.0266 C   0  0  0  1  0  0  0  0  0  0  0  0
    8.5362    1.3232    2.6795 C   0  0  0  1  0  0  0  0  0  0  0  0
    9.8703    4.0946    0.7751 O   0  0  0  1  0  0  0  0  0  0  0  0
    9.4499    5.3727    0.1898 C   0  0  0  1  0  0  0  0  0  0  0  0
    3.6216   -1.0239    0.0377 N   0  0  0  1  0  0  0  0  0  0  0  0
    4.3697   -0.3978   -1.0556 C   0  0  0  1  0  0  0  0  0  0  0  0
    3.4503   -0.2024   -2.2940 C   0  0  0  1  0  0  0  0  0  0  0  0
    3.9867   -1.1362   -3.3933 C   0  0  0  1  0  0  0  0  0  0  0  0
    4.8896   -2.1604   -2.6791 C   0  0  0  1  0  0  0  0  0  0  0  0
    5.5377   -1.3327   -1.5179 C   0  0  0  1  0  0  0  0  0  0  0  0
    5.9172   -2.6782   -3.5903 N   0  0  0  1  0  0  0  0  0  0  0  0
    2.9488   -1.8557    4.2628 H   0  0  0  1  0  0  0  0  0  0  0  0
    5.0073   -0.3271    6.0351 H   0  0  0  1  0  0  0  0  0  0  0  0
    5.7195    2.9492    1.9228 H   0  0  0  1  0  0  0  0  0  0  0  0
    7.3057    4.3861    0.7801 H   0  0  0  1  0  0  0  0  0  0  0  0
   10.4555    1.9205    2.0562 H   0  0  0  1  0  0  0  0  0  0  0  0
    8.8721    0.4860    3.1970 H   0  0  0  1  0  0  0  0  0  0  0  0
    9.4580    5.2967   -0.8774 H   0  0  0  1  0  0  0  0  0  0  0  0
   10.1242    6.1445    0.4973 H   0  0  0  1  0  0  0  0  0  0  0  0
    8.4608    5.6090    0.5228 H   0  0  0  1  0  0  0  0  0  0  0  0
    2.8503   -1.5899   -0.1745 H   0  0  0  1  0  0  0  0  0  0  0  0
    4.7569    0.5449   -0.7295 H   0  0  0  1  0  0  0  0  0  0  0  0
    3.4870    0.8148   -2.6238 H   0  0  0  1  0  0  0  0  0  0  0  0
    2.4416   -0.4623   -2.0491 H   0  0  0  1  0  0  0  0  0  0  0  0
    4.5522   -0.5789   -4.1106 H   0  0  0  1  0  0  0  0  0  0  0  0
    3.1773   -1.6340   -3.8853 H   0  0  0  1  0  0  0  0  0  0  0  0
    4.3125   -2.9741   -2.2922 H   0  0  0  1  0  0  0  0  0  0  0  0
    6.3703   -0.7612   -1.8717 H   0  0  0  1  0  0  0  0  0  0  0  0
    5.8562   -1.9723   -0.7214 H   0  0  0  1  0  0  0  0  0  0  0  0
    6.5839   -3.1824   -3.0788 H   0  0  0  1  0  0  0  0  0  0  0  0
    6.3543   -1.9302   -4.0482 H   0  0  0  1  0  0  0  0  0  0  0  0
  1  2  4  0  0  0  0
  1  6  4  0  0  0  0
  1 18  1  0  0  0  0
  2  3  4  0  0  0  0
  3  4  4  0  0  0  0
  3 25  1  0  0  0  0
  4  5  4  0  0  0  0
  4  7  4  0  0  0  0
  5  6  4  0  0  0  0
  5  9  4  0  0  0  0
  7  8  4  0  0  0  0
  7 26  1  0  0  0  0
  8  9  4  0  0  0  0
  9 10  1  0  0  0  0
 10 11  4  0  0  0  0
 10 15  4  0  0  0  0
 11 12  4  0  0  0  0
 11 27  1  0  0  0  0
 12 13  4  0  0  0  0
 12 28  1  0  0  0  0
 13 14  4  0  0  0  0
 13 16  1  0  0  0  0
 14 15  4  0  0  0  0
 14 29  1  0  0  0  0
 15 30  1  0  0  0  0
 16 17  1  0  0  0  0
 17 31  1  0  0  0  0
 17 32  1  0  0  0  0
 17 33  1  0  0  0  0
 18 19  1  0  0  0  0
 18 34  1  0  0  0  0
 19 20  1  0  0  0  0
 19 23  1  0  0  0  0
 19 35  1  0  0  0  0
 20 21  1  0  0  0  0
 20 36  1  0  0  0  0
 20 37  1  0  0  0  0
 21 22  1  0  0  0  0
 21 38  1  0  0  0  0
 21 39  1  0  0  0  0
 22 23  1  0  0  0  0
 22 24  1  0  0  0  0
 22 40  1  0  0  0  0
 23 41  1  0  0  0  0
 23 42  1  0  0  0  0
 24 43  1  0  0  0  0
 24 44  1  0  0  0  0
M  END
> <ConfClashScore>
0 

> <ConfOneFourInteractionScore>
-0.984337 

> <ConfScore>
-0.0465807 

> <ConfScorePBest>
0.00359323 

> <ConfTolerance>
0.377491 

$$$$
c22.sdf
 OpenBabel04162418103D

 44 47  0  0  0  0  0  0  0  0999 V2000
    4.0687   -0.0698    1.2102 C   0  0  0  1  0  0  0  0  0  0  0  0
    5.3510   -0.3626    1.4491 N   0  0  0  1  0  0  0  0  0  0  0  0
    5.7728   -0.3638    2.7295 C   0  0  0  1  0  0  0  0  0  0  0  0
    4.8342   -0.0598    3.7583 C   0  0  0  1  0  0  0  0  0  0  0  0
    3.5418    0.2157    3.3289 C   0  0  0  1  0  0  0  0  0  0  0  0
    3.0914    0.2315    2.0518 N   0  0  0  1  0  0  0  0  0  0  0  0
    4.7621    0.0510    5.1616 C   0  0  0  1  0  0  0  0  0  0  0  0
    3.5536    0.3691    5.5647 N   0  0  0  1  0  0  0  0  0  0  0  0
    2.7985    0.4708    4.4293 N   0  0  0  1  0  0  0  0  0  0  0  0
    1.4150    0.8010    4.4085 C   0  0  0  1  0  0  0  0  0  0  0  0
    0.8889    1.5060    3.3425 C   0  0  0  1  0  0  0  0  0  0  0  0
   -0.4604    1.8230    3.3197 C   0  0  0  1  0  0  0  0  0  0  0  0
   -1.2785    1.4389    4.3654 C   0  0  0  1  0  0  0  0  0  0  0  0
   -0.7506    0.7318    5.4345 C   0  0  0  1  0  0  0  0  0  0  0  0
    0.5947    0.4156    5.4573 C   0  0  0  1  0  0  0  0  0  0  0  0
   -2.5747    1.8087    4.2354 O   0  0  0  1  0  0  0  0  0  0  0  0
   -3.5031    1.2984    5.2049 C   0  0  0  1  0  0  0  0  0  0  0  0
    3.7159   -0.0831   -0.0878 N   0  0  0  1  0  0  0  0  0  0  0  0
    4.6002   -0.3415   -1.2276 C   0  0  0  1  0  0  0  0  0  0  0  0
    3.8322   -0.1757   -2.5441 C   0  0  0  1  0  0  0  0  0  0  0  0
    3.7806   -1.5683   -3.1600 C   0  0  0  1  0  0  0  0  0  0  0  0
    5.0520   -2.2638   -2.6566 C   0  0  0  1  0  0  0  0  0  0  0  0
    5.0940   -1.7967   -1.1992 C   0  0  0  1  0  0  0  0  0  0  0  0
    6.2584   -1.8094   -3.4109 N   0  0  0  1  0  0  0  0  0  0  0  0
    6.7628   -0.5819    2.9619 H   0  0  0  1  0  0  0  0  0  0  0  0
    5.5686   -0.1008    5.8005 H   0  0  0  1  0  0  0  0  0  0  0  0
    1.5052    1.7986    2.5575 H   0  0  0  1  0  0  0  0  0  0  0  0
   -0.8571    2.3501    2.5157 H   0  0  0  1  0  0  0  0  0  0  0  0
   -1.3669    0.4392    6.2195 H   0  0  0  1  0  0  0  0  0  0  0  0
    0.9915   -0.1114    6.2613 H   0  0  0  1  0  0  0  0  0  0  0  0
   -4.4805    1.6829    5.0005 H   0  0  0  1  0  0  0  0  0  0  0  0
   -3.1983    1.6022    6.1846 H   0  0  0  1  0  0  0  0  0  0  0  0
   -3.5222    0.2299    5.1521 H   0  0  0  1  0  0  0  0  0  0  0  0
    2.7745    0.0980   -0.2914 H   0  0  0  1  0  0  0  0  0  0  0  0
    5.4306    0.3324   -1.1954 H   0  0  0  1  0  0  0  0  0  0  0  0
    2.8433    0.1879   -2.3573 H   0  0  0  1  0  0  0  0  0  0  0  0
    4.3452    0.5022   -3.1938 H   0  0  0  1  0  0  0  0  0  0  0  0
    3.7810   -1.5086   -4.2283 H   0  0  0  1  0  0  0  0  0  0  0  0
    2.9081   -2.0937   -2.8320 H   0  0  0  1  0  0  0  0  0  0  0  0
    4.9686   -3.3284   -2.7241 H   0  0  0  1  0  0  0  0  0  0  0  0
    4.4500   -2.3994   -0.5935 H   0  0  0  1  0  0  0  0  0  0  0  0
    6.0926   -1.8464   -0.8180 H   0  0  0  1  0  0  0  0  0  0  0  0
    6.3573   -0.8391   -3.3159 H   0  0  0  1  0  0  0  0  0  0  0  0
    6.1551   -2.0358   -4.3588 H   0  0  0  1  0  0  0  0  0  0  0  0
  1  2  4  0  0  0  0
  1  6  4  0  0  0  0
  1 18  1  0  0  0  0
  2  3  4  0  0  0  0
  3  4  4  0  0  0  0
  3 25  1  0  0  0  0
  4  5  4  0  0  0  0
  4  7  4  0  0  0  0
  5  6  4  0  0  0  0
  5  9  4  0  0  0  0
  7  8  4  0  0  0  0
  7 26  1  0  0  0  0
  8  9  4  0  0  0  0
  9 10  1  0  0  0  0
 10 11  4  0  0  0  0
 10 15  4  0  0  0  0
 11 12  4  0  0  0  0
 11 27  1  0  0  0  0
 12 13  4  0  0  0  0
 12 28  1  0  0  0  0
 13 14  4  0  0  0  0
 13 16  1  0  0  0  0
 14 15  4  0  0  0  0
 14 29  1  0  0  0  0
 15 30  1  0  0  0  0
 16 17  1  0  0  0  0
 17 31  1  0  0  0  0
 17 32  1  0  0  0  0
 17 33  1  0  0  0  0
 18 19  1  0  0  0  0
 18 34  1  0  0  0  0
 19 20  1  0  0  0  0
 19 23  1  0  0  0  0
 19 35  1  0  0  0  0
 20 21  1  0  0  0  0
 20 36  1  0  0  0  0
 20 37  1  0  0  0  0
 21 22  1  0  0  0  0
 21 38  1  0  0  0  0
 21 39  1  0  0  0  0
 22 23  1  0  0  0  0
 22 24  1  0  0  0  0
 22 40  1  0  0  0  0
 23 41  1  0  0  0  0
 23 42  1  0  0  0  0
 24 43  1  0  0  0  0
 24 44  1  0  0  0  0
M  END
> <ConfClashScore>
0 

> <ConfOneFourInteractionScore>
-0.984337 

> <ConfScore>
-0.0465677 

> <ConfScorePBest>
0.0035799 

> <ConfTolerance>
0.267832 

$$$$
c22.sdf
 OpenBabel04162418103D

 44 47  0  0  0  0  0  0  0  0999 V2000
    2.2248   -0.7792    0.4295 C   0  0  0  1  0  0  0  0  0  0  0  0
    2.2079    0.5567    0.4778 N   0  0  0  1  0  0  0  0  0  0  0  0
    1.2153    1.1533    1.1676 C   0  0  0  1  0  0  0  0  0  0  0  0
    0.2425    0.3342    1.8116 C   0  0  0  1  0  0  0  0  0  0  0  0
    0.4174   -1.0359    1.6606 C   0  0  0  1  0  0  0  0  0  0  0  0
    1.3987   -1.6628    0.9690 N   0  0  0  1  0  0  0  0  0  0  0  0
   -0.9088    0.4481    2.6166 C   0  0  0  1  0  0  0  0  0  0  0  0
   -1.4041   -0.7272    2.9291 N   0  0  0  1  0  0  0  0  0  0  0  0
   -0.5822   -1.6456    2.3369 N   0  0  0  1  0  0  0  0  0  0  0  0
   -0.7558   -3.0557    2.4211 C   0  0  0  1  0  0  0  0  0  0  0  0
   -0.2572   -3.8740    1.4251 C   0  0  0  1  0  0  0  0  0  0  0  0
   -0.4216   -5.2477    1.5099 C   0  0  0  1  0  0  0  0  0  0  0  0
   -1.0889   -5.7989    2.5876 C   0  0  0  1  0  0  0  0  0  0  0  0
   -1.5890   -4.9780    3.5864 C   0  0  0  1  0  0  0  0  0  0  0  0
   -1.4251   -3.6082    3.5020 C   0  0  0  1  0  0  0  0  0  0  0  0
   -1.1684   -7.1380    2.7117 O   0  0  0  1  0  0  0  0  0  0  0  0
   -0.6014   -7.8894    1.6134 C   0  0  0  1  0  0  0  0  0  0  0  0
    3.2430   -1.3107   -0.2803 N   0  0  0  1  0  0  0  0  0  0  0  0
    4.2498   -0.5151   -0.9833 C   0  0  0  1  0  0  0  0  0  0  0  0
    3.7324   -0.0306   -2.3439 C   0  0  0  1  0  0  0  0  0  0  0  0
    3.8362   -1.2489   -3.2529 C   0  0  0  1  0  0  0  0  0  0  0  0
    5.0079   -2.0694   -2.7011 C   0  0  0  1  0  0  0  0  0  0  0  0
    5.4470   -1.3718   -1.4039 C   0  0  0  1  0  0  0  0  0  0  0  0
    6.1231   -2.0906   -3.6751 N   0  0  0  1  0  0  0  0  0  0  0  0
    1.1602    2.1901    1.2287 H   0  0  0  1  0  0  0  0  0  0  0  0
   -1.3167    1.3534    2.9257 H   0  0  0  1  0  0  0  0  0  0  0  0
    0.2414   -3.4591    0.6122 H   0  0  0  1  0  0  0  0  0  0  0  0
   -0.0429   -5.8638    0.7625 H   0  0  0  1  0  0  0  0  0  0  0  0
   -2.0876   -5.3929    4.3993 H   0  0  0  1  0  0  0  0  0  0  0  0
   -1.8038   -2.9921    4.2494 H   0  0  0  1  0  0  0  0  0  0  0  0
    0.3181   -7.4357    1.3074 H   0  0  0  1  0  0  0  0  0  0  0  0
   -1.2875   -7.8932    0.7924 H   0  0  0  1  0  0  0  0  0  0  0  0
   -0.4152   -8.8950    1.9280 H   0  0  0  1  0  0  0  0  0  0  0  0
    3.3118   -2.2871   -0.3273 H   0  0  0  1  0  0  0  0  0  0  0  0
    4.5528    0.3043   -0.3654 H   0  0  0  1  0  0  0  0  0  0  0  0
    2.7167    0.2969   -2.2664 H   0  0  0  1  0  0  0  0  0  0  0  0
    4.3384    0.7695   -2.7148 H   0  0  0  1  0  0  0  0  0  0  0  0
    4.0317   -0.9482   -4.2610 H   0  0  0  1  0  0  0  0  0  0  0  0
    2.9314   -1.8191   -3.2194 H   0  0  0  1  0  0  0  0  0  0  0  0
    4.6943   -3.0715   -2.4952 H   0  0  0  1  0  0  0  0  0  0  0  0
    5.6751   -2.0943   -0.6483 H   0  0  0  1  0  0  0  0  0  0  0  0
    6.3046   -0.7569   -1.5806 H   0  0  0  1  0  0  0  0  0  0  0  0
    5.8654   -2.6239   -4.4558 H   0  0  0  1  0  0  0  0  0  0  0  0
    6.9152   -2.4871   -3.2558 H   0  0  0  1  0  0  0  0  0  0  0  0
  1  2  4  0  0  0  0
  1  6  4  0  0  0  0
  1 18  1  0  0  0  0
  2  3  4  0  0  0  0
  3  4  4  0  0  0  0
  3 25  1  0  0  0  0
  4  5  4  0  0  0  0
  4  7  4  0  0  0  0
  5  6  4  0  0  0  0
  5  9  4  0  0  0  0
  7  8  4  0  0  0  0
  7 26  1  0  0  0  0
  8  9  4  0  0  0  0
  9 10  1  0  0  0  0
 10 11  4  0  0  0  0
 10 15  4  0  0  0  0
 11 12  4  0  0  0  0
 11 27  1  0  0  0  0
 12 13  4  0  0  0  0
 12 28  1  0  0  0  0
 13 14  4  0  0  0  0
 13 16  1  0  0  0  0
 14 15  4  0  0  0  0
 14 29  1  0  0  0  0
 15 30  1  0  0  0  0
 16 17  1  0  0  0  0
 17 31  1  0  0  0  0
 17 32  1  0  0  0  0
 17 33  1  0  0  0  0
 18 19  1  0  0  0  0
 18 34  1  0  0  0  0
 19 20  1  0  0  0  0
 19 23  1  0  0  0  0
 19 35  1  0  0  0  0
 20 21  1  0  0  0  0
 20 36  1  0  0  0  0
 20 37  1  0  0  0  0
 21 22  1  0  0  0  0
 21 38  1  0  0  0  0
 21 39  1  0  0  0  0
 22 23  1  0  0  0  0
 22 24  1  0  0  0  0
 22 40  1  0  0  0  0
 23 41  1  0  0  0  0
 23 42  1  0  0  0  0
 24 43  1  0  0  0  0
 24 44  1  0  0  0  0
M  END
> <ConfClashScore>
7.09565e-05 

> <ConfOneFourInteractionScore>
-0.984337 

> <ConfScore>
-0.0454721 

> <ConfScorePBest>
0.00356658 

> <ConfTolerance>
0.287342 

$$$$
c22.sdf
 OpenBabel04162418103D

 44 47  0  0  0  0  0  0  0  0999 V2000
    4.8627    0.5920    0.9562 C   0  0  0  1  0  0  0  0  0  0  0  0
    6.1603    0.7089    0.6566 N   0  0  0  1  0  0  0  0  0  0  0  0
    6.9820    1.2284    1.5904 C   0  0  0  1  0  0  0  0  0  0  0  0
    6.4298    1.6195    2.8450 C   0  0  0  1  0  0  0  0  0  0  0  0
    5.0617    1.4220    2.9859 C   0  0  0  1  0  0  0  0  0  0  0  0
    4.2112    0.9100    2.0647 N   0  0  0  1  0  0  0  0  0  0  0  0
    6.8288    2.1638    4.0825 C   0  0  0  1  0  0  0  0  0  0  0  0
    5.8151    2.2982    4.9061 N   0  0  0  1  0  0  0  0  0  0  0  0
    4.7212    1.8384    4.2265 N   0  0  0  1  0  0  0  0  0  0  0  0
    3.4127    1.8034    4.7495 C   0  0  0  1  0  0  0  0  0  0  0  0
    3.1296    1.2916    6.0017 C   0  0  0  1  0  0  0  0  0  0  0  0
    1.8247    1.2865    6.4693 C   0  0  0  1  0  0  0  0  0  0  0  0
    0.8060    1.7882    5.6813 C   0  0  0  1  0  0  0  0  0  0  0  0
    1.0902    2.3014    4.4254 C   0  0  0  1  0  0  0  0  0  0  0  0
    2.3913    2.3066    3.9590 C   0  0  0  1  0  0  0  0  0  0  0  0
   -0.4193    1.7258    6.2378 O   0  0  0  1  0  0  0  0  0  0  0  0
   -1.4893    2.2593    5.4236 C   0  0  0  1  0  0  0  0  0  0  0  0
    4.0887    0.0625   -0.0345 N   0  0  0  1  0  0  0  0  0  0  0  0
    4.6592   -0.3216   -1.3471 C   0  0  0  1  0  0  0  0  0  0  0  0
    3.5829   -0.2688   -2.4347 C   0  0  0  1  0  0  0  0  0  0  0  0
    3.7027   -1.5588   -3.2316 C   0  0  0  1  0  0  0  0  0  0  0  0
    5.0184   -2.2079   -2.7766 C   0  0  0  1  0  0  0  0  0  0  0  0
    5.1402   -1.7831   -1.3177 C   0  0  0  1  0  0  0  0  0  0  0  0
    6.1544   -1.7046   -3.5678 N   0  0  0  1  0  0  0  0  0  0  0  0
    7.9981    1.3416    1.3994 H   0  0  0  1  0  0  0  0  0  0  0  0
    7.8077    2.4271    4.3150 H   0  0  0  1  0  0  0  0  0  0  0  0
    3.8955    0.9105    6.5931 H   0  0  0  1  0  0  0  0  0  0  0  0
    1.6121    0.9051    7.4133 H   0  0  0  1  0  0  0  0  0  0  0  0
    0.3243    2.6826    3.8340 H   0  0  0  1  0  0  0  0  0  0  0  0
    2.6039    2.6880    3.0151 H   0  0  0  1  0  0  0  0  0  0  0  0
   -1.3136    3.2986    5.2391 H   0  0  0  1  0  0  0  0  0  0  0  0
   -2.4207    2.1409    5.9368 H   0  0  0  1  0  0  0  0  0  0  0  0
   -1.5250    1.7332    4.4926 H   0  0  0  1  0  0  0  0  0  0  0  0
    3.1306   -0.0671    0.1260 H   0  0  0  1  0  0  0  0  0  0  0  0
    5.4691    0.3340   -1.5901 H   0  0  0  1  0  0  0  0  0  0  0  0
    3.7447    0.5749   -3.0726 H   0  0  0  1  0  0  0  0  0  0  0  0
    2.6123   -0.1992   -1.9896 H   0  0  0  1  0  0  0  0  0  0  0  0
    3.7339   -1.3479   -4.2801 H   0  0  0  1  0  0  0  0  0  0  0  0
    2.8760   -2.2049   -3.0217 H   0  0  0  1  0  0  0  0  0  0  0  0
    4.9682   -3.2734   -2.8615 H   0  0  0  1  0  0  0  0  0  0  0  0
    6.1537   -1.8485   -0.9808 H   0  0  0  1  0  0  0  0  0  0  0  0
    4.5153   -2.3819   -0.6886 H   0  0  0  1  0  0  0  0  0  0  0  0
    6.9682   -2.1898   -3.3171 H   0  0  0  1  0  0  0  0  0  0  0  0
    6.2770   -0.7484   -3.3912 H   0  0  0  1  0  0  0  0  0  0  0  0
  1  2  4  0  0  0  0
  1  6  4  0  0  0  0
  1 18  1  0  0  0  0
  2  3  4  0  0  0  0
  3  4  4  0  0  0  0
  3 25  1  0  0  0  0
  4  5  4  0  0  0  0
  4  7  4  0  0  0  0
  5  6  4  0  0  0  0
  5  9  4  0  0  0  0
  7  8  4  0  0  0  0
  7 26  1  0  0  0  0
  8  9  4  0  0  0  0
  9 10  1  0  0  0  0
 10 11  4  0  0  0  0
 10 15  4  0  0  0  0
 11 12  4  0  0  0  0
 11 27  1  0  0  0  0
 12 13  4  0  0  0  0
 12 28  1  0  0  0  0
 13 14  4  0  0  0  0
 13 16  1  0  0  0  0
 14 15  4  0  0  0  0
 14 29  1  0  0  0  0
 15 30  1  0  0  0  0
 16 17  1  0  0  0  0
 17 31  1  0  0  0  0
 17 32  1  0  0  0  0
 17 33  1  0  0  0  0
 18 19  1  0  0  0  0
 18 34  1  0  0  0  0
 19 20  1  0  0  0  0
 19 23  1  0  0  0  0
 19 35  1  0  0  0  0
 20 21  1  0  0  0  0
 20 36  1  0  0  0  0
 20 37  1  0  0  0  0
 21 22  1  0  0  0  0
 21 38  1  0  0  0  0
 21 39  1  0  0  0  0
 22 23  1  0  0  0  0
 22 24  1  0  0  0  0
 22 40  1  0  0  0  0
 23 41  1  0  0  0  0
 23 42  1  0  0  0  0
 24 43  1  0  0  0  0
 24 44  1  0  0  0  0
M  END
> <ConfClashScore>
0 

> <ConfOneFourInteractionScore>
-0.984337 

> <ConfScore>
-0.044767 

> <ConfScorePBest>
0.00355325 

> <ConfTolerance>
0.307802 

$$$$
c22.sdf
 OpenBabel04162418103D

 44 47  0  0  0  0  0  0  0  0999 V2000
    4.3161    1.5518    0.3000 C   0  0  0  1  0  0  0  0  0  0  0  0
    4.6562    2.3755   -0.6964 N   0  0  0  1  0  0  0  0  0  0  0  0
    4.6910    3.6987   -0.4409 C   0  0  0  1  0  0  0  0  0  0  0  0
    4.3707    4.1495    0.8729 C   0  0  0  1  0  0  0  0  0  0  0  0
    4.0447    3.1540    1.7858 C   0  0  0  1  0  0  0  0  0  0  0  0
    3.9944    1.8202    1.5565 N   0  0  0  1  0  0  0  0  0  0  0  0
    4.2786    5.3431    1.6170 C   0  0  0  1  0  0  0  0  0  0  0  0
    3.9255    5.1166    2.8612 N   0  0  0  1  0  0  0  0  0  0  0  0
    3.7810    3.7608    2.9651 N   0  0  0  1  0  0  0  0  0  0  0  0
    3.4056    3.0832    4.1486 C   0  0  0  1  0  0  0  0  0  0  0  0
    3.9799    1.8651    4.4591 C   0  0  0  1  0  0  0  0  0  0  0  0
    3.6159    1.2037    5.6217 C   0  0  0  1  0  0  0  0  0  0  0  0
    2.6749    1.7597    6.4676 C   0  0  0  1  0  0  0  0  0  0  0  0
    2.0990    2.9815    6.1560 C   0  0  0  1  0  0  0  0  0  0  0  0
    2.4618    3.6411    4.9968 C   0  0  0  1  0  0  0  0  0  0  0  0
    2.3962    1.0211    7.5679 O   0  0  0  1  0  0  0  0  0  0  0  0
    1.4666    1.5752    8.5120 C   0  0  0  1  0  0  0  0  0  0  0  0
    4.2975    0.2279   -0.0286 N   0  0  0  1  0  0  0  0  0  0  0  0
    4.6680   -0.2360   -1.3598 C   0  0  0  1  0  0  0  0  0  0  0  0
    3.4298   -0.3366   -2.2716 C   0  0  0  1  0  0  0  0  0  0  0  0
    3.7629   -1.4082   -3.3246 C   0  0  0  1  0  0  0  0  0  0  0  0
    4.9658   -2.2211   -2.7682 C   0  0  0  1  0  0  0  0  0  0  0  0
    5.2083   -1.7054   -1.3097 C   0  0  0  1  0  0  0  0  0  0  0  0
    6.1850   -1.9872   -3.6111 N   0  0  0  1  0  0  0  0  0  0  0  0
    4.9463    4.3767   -1.1870 H   0  0  0  1  0  0  0  0  0  0  0  0
    4.4675    6.2887    1.2276 H   0  0  0  1  0  0  0  0  0  0  0  0
    4.6850    1.4447    3.8206 H   0  0  0  1  0  0  0  0  0  0  0  0
    4.0510    0.2889    5.8574 H   0  0  0  1  0  0  0  0  0  0  0  0
    1.3938    3.4019    6.7944 H   0  0  0  1  0  0  0  0  0  0  0  0
    2.0268    4.5558    4.7610 H   0  0  0  1  0  0  0  0  0  0  0  0
    0.5240    1.7371    8.0322 H   0  0  0  1  0  0  0  0  0  0  0  0
    1.8441    2.5066    8.8793 H   0  0  0  1  0  0  0  0  0  0  0  0
    1.3390    0.8949    9.3279 H   0  0  0  1  0  0  0  0  0  0  0  0
    4.0282   -0.4281    0.6478 H   0  0  0  1  0  0  0  0  0  0  0  0
    5.3977    0.4252   -1.7783 H   0  0  0  1  0  0  0  0  0  0  0  0
    2.5722   -0.6291   -1.7025 H   0  0  0  1  0  0  0  0  0  0  0  0
    3.2402    0.6037   -2.7457 H   0  0  0  1  0  0  0  0  0  0  0  0
    4.0285   -0.9444   -4.2516 H   0  0  0  1  0  0  0  0  0  0  0  0
    2.9212   -2.0514   -3.4753 H   0  0  0  1  0  0  0  0  0  0  0  0
    4.7337   -3.2656   -2.7578 H   0  0  0  1  0  0  0  0  0  0  0  0
    4.6631   -2.2912   -0.5993 H   0  0  0  1  0  0  0  0  0  0  0  0
    6.2495   -1.7237   -1.0637 H   0  0  0  1  0  0  0  0  0  0  0  0
    6.9394   -2.4926   -3.2425 H   0  0  0  1  0  0  0  0  0  0  0  0
    6.4021   -1.0316   -3.6130 H   0  0  0  1  0  0  0  0  0  0  0  0
  1  2  4  0  0  0  0
  1  6  4  0  0  0  0
  1 18  1  0  0  0  0
  2  3  4  0  0  0  0
  3  4  4  0  0  0  0
  3 25  1  0  0  0  0
  4  5  4  0  0  0  0
  4  7  4  0  0  0  0
  5  6  4  0  0  0  0
  5  9  4  0  0  0  0
  7  8  4  0  0  0  0
  7 26  1  0  0  0  0
  8  9  4  0  0  0  0
  9 10  1  0  0  0  0
 10 11  4  0  0  0  0
 10 15  4  0  0  0  0
 11 12  4  0  0  0  0
 11 27  1  0  0  0  0
 12 13  4  0  0  0  0
 12 28  1  0  0  0  0
 13 14  4  0  0  0  0
 13 16  1  0  0  0  0
 14 15  4  0  0  0  0
 14 29  1  0  0  0  0
 15 30  1  0  0  0  0
 16 17  1  0  0  0  0
 17 31  1  0  0  0  0
 17 32  1  0  0  0  0
 17 33  1  0  0  0  0
 18 19  1  0  0  0  0
 18 34  1  0  0  0  0
 19 20  1  0  0  0  0
 19 23  1  0  0  0  0
 19 35  1  0  0  0  0
 20 21  1  0  0  0  0
 20 36  1  0  0  0  0
 20 37  1  0  0  0  0
 21 22  1  0  0  0  0
 21 38  1  0  0  0  0
 21 39  1  0  0  0  0
 22 23  1  0  0  0  0
 22 24  1  0  0  0  0
 22 40  1  0  0  0  0
 23 41  1  0  0  0  0
 23 42  1  0  0  0  0
 24 43  1  0  0  0  0
 24 44  1  0  0  0  0
M  END
> <ConfClashScore>
0 

> <ConfOneFourInteractionScore>
-0.984337 

> <ConfScore>
-0.0447399 

> <ConfScorePBest>
0.00353992 

> <ConfTolerance>
0.269729 

$$$$
c22.sdf
 OpenBabel04162418103D

 44 47  0  0  0  0  0  0  0  0999 V2000
    2.9359   -0.4319    0.9799 C   0  0  0  1  0  0  0  0  0  0  0  0
    2.4008   -1.2177    1.9197 N   0  0  0  1  0  0  0  0  0  0  0  0
    1.6322   -0.6414    2.8654 C   0  0  0  1  0  0  0  0  0  0  0  0
    1.4256    0.7680    2.8124 C   0  0  0  1  0  0  0  0  0  0  0  0
    2.0541    1.4274    1.7632 C   0  0  0  1  0  0  0  0  0  0  0  0
    2.8364    0.8771    0.8044 N   0  0  0  1  0  0  0  0  0  0  0  0
    0.7424    1.7901    3.5019 C   0  0  0  1  0  0  0  0  0  0  0  0
    0.9306    2.9644    2.9455 N   0  0  0  1  0  0  0  0  0  0  0  0
    1.7428    2.7390    1.8688 N   0  0  0  1  0  0  0  0  0  0  0  0
    2.2003    3.7516    0.9768 C   0  0  0  1  0  0  0  0  0  0  0  0
    2.2480    5.0691    1.3915 C   0  0  0  1  0  0  0  0  0  0  0  0
    2.6095    6.0644    0.4970 C   0  0  0  1  0  0  0  0  0  0  0  0
    2.9170    5.7401   -0.8109 C   0  0  0  1  0  0  0  0  0  0  0  0
    2.8691    4.4185   -1.2267 C   0  0  0  1  0  0  0  0  0  0  0  0
    2.5087    3.4260   -0.3349 C   0  0  0  1  0  0  0  0  0  0  0  0
    3.2721    6.6643   -1.7348 O   0  0  0  1  0  0  0  0  0  0  0  0
    3.8634    6.1823   -2.9515 C   0  0  0  1  0  0  0  0  0  0  0  0
    3.6938   -1.0704    0.0703 N   0  0  0  1  0  0  0  0  0  0  0  0
    4.3597   -0.4036   -1.0497 C   0  0  0  1  0  0  0  0  0  0  0  0
    3.3851   -0.2720   -2.2539 C   0  0  0  1  0  0  0  0  0  0  0  0
    3.9391   -1.1746   -3.3704 C   0  0  0  1  0  0  0  0  0  0  0  0
    4.9306   -2.1365   -2.6878 C   0  0  0  1  0  0  0  0  0  0  0  0
    5.5670   -1.2646   -1.5528 C   0  0  0  1  0  0  0  0  0  0  0  0
    5.9724   -2.5999   -3.6512 N   0  0  0  1  0  0  0  0  0  0  0  0
    1.1988   -1.2133    3.6182 H   0  0  0  1  0  0  0  0  0  0  0  0
    0.1597    1.6331    4.3489 H   0  0  0  1  0  0  0  0  0  0  0  0
    2.0128    5.3137    2.3745 H   0  0  0  1  0  0  0  0  0  0  0  0
    2.6493    7.0554    0.8100 H   0  0  0  1  0  0  0  0  0  0  0  0
    3.1043    4.1739   -2.2097 H   0  0  0  1  0  0  0  0  0  0  0  0
    2.4689    2.4350   -0.6479 H   0  0  0  1  0  0  0  0  0  0  0  0
    3.1258    5.6607   -3.5249 H   0  0  0  1  0  0  0  0  0  0  0  0
    4.6686    5.5176   -2.7176 H   0  0  0  1  0  0  0  0  0  0  0  0
    4.2364    7.0094   -3.5186 H   0  0  0  1  0  0  0  0  0  0  0  0
    3.8069   -2.0395    0.1631 H   0  0  0  1  0  0  0  0  0  0  0  0
    4.6980    0.5631   -0.7398 H   0  0  0  1  0  0  0  0  0  0  0  0
    2.4045   -0.5942   -1.9717 H   0  0  0  1  0  0  0  0  0  0  0  0
    3.3452    0.7441   -2.5868 H   0  0  0  1  0  0  0  0  0  0  0  0
    4.4416   -0.5857   -4.1090 H   0  0  0  1  0  0  0  0  0  0  0  0
    3.1455   -1.7246   -3.8314 H   0  0  0  1  0  0  0  0  0  0  0  0
    4.4207   -2.9835   -2.2784 H   0  0  0  1  0  0  0  0  0  0  0  0
    5.9542   -1.8794   -0.7673 H   0  0  0  1  0  0  0  0  0  0  0  0
    6.3481   -0.6431   -1.9379 H   0  0  0  1  0  0  0  0  0  0  0  0
    6.5863   -3.2150   -3.1983 H   0  0  0  1  0  0  0  0  0  0  0  0
    6.4731   -1.8273   -3.9871 H   0  0  0  1  0  0  0  0  0  0  0  0
  1  2  4  0  0  0  0
  1  6  4  0  0  0  0
  1 18  1  0  0  0  0
  2  3  4  0  0  0  0
  3  4  4  0  0  0  0
  3 25  1  0  0  0  0
  4  5  4  0  0  0  0
  4  7  4  0  0  0  0
  5  6  4  0  0  0  0
  5  9  4  0  0  0  0
  7  8  4  0  0  0  0
  7 26  1  0  0  0  0
  8  9  4  0  0  0  0
  9 10  1  0  0  0  0
 10 11  4  0  0  0  0
 10 15  4  0  0  0  0
 11 12  4  0  0  0  0
 11 27  1  0  0  0  0
 12 13  4  0  0  0  0
 12 28  1  0  0  0  0
 13 14  4  0  0  0  0
 13 16  1  0  0  0  0
 14 15  4  0  0  0  0
 14 29  1  0  0  0  0
 15 30  1  0  0  0  0
 16 17  1  0  0  0  0
 17 31  1  0  0  0  0
 17 32  1  0  0  0  0
 17 33  1  0  0  0  0
 18 19  1  0  0  0  0
 18 34  1  0  0  0  0
 19 20  1  0  0  0  0
 19 23  1  0  0  0  0
 19 35  1  0  0  0  0
 20 21  1  0  0  0  0
 20 36  1  0  0  0  0
 20 37  1  0  0  0  0
 21 22  1  0  0  0  0
 21 38  1  0  0  0  0
 21 39  1  0  0  0  0
 22 23  1  0  0  0  0
 22 24  1  0  0  0  0
 22 40  1  0  0  0  0
 23 41  1  0  0  0  0
 23 42  1  0  0  0  0
 24 43  1  0  0  0  0
 24 44  1  0  0  0  0
M  END
> <ConfClashScore>
0 

> <ConfOneFourInteractionScore>
-0.984337 

> <ConfScore>
-0.0447399 

> <ConfScorePBest>
0.00352659 

> <ConfTolerance>
0.390371 

$$$$
c22.sdf
 OpenBabel04162418103D

 44 47  0  0  0  0  0  0  0  0999 V2000
    2.5423   -0.5837    0.6965 C   0  0  0  1  0  0  0  0  0  0  0  0
    2.7586    0.7261    0.8538 N   0  0  0  1  0  0  0  0  0  0  0  0
    2.0216    1.3845    1.7707 C   0  0  0  1  0  0  0  0  0  0  0  0
    1.0583    0.6537    2.5255 C   0  0  0  1  0  0  0  0  0  0  0  0
    0.9707   -0.7020    2.2341 C   0  0  0  1  0  0  0  0  0  0  0  0
    1.6913   -1.3881    1.3154 N   0  0  0  1  0  0  0  0  0  0  0  0
    0.1074    0.8487    3.5476 C   0  0  0  1  0  0  0  0  0  0  0  0
   -0.5130   -0.2667    3.8562 N   0  0  0  1  0  0  0  0  0  0  0  0
    0.0222   -1.2265    3.0426 N   0  0  0  1  0  0  0  0  0  0  0  0
   -0.3674   -2.5962    3.0462 C   0  0  0  1  0  0  0  0  0  0  0  0
   -1.6303   -2.9542    3.4789 C   0  0  0  1  0  0  0  0  0  0  0  0
   -2.0114   -4.2869    3.4774 C   0  0  0  1  0  0  0  0  0  0  0  0
   -1.1268   -5.2583    3.0483 C   0  0  0  1  0  0  0  0  0  0  0  0
    0.1398   -4.8991    2.6143 C   0  0  0  1  0  0  0  0  0  0  0  0
    0.5199   -3.5703    2.6158 C   0  0  0  1  0  0  0  0  0  0  0  0
   -1.5590   -6.5414    3.0767 O   0  0  0  1  0  0  0  0  0  0  0  0
   -2.7479   -6.8166    3.8338 C   0  0  0  1  0  0  0  0  0  0  0  0
    3.3114   -1.1796   -0.2397 N   0  0  0  1  0  0  0  0  0  0  0  0
    4.2967   -0.4697   -1.0606 C   0  0  0  1  0  0  0  0  0  0  0  0
    3.7222   -0.1030   -2.4350 C   0  0  0  1  0  0  0  0  0  0  0  0
    3.7651   -1.4016   -3.2308 C   0  0  0  1  0  0  0  0  0  0  0  0
    4.9498   -2.1894   -2.6597 C   0  0  0  1  0  0  0  0  0  0  0  0
    5.4601   -1.3838   -1.4545 C   0  0  0  1  0  0  0  0  0  0  0  0
    6.0076   -2.3199   -3.6689 N   0  0  0  1  0  0  0  0  0  0  0  0
    2.1532    2.4046    1.9241 H   0  0  0  1  0  0  0  0  0  0  0  0
   -0.0802    1.7651    4.0022 H   0  0  0  1  0  0  0  0  0  0  0  0
   -2.2946   -2.2237    3.8056 H   0  0  0  1  0  0  0  0  0  0  0  0
   -2.9630   -4.5559    3.7992 H   0  0  0  1  0  0  0  0  0  0  0  0
    0.8041   -5.6296    2.2876 H   0  0  0  1  0  0  0  0  0  0  0  0
    1.4716   -3.3012    2.2940 H   0  0  0  1  0  0  0  0  0  0  0  0
   -2.8857   -7.8750    3.9102 H   0  0  0  1  0  0  0  0  0  0  0  0
   -3.5926   -6.3819    3.3415 H   0  0  0  1  0  0  0  0  0  0  0  0
   -2.6513   -6.3982    4.8138 H   0  0  0  1  0  0  0  0  0  0  0  0
    3.2046   -2.1438   -0.3785 H   0  0  0  1  0  0  0  0  0  0  0  0
    4.6404    0.3972   -0.5361 H   0  0  0  1  0  0  0  0  0  0  0  0
    4.3212    0.6481   -2.9061 H   0  0  0  1  0  0  0  0  0  0  0  0
    2.7161    0.2491   -2.3416 H   0  0  0  1  0  0  0  0  0  0  0  0
    3.9168   -1.1987   -4.2704 H   0  0  0  1  0  0  0  0  0  0  0  0
    2.8548   -1.9492   -3.1029 H   0  0  0  1  0  0  0  0  0  0  0  0
    4.6321   -3.1623   -2.3476 H   0  0  0  1  0  0  0  0  0  0  0  0
    6.3171   -0.8038   -1.7269 H   0  0  0  1  0  0  0  0  0  0  0  0
    5.7135   -2.0377   -0.6464 H   0  0  0  1  0  0  0  0  0  0  0  0
    6.7991   -2.7302   -3.2620 H   0  0  0  1  0  0  0  0  0  0  0  0
    6.2408   -1.4327   -4.0139 H   0  0  0  1  0  0  0  0  0  0  0  0
  1  2  4  0  0  0  0
  1  6  4  0  0  0  0
  1 18  1  0  0  0  0
  2  3  4  0  0  0  0
  3  4  4  0  0  0  0
  3 25  1  0  0  0  0
  4  5  4  0  0  0  0
  4  7  4  0  0  0  0
  5  6  4  0  0  0  0
  5  9  4  0  0  0  0
  7  8  4  0  0  0  0
  7 26  1  0  0  0  0
  8  9  4  0  0  0  0
  9 10  1  0  0  0  0
 10 11  4  0  0  0  0
 10 15  4  0  0  0  0
 11 12  4  0  0  0  0
 11 27  1  0  0  0  0
 12 13  4  0  0  0  0
 12 28  1  0  0  0  0
 13 14  4  0  0  0  0
 13 16  1  0  0  0  0
 14 15  4  0  0  0  0
 14 29  1  0  0  0  0
 15 30  1  0  0  0  0
 16 17  1  0  0  0  0
 17 31  1  0  0  0  0
 17 32  1  0  0  0  0
 17 33  1  0  0  0  0
 18 19  1  0  0  0  0
 18 34  1  0  0  0  0
 19 20  1  0  0  0  0
 19 23  1  0  0  0  0
 19 35  1  0  0  0  0
 20 21  1  0  0  0  0
 20 36  1  0  0  0  0
 20 37  1  0  0  0  0
 21 22  1  0  0  0  0
 21 38  1  0  0  0  0
 21 39  1  0  0  0  0
 22 23  1  0  0  0  0
 22 24  1  0  0  0  0
 22 40  1  0  0  0  0
 23 41  1  0  0  0  0
 23 42  1  0  0  0  0
 24 43  1  0  0  0  0
 24 44  1  0  0  0  0
M  END
> <ConfClashScore>
0 

> <ConfOneFourInteractionScore>
-0.984337 

> <ConfScore>
-0.0447399 

> <ConfScorePBest>
0.00351326 

> <ConfTolerance>
0.231179 

$$$$
c22.sdf
 OpenBabel04162418103D

 44 47  0  0  0  0  0  0  0  0999 V2000
    3.8105    1.0541    0.7569 C   0  0  0  1  0  0  0  0  0  0  0  0
    3.4962    0.9274    2.0501 N   0  0  0  1  0  0  0  0  0  0  0  0
    3.1784    2.0429    2.7372 C   0  0  0  1  0  0  0  0  0  0  0  0
    3.1881    3.2931    2.0525 C   0  0  0  1  0  0  0  0  0  0  0  0
    3.5340    3.2380    0.7080 C   0  0  0  1  0  0  0  0  0  0  0  0
    3.8644    2.1355   -0.0059 N   0  0  0  1  0  0  0  0  0  0  0  0
    2.9358    4.6597    2.2878 C   0  0  0  1  0  0  0  0  0  0  0  0
    3.1125    5.3820    1.2056 N   0  0  0  1  0  0  0  0  0  0  0  0
    3.4828    4.5009    0.2277 N   0  0  0  1  0  0  0  0  0  0  0  0
    3.7753    4.8647   -1.1163 C   0  0  0  1  0  0  0  0  0  0  0  0
    3.6064    3.9444   -2.1335 C   0  0  0  1  0  0  0  0  0  0  0  0
    3.8863    4.3005   -3.4436 C   0  0  0  1  0  0  0  0  0  0  0  0
    4.3392    5.5741   -3.7321 C   0  0  0  1  0  0  0  0  0  0  0  0
    4.5085    6.4970   -2.7117 C   0  0  0  1  0  0  0  0  0  0  0  0
    4.2295    6.1420   -1.4054 C   0  0  0  1  0  0  0  0  0  0  0  0
    4.6472    6.0309   -4.9615 O   0  0  0  1  0  0  0  0  0  0  0  0
    4.4853    5.0695   -6.0301 C   0  0  0  1  0  0  0  0  0  0  0  0
    4.1187   -0.0902    0.1363 N   0  0  0  1  0  0  0  0  0  0  0  0
    4.5043   -0.2415   -1.2695 C   0  0  0  1  0  0  0  0  0  0  0  0
    3.2731   -0.5172   -2.1369 C   0  0  0  1  0  0  0  0  0  0  0  0
    3.9063   -1.2189   -3.3453 C   0  0  0  1  0  0  0  0  0  0  0  0
    4.9525   -2.1508   -2.7467 C   0  0  0  1  0  0  0  0  0  0  0  0
    5.4088   -1.4707   -1.4506 C   0  0  0  1  0  0  0  0  0  0  0  0
    6.0990   -2.3141   -3.6801 N   0  0  0  1  0  0  0  0  0  0  0  0
    2.9312    1.9922    3.7461 H   0  0  0  1  0  0  0  0  0  0  0  0
    2.6448    5.0489    3.2073 H   0  0  0  1  0  0  0  0  0  0  0  0
    3.2694    2.9849   -1.9161 H   0  0  0  1  0  0  0  0  0  0  0  0
    3.7554    3.6093   -4.2096 H   0  0  0  1  0  0  0  0  0  0  0  0
    4.8455    7.4565   -2.9292 H   0  0  0  1  0  0  0  0  0  0  0  0
    4.3604    6.8332   -0.6394 H   0  0  0  1  0  0  0  0  0  0  0  0
    3.4441    4.8724   -6.1785 H   0  0  0  1  0  0  0  0  0  0  0  0
    4.9868    4.1606   -5.7709 H   0  0  0  1  0  0  0  0  0  0  0  0
    4.9052    5.4645   -6.9315 H   0  0  0  1  0  0  0  0  0  0  0  0
    4.0832   -0.9081    0.6750 H   0  0  0  1  0  0  0  0  0  0  0  0
    5.0050    0.6445   -1.5999 H   0  0  0  1  0  0  0  0  0  0  0  0
    2.5757   -1.1550   -1.6351 H   0  0  0  1  0  0  0  0  0  0  0  0
    2.7847    0.3908   -2.4231 H   0  0  0  1  0  0  0  0  0  0  0  0
    4.3654   -0.5058   -3.9978 H   0  0  0  1  0  0  0  0  0  0  0  0
    3.1703   -1.7760   -3.8864 H   0  0  0  1  0  0  0  0  0  0  0  0
    4.5242   -3.1085   -2.5361 H   0  0  0  1  0  0  0  0  0  0  0  0
    6.4323   -1.1693   -1.5306 H   0  0  0  1  0  0  0  0  0  0  0  0
    5.2969   -2.1386   -0.6222 H   0  0  0  1  0  0  0  0  0  0  0  0
    6.8147   -2.8141   -3.2349 H   0  0  0  1  0  0  0  0  0  0  0  0
    6.4330   -1.4316   -3.9445 H   0  0  0  1  0  0  0  0  0  0  0  0
  1  2  4  0  0  0  0
  1  6  4  0  0  0  0
  1 18  1  0  0  0  0
  2  3  4  0  0  0  0
  3  4  4  0  0  0  0
  3 25  1  0  0  0  0
  4  5  4  0  0  0  0
  4  7  4  0  0  0  0
  5  6  4  0  0  0  0
  5  9  4  0  0  0  0
  7  8  4  0  0  0  0
  7 26  1  0  0  0  0
  8  9  4  0  0  0  0
  9 10  1  0  0  0  0
 10 11  4  0  0  0  0
 10 15  4  0  0  0  0
 11 12  4  0  0  0  0
 11 27  1  0  0  0  0
 12 13  4  0  0  0  0
 12 28  1  0  0  0  0
 13 14  4  0  0  0  0
 13 16  1  0  0  0  0
 14 15  4  0  0  0  0
 14 29  1  0  0  0  0
 15 30  1  0  0  0  0
 16 17  1  0  0  0  0
 17 31  1  0  0  0  0
 17 32  1  0  0  0  0
 17 33  1  0  0  0  0
 18 19  1  0  0  0  0
 18 34  1  0  0  0  0
 19 20  1  0  0  0  0
 19 23  1  0  0  0  0
 19 35  1  0  0  0  0
 20 21  1  0  0  0  0
 20 36  1  0  0  0  0
 20 37  1  0  0  0  0
 21 22  1  0  0  0  0
 21 38  1  0  0  0  0
 21 39  1  0  0  0  0
 22 23  1  0  0  0  0
 22 24  1  0  0  0  0
 22 40  1  0  0  0  0
 23 41  1  0  0  0  0
 23 42  1  0  0  0  0
 24 43  1  0  0  0  0
 24 44  1  0  0  0  0
M  END
> <ConfClashScore>
0 

> <ConfOneFourInteractionScore>
-0.984337 

> <ConfScore>
-0.0447399 

> <ConfScorePBest>
0.00349994 

> <ConfTolerance>
0.310311 

$$$$
c22.sdf
 OpenBabel04162418103D

 44 47  0  0  0  0  0  0  0  0999 V2000
    5.0977    0.7577    0.8882 C   0  0  0  1  0  0  0  0  0  0  0  0
    6.3060    1.0878    0.4214 N   0  0  0  1  0  0  0  0  0  0  0  0
    7.1812    1.6568    1.2743 C   0  0  0  1  0  0  0  0  0  0  0  0
    6.7781    1.8713    2.6246 C   0  0  0  1  0  0  0  0  0  0  0  0
    5.4876    1.4623    2.9375 C   0  0  0  1  0  0  0  0  0  0  0  0
    4.5851    0.8955    2.1017 N   0  0  0  1  0  0  0  0  0  0  0  0
    7.2823    2.3801    3.8386 C   0  0  0  1  0  0  0  0  0  0  0  0
    6.3970    2.3030    4.8053 N   0  0  0  1  0  0  0  0  0  0  0  0
    5.2860    1.7344    4.2466 N   0  0  0  1  0  0  0  0  0  0  0  0
    4.0855    1.4665    4.9451 C   0  0  0  1  0  0  0  0  0  0  0  0
    3.4342    2.4847    5.6154 C   0  0  0  1  0  0  0  0  0  0  0  0
    2.2550    2.2233    6.2954 C   0  0  0  1  0  0  0  0  0  0  0  0
    1.7333    0.9435    6.3078 C   0  0  0  1  0  0  0  0  0  0  0  0
    2.3867   -0.0777    5.6355 C   0  0  0  1  0  0  0  0  0  0  0  0
    3.5625    0.1829    4.9574 C   0  0  0  1  0  0  0  0  0  0  0  0
    0.5881    0.8088    7.0045 O   0  0  0  1  0  0  0  0  0  0  0  0
    0.1258   -0.5524    7.1653 C   0  0  0  1  0  0  0  0  0  0  0  0
    4.2781    0.2011   -0.0106 N   0  0  0  1  0  0  0  0  0  0  0  0
    4.6394   -0.2449   -1.3600 C   0  0  0  1  0  0  0  0  0  0  0  0
    3.3831   -0.4303   -2.2328 C   0  0  0  1  0  0  0  0  0  0  0  0
    3.7537   -1.4813   -3.2939 C   0  0  0  1  0  0  0  0  0  0  0  0
    5.0242   -2.2111   -2.7737 C   0  0  0  1  0  0  0  0  0  0  0  0
    5.2769   -1.6752   -1.3242 C   0  0  0  1  0  0  0  0  0  0  0  0
    6.1868   -1.9034   -3.6454 N   0  0  0  1  0  0  0  0  0  0  0  0
    8.1311    1.9336    0.9538 H   0  0  0  1  0  0  0  0  0  0  0  0
    8.2396    2.7694    3.9546 H   0  0  0  1  0  0  0  0  0  0  0  0
    3.8288    3.4470    5.6095 H   0  0  0  1  0  0  0  0  0  0  0  0
    1.7627    2.9903    6.7964 H   0  0  0  1  0  0  0  0  0  0  0  0
    1.9921   -1.0399    5.6414 H   0  0  0  1  0  0  0  0  0  0  0  0
    4.0548   -0.5841    4.4564 H   0  0  0  1  0  0  0  0  0  0  0  0
   -0.9421   -0.5615    7.2317 H   0  0  0  1  0  0  0  0  0  0  0  0
    0.5421   -0.9669    8.0596 H   0  0  0  1  0  0  0  0  0  0  0  0
    0.4355   -1.1358    6.3234 H   0  0  0  1  0  0  0  0  0  0  0  0
    3.3439    0.0793    0.2593 H   0  0  0  1  0  0  0  0  0  0  0  0
    5.3107    0.4616   -1.8019 H   0  0  0  1  0  0  0  0  0  0  0  0
    2.5646   -0.7766   -1.6370 H   0  0  0  1  0  0  0  0  0  0  0  0
    3.1173    0.4938   -2.7023 H   0  0  0  1  0  0  0  0  0  0  0  0
    2.9521   -2.1792   -3.4175 H   0  0  0  1  0  0  0  0  0  0  0  0
    3.9594   -1.0044   -4.2294 H   0  0  0  1  0  0  0  0  0  0  0  0
    4.8621   -3.2685   -2.7545 H   0  0  0  1  0  0  0  0  0  0  0  0
    6.3241   -1.6239   -1.1106 H   0  0  0  1  0  0  0  0  0  0  0  0
    4.7938   -2.2931   -0.5965 H   0  0  0  1  0  0  0  0  0  0  0  0
    7.0123   -2.1939   -3.2043 H   0  0  0  1  0  0  0  0  0  0  0  0
    6.2262   -0.9379   -3.8084 H   0  0  0  1  0  0  0  0  0  0  0  0
  1  2  4  0  0  0  0
  1  6  4  0  0  0  0
  1 18  1  0  0  0  0
  2  3  4  0  0  0  0
  3  4  4  0  0  0  0
  3 25  1  0  0  0  0
  4  5  4  0  0  0  0
  4  7  4  0  0  0  0
  5  6  4  0  0  0  0
  5  9  4  0  0  0  0
  7  8  4  0  0  0  0
  7 26  1  0  0  0  0
  8  9  4  0  0  0  0
  9 10  1  0  0  0  0
 10 11  4  0  0  0  0
 10 15  4  0  0  0  0
 11 12  4  0  0  0  0
 11 27  1  0  0  0  0
 12 13  4  0  0  0  0
 12 28  1  0  0  0  0
 13 14  4  0  0  0  0
 13 16  1  0  0  0  0
 14 15  4  0  0  0  0
 14 29  1  0  0  0  0
 15 30  1  0  0  0  0
 16 17  1  0  0  0  0
 17 31  1  0  0  0  0
 17 32  1  0  0  0  0
 17 33  1  0  0  0  0
 18 19  1  0  0  0  0
 18 34  1  0  0  0  0
 19 20  1  0  0  0  0
 19 23  1  0  0  0  0
 19 35  1  0  0  0  0
 20 21  1  0  0  0  0
 20 36  1  0  0  0  0
 20 37  1  0  0  0  0
 21 22  1  0  0  0  0
 21 38  1  0  0  0  0
 21 39  1  0  0  0  0
 22 23  1  0  0  0  0
 22 24  1  0  0  0  0
 22 40  1  0  0  0  0
 23 41  1  0  0  0  0
 23 42  1  0  0  0  0
 24 43  1  0  0  0  0
 24 44  1  0  0  0  0
M  END
> <ConfClashScore>
0 

> <ConfOneFourInteractionScore>
-0.984337 

> <ConfScore>
-0.0437587 

> <ConfScorePBest>
0.00348661 

> <ConfTolerance>
0.262015 

$$$$
c22.sdf
 OpenBabel04162418103D

 44 47  0  0  0  0  0  0  0  0999 V2000
    4.2720    0.7983    1.0728 C   0  0  0  1  0  0  0  0  0  0  0  0
    5.3137    1.5573    0.7178 N   0  0  0  1  0  0  0  0  0  0  0  0
    5.7187    2.5174    1.5730 C   0  0  0  1  0  0  0  0  0  0  0  0
    5.0233    2.6702    2.8078 C   0  0  0  1  0  0  0  0  0  0  0  0
    3.9673    1.7911    3.0143 C   0  0  0  1  0  0  0  0  0  0  0  0
    3.5337    0.8232    2.1721 N   0  0  0  1  0  0  0  0  0  0  0  0
    5.0523    3.4551    3.9783 C   0  0  0  1  0  0  0  0  0  0  0  0
    4.1092    3.1068    4.8229 N   0  0  0  1  0  0  0  0  0  0  0  0
    3.4379    2.0762    4.2254 N   0  0  0  1  0  0  0  0  0  0  0  0
    2.3287    1.3941    4.8019 C   0  0  0  1  0  0  0  0  0  0  0  0
    2.4533    0.7973    6.0423 C   0  0  0  1  0  0  0  0  0  0  0  0
    1.3720    0.1379    6.6058 C   0  0  0  1  0  0  0  0  0  0  0  0
    0.1709    0.0725    5.9250 C   0  0  0  1  0  0  0  0  0  0  0  0
    0.0461    0.6711    4.6809 C   0  0  0  1  0  0  0  0  0  0  0  0
    1.1242    1.3286    4.1189 C   0  0  0  1  0  0  0  0  0  0  0  0
   -0.7786   -0.6072    6.6041 O   0  0  0  1  0  0  0  0  0  0  0  0
   -2.0130   -0.9629    5.9389 C   0  0  0  1  0  0  0  0  0  0  0  0
    3.9172   -0.1405    0.1695 N   0  0  0  1  0  0  0  0  0  0  0  0
    4.5025   -0.2485   -1.1677 C   0  0  0  1  0  0  0  0  0  0  0  0
    3.4221   -0.3998   -2.2243 C   0  0  0  1  0  0  0  0  0  0  0  0
    4.0827   -1.1450   -3.3810 C   0  0  0  1  0  0  0  0  0  0  0  0
    4.9749   -2.1692   -2.6539 C   0  0  0  1  0  0  0  0  0  0  0  0
    5.3166   -1.5450   -1.3101 C   0  0  0  1  0  0  0  0  0  0  0  0
    6.1895   -2.4178   -3.4207 N   0  0  0  1  0  0  0  0  0  0  0  0
    6.5221    3.1341    1.3366 H   0  0  0  1  0  0  0  0  0  0  0  0
    5.7377    4.2177    4.1519 H   0  0  0  1  0  0  0  0  0  0  0  0
    3.3582    0.8430    6.5528 H   0  0  0  1  0  0  0  0  0  0  0  0
    1.4645   -0.3077    7.5409 H   0  0  0  1  0  0  0  0  0  0  0  0
   -0.8588    0.6254    4.1703 H   0  0  0  1  0  0  0  0  0  0  0  0
    1.0317    1.7742    3.1838 H   0  0  0  1  0  0  0  0  0  0  0  0
   -1.8073   -1.6589    5.1526 H   0  0  0  1  0  0  0  0  0  0  0  0
   -2.4626   -0.0833    5.5278 H   0  0  0  1  0  0  0  0  0  0  0  0
   -2.6821   -1.4096    6.6444 H   0  0  0  1  0  0  0  0  0  0  0  0
    3.2270   -0.7878    0.4243 H   0  0  0  1  0  0  0  0  0  0  0  0
    5.1112    0.6099   -1.3616 H   0  0  0  1  0  0  0  0  0  0  0  0
    3.0778    0.5606   -2.5467 H   0  0  0  1  0  0  0  0  0  0  0  0
    2.5986   -0.9635   -1.8385 H   0  0  0  1  0  0  0  0  0  0  0  0
    4.6678   -0.4821   -3.9836 H   0  0  0  1  0  0  0  0  0  0  0  0
    3.3532   -1.6336   -3.9926 H   0  0  0  1  0  0  0  0  0  0  0  0
    4.4467   -3.0891   -2.5134 H   0  0  0  1  0  0  0  0  0  0  0  0
    6.3625   -1.3234   -1.2682 H   0  0  0  1  0  0  0  0  0  0  0  0
    5.0629   -2.2214   -0.5207 H   0  0  0  1  0  0  0  0  0  0  0  0
    6.6161   -1.5641   -3.6436 H   0  0  0  1  0  0  0  0  0  0  0  0
    5.9626   -2.8947   -4.2462 H   0  0  0  1  0  0  0  0  0  0  0  0
  1  2  4  0  0  0  0
  1  6  4  0  0  0  0
  1 18  1  0  0  0  0
  2  3  4  0  0  0  0
  3  4  4  0  0  0  0
  3 25  1  0  0  0  0
  4  5  4  0  0  0  0
  4  7  4  0  0  0  0
  5  6  4  0  0  0  0
  5  9  4  0  0  0  0
  7  8  4  0  0  0  0
  7 26  1  0  0  0  0
  8  9  4  0  0  0  0
  9 10  1  0  0  0  0
 10 11  4  0  0  0  0
 10 15  4  0  0  0  0
 11 12  4  0  0  0  0
 11 27  1  0  0  0  0
 12 13  4  0  0  0  0
 12 28  1  0  0  0  0
 13 14  4  0  0  0  0
 13 16  1  0  0  0  0
 14 15  4  0  0  0  0
 14 29  1  0  0  0  0
 15 30  1  0  0  0  0
 16 17  1  0  0  0  0
 17 31  1  0  0  0  0
 17 32  1  0  0  0  0
 17 33  1  0  0  0  0
 18 19  1  0  0  0  0
 18 34  1  0  0  0  0
 19 20  1  0  0  0  0
 19 23  1  0  0  0  0
 19 35  1  0  0  0  0
 20 21  1  0  0  0  0
 20 36  1  0  0  0  0
 20 37  1  0  0  0  0
 21 22  1  0  0  0  0
 21 38  1  0  0  0  0
 21 39  1  0  0  0  0
 22 23  1  0  0  0  0
 22 24  1  0  0  0  0
 22 40  1  0  0  0  0
 23 41  1  0  0  0  0
 23 42  1  0  0  0  0
 24 43  1  0  0  0  0
 24 44  1  0  0  0  0
M  END
> <ConfClashScore>
0 

> <ConfOneFourInteractionScore>
-0.984337 

> <ConfScore>
-0.0436419 

> <ConfScorePBest>
0.00347328 

> <ConfTolerance>
0.380958 

$$$$
c22.sdf
 OpenBabel04162418103D

 44 47  0  0  0  0  0  0  0  0999 V2000
    1.9929   -0.8510    0.0285 C   0  0  0  1  0  0  0  0  0  0  0  0
    1.7984    0.4491   -0.2144 N   0  0  0  1  0  0  0  0  0  0  0  0
    0.5888    0.9726    0.0687 C   0  0  0  1  0  0  0  0  0  0  0  0
   -0.4140    0.1194    0.6149 C   0  0  0  1  0  0  0  0  0  0  0  0
   -0.0363   -1.2039    0.8066 C   0  0  0  1  0  0  0  0  0  0  0  0
    1.1666   -1.7590    0.5254 N   0  0  0  1  0  0  0  0  0  0  0  0
   -1.7468    0.1671    1.0712 C   0  0  0  1  0  0  0  0  0  0  0  0
   -2.1594   -1.0048    1.4962 N   0  0  0  1  0  0  0  0  0  0  0  0
   -1.0996   -1.8532    1.3322 N   0  0  0  1  0  0  0  0  0  0  0  0
   -1.1139   -3.2358    1.6698 C   0  0  0  1  0  0  0  0  0  0  0  0
   -1.8707   -3.6784    2.7382 C   0  0  0  1  0  0  0  0  0  0  0  0
   -1.8887   -5.0256    3.0636 C   0  0  0  1  0  0  0  0  0  0  0  0
   -1.1458   -5.9257    2.3232 C   0  0  0  1  0  0  0  0  0  0  0  0
   -0.3867   -5.4816    1.2516 C   0  0  0  1  0  0  0  0  0  0  0  0
   -0.3686   -4.1382    0.9270 C   0  0  0  1  0  0  0  0  0  0  0  0
   -1.1593   -7.2343    2.6428 O   0  0  0  1  0  0  0  0  0  0  0  0
   -2.0520   -7.5913    3.7236 C   0  0  0  1  0  0  0  0  0  0  0  0
    3.2243   -1.3103   -0.2812 N   0  0  0  1  0  0  0  0  0  0  0  0
    4.2439   -0.5144   -0.9770 C   0  0  0  1  0  0  0  0  0  0  0  0
    3.7405   -0.0274   -2.3420 C   0  0  0  1  0  0  0  0  0  0  0  0
    3.8486   -1.2455   -3.2509 C   0  0  0  1  0  0  0  0  0  0  0  0
    5.0126   -2.0700   -2.6889 C   0  0  0  1  0  0  0  0  0  0  0  0
    5.4421   -1.3747   -1.3873 C   0  0  0  1  0  0  0  0  0  0  0  0
    6.1516   -2.0945   -3.6655 N   0  0  0  1  0  0  0  0  0  0  0  0
    0.3914    1.9783   -0.1077 H   0  0  0  1  0  0  0  0  0  0  0  0
   -2.3325    1.0264    1.0713 H   0  0  0  1  0  0  0  0  0  0  0  0
   -2.4266   -3.0006    3.2979 H   0  0  0  1  0  0  0  0  0  0  0  0
   -2.4614   -5.3593    3.8651 H   0  0  0  1  0  0  0  0  0  0  0  0
    0.1692   -6.1593    0.6919 H   0  0  0  1  0  0  0  0  0  0  0  0
    0.2040   -3.8045    0.1256 H   0  0  0  1  0  0  0  0  0  0  0  0
   -1.6597   -7.2214    4.6478 H   0  0  0  1  0  0  0  0  0  0  0  0
   -2.1412   -8.6564    3.7751 H   0  0  0  1  0  0  0  0  0  0  0  0
   -3.0153   -7.1603    3.5474 H   0  0  0  1  0  0  0  0  0  0  0  0
    3.4511   -2.2290   -0.0266 H   0  0  0  1  0  0  0  0  0  0  0  0
    4.5438    0.3036   -0.3559 H   0  0  0  1  0  0  0  0  0  0  0  0
    2.7252    0.3033   -2.2736 H   0  0  0  1  0  0  0  0  0  0  0  0
    4.3524    0.7710   -2.7068 H   0  0  0  1  0  0  0  0  0  0  0  0
    4.0543   -0.9448   -4.2569 H   0  0  0  1  0  0  0  0  0  0  0  0
    2.9417   -1.8128   -3.2260 H   0  0  0  1  0  0  0  0  0  0  0  0
    4.6940   -3.0713   -2.4866 H   0  0  0  1  0  0  0  0  0  0  0  0
    5.6609   -2.0984   -0.6301 H   0  0  0  1  0  0  0  0  0  0  0  0
    6.3032   -0.7624   -1.5558 H   0  0  0  1  0  0  0  0  0  0  0  0
    5.8463   -2.4769   -4.5146 H   0  0  0  1  0  0  0  0  0  0  0  0
    6.8798   -2.6418   -3.3041 H   0  0  0  1  0  0  0  0  0  0  0  0
  1  2  4  0  0  0  0
  1  6  4  0  0  0  0
  1 18  1  0  0  0  0
  2  3  4  0  0  0  0
  3  4  4  0  0  0  0
  3 25  1  0  0  0  0
  4  5  4  0  0  0  0
  4  7  4  0  0  0  0
  5  6  4  0  0  0  0
  5  9  4  0  0  0  0
  7  8  4  0  0  0  0
  7 26  1  0  0  0  0
  8  9  4  0  0  0  0
  9 10  1  0  0  0  0
 10 11  4  0  0  0  0
 10 15  4  0  0  0  0
 11 12  4  0  0  0  0
 11 27  1  0  0  0  0
 12 13  4  0  0  0  0
 12 28  1  0  0  0  0
 13 14  4  0  0  0  0
 13 16  1  0  0  0  0
 14 15  4  0  0  0  0
 14 29  1  0  0  0  0
 15 30  1  0  0  0  0
 16 17  1  0  0  0  0
 17 31  1  0  0  0  0
 17 32  1  0  0  0  0
 17 33  1  0  0  0  0
 18 19  1  0  0  0  0
 18 34  1  0  0  0  0
 19 20  1  0  0  0  0
 19 23  1  0  0  0  0
 19 35  1  0  0  0  0
 20 21  1  0  0  0  0
 20 36  1  0  0  0  0
 20 37  1  0  0  0  0
 21 22  1  0  0  0  0
 21 38  1  0  0  0  0
 21 39  1  0  0  0  0
 22 23  1  0  0  0  0
 22 24  1  0  0  0  0
 22 40  1  0  0  0  0
 23 41  1  0  0  0  0
 23 42  1  0  0  0  0
 24 43  1  0  0  0  0
 24 44  1  0  0  0  0
M  END
> <ConfClashScore>
0 

> <ConfOneFourInteractionScore>
-0.985399 

> <ConfScore>
-0.0435206 

> <ConfScorePBest>
0.00345995 

> <ConfTolerance>
0.278104 

$$$$
c22.sdf
 OpenBabel04162418103D

 44 47  0  0  0  0  0  0  0  0999 V2000
    2.9050    0.8085    0.3022 C   0  0  0  1  0  0  0  0  0  0  0  0
    2.8825    1.7584   -0.6382 N   0  0  0  1  0  0  0  0  0  0  0  0
    2.0971    2.8347   -0.4331 C   0  0  0  1  0  0  0  0  0  0  0  0
    1.3389    2.9076    0.7717 C   0  0  0  1  0  0  0  0  0  0  0  0
    1.4875    1.8329    1.6398 C   0  0  0  1  0  0  0  0  0  0  0  0
    2.2619    0.7369    1.4578 N   0  0  0  1  0  0  0  0  0  0  0  0
    0.4374    3.7644    1.4350 C   0  0  0  1  0  0  0  0  0  0  0  0
    0.0581    3.2727    2.5919 N   0  0  0  1  0  0  0  0  0  0  0  0
    0.7088    2.0767    2.7181 N   0  0  0  1  0  0  0  0  0  0  0  0
    0.5832    1.2040    3.8365 C   0  0  0  1  0  0  0  0  0  0  0  0
    0.2304    1.7114    5.0726 C   0  0  0  1  0  0  0  0  0  0  0  0
    0.1029    0.8611    6.1599 C   0  0  0  1  0  0  0  0  0  0  0  0
    0.3339   -0.4932    6.0092 C   0  0  0  1  0  0  0  0  0  0  0  0
    0.6878   -1.0020    4.7692 C   0  0  0  1  0  0  0  0  0  0  0  0
    0.8149   -0.1543    3.6850 C   0  0  0  1  0  0  0  0  0  0  0  0
    0.2454   -1.4167    6.9957 O   0  0  0  1  0  0  0  0  0  0  0  0
   -0.0093   -0.9351    8.3245 C   0  0  0  1  0  0  0  0  0  0  0  0
    3.7134   -0.2478    0.0301 N   0  0  0  1  0  0  0  0  0  0  0  0
    4.5467   -0.3500   -1.1689 C   0  0  0  1  0  0  0  0  0  0  0  0
    3.6918   -0.1615   -2.4276 C   0  0  0  1  0  0  0  0  0  0  0  0
    3.7195   -1.5080   -3.1401 C   0  0  0  1  0  0  0  0  0  0  0  0
    5.0714   -2.1236   -2.7565 C   0  0  0  1  0  0  0  0  0  0  0  0
    5.1599   -1.7554   -1.2730 C   0  0  0  1  0  0  0  0  0  0  0  0
    6.1779   -1.5223   -3.5296 N   0  0  0  1  0  0  0  0  0  0  0  0
    2.0454    3.5962   -1.1395 H   0  0  0  1  0  0  0  0  0  0  0  0
    0.1121    4.6758    1.0541 H   0  0  0  1  0  0  0  0  0  0  0  0
    0.0605    2.7310    5.1871 H   0  0  0  1  0  0  0  0  0  0  0  0
   -0.1666    1.2423    7.0893 H   0  0  0  1  0  0  0  0  0  0  0  0
    0.8577   -2.0216    4.6548 H   0  0  0  1  0  0  0  0  0  0  0  0
    1.0844   -0.5354    2.7556 H   0  0  0  1  0  0  0  0  0  0  0  0
   -0.8750   -0.3064    8.3167 H   0  0  0  1  0  0  0  0  0  0  0  0
    0.8350   -0.3749    8.6685 H   0  0  0  1  0  0  0  0  0  0  0  0
   -0.1776   -1.7652    8.9783 H   0  0  0  1  0  0  0  0  0  0  0  0
    3.7406   -0.9855    0.6746 H   0  0  0  1  0  0  0  0  0  0  0  0
    5.3190    0.3896   -1.1312 H   0  0  0  1  0  0  0  0  0  0  0  0
    2.6889    0.1014   -2.1630 H   0  0  0  1  0  0  0  0  0  0  0  0
    4.1081    0.6011   -3.0521 H   0  0  0  1  0  0  0  0  0  0  0  0
    3.6524   -1.3754   -4.1998 H   0  0  0  1  0  0  0  0  0  0  0  0
    2.9141   -2.1282   -2.8061 H   0  0  0  1  0  0  0  0  0  0  0  0
    5.0724   -3.1843   -2.8972 H   0  0  0  1  0  0  0  0  0  0  0  0
    6.1797   -1.7444   -0.9496 H   0  0  0  1  0  0  0  0  0  0  0  0
    4.6045   -2.4517   -0.6800 H   0  0  0  1  0  0  0  0  0  0  0  0
    6.0218   -1.6620   -4.4869 H   0  0  0  1  0  0  0  0  0  0  0  0
    7.0236   -1.9449   -3.2717 H   0  0  0  1  0  0  0  0  0  0  0  0
  1  2  4  0  0  0  0
  1  6  4  0  0  0  0
  1 18  1  0  0  0  0
  2  3  4  0  0  0  0
  3  4  4  0  0  0  0
  3 25  1  0  0  0  0
  4  5  4  0  0  0  0
  4  7  4  0  0  0  0
  5  6  4  0  0  0  0
  5  9  4  0  0  0  0
  7  8  4  0  0  0  0
  7 26  1  0  0  0  0
  8  9  4  0  0  0  0
  9 10  1  0  0  0  0
 10 11  4  0  0  0  0
 10 15  4  0  0  0  0
 11 12  4  0  0  0  0
 11 27  1  0  0  0  0
 12 13  4  0  0  0  0
 12 28  1  0  0  0  0
 13 14  4  0  0  0  0
 13 16  1  0  0  0  0
 14 15  4  0  0  0  0
 14 29  1  0  0  0  0
 15 30  1  0  0  0  0
 16 17  1  0  0  0  0
 17 31  1  0  0  0  0
 17 32  1  0  0  0  0
 17 33  1  0  0  0  0
 18 19  1  0  0  0  0
 18 34  1  0  0  0  0
 19 20  1  0  0  0  0
 19 23  1  0  0  0  0
 19 35  1  0  0  0  0
 20 21  1  0  0  0  0
 20 36  1  0  0  0  0
 20 37  1  0  0  0  0
 21 22  1  0  0  0  0
 21 38  1  0  0  0  0
 21 39  1  0  0  0  0
 22 23  1  0  0  0  0
 22 24  1  0  0  0  0
 22 40  1  0  0  0  0
 23 41  1  0  0  0  0
 23 42  1  0  0  0  0
 24 43  1  0  0  0  0
 24 44  1  0  0  0  0
M  END
> <ConfClashScore>
0 

> <ConfOneFourInteractionScore>
-0.985399 

> <ConfScore>
-0.0435206 

> <ConfScorePBest>
0.00344662 

> <ConfTolerance>
0.291986 

$$$$
c22.sdf
 OpenBabel04162418103D

 44 47  0  0  0  0  0  0  0  0999 V2000
    2.3494   -0.9344    0.6003 C   0  0  0  1  0  0  0  0  0  0  0  0
    1.9755    0.3024    0.2575 N   0  0  0  1  0  0  0  0  0  0  0  0
    0.9084    0.8382    0.8832 C   0  0  0  1  0  0  0  0  0  0  0  0
    0.2400    0.0654    1.8770 C   0  0  0  1  0  0  0  0  0  0  0  0
    0.7679   -1.1988    2.1093 C   0  0  0  1  0  0  0  0  0  0  0  0
    1.8320   -1.7655    1.4924 N   0  0  0  1  0  0  0  0  0  0  0  0
   -0.8410    0.1581    2.7768 C   0  0  0  1  0  0  0  0  0  0  0  0
   -0.9775   -0.9357    3.4901 N   0  0  0  1  0  0  0  0  0  0  0  0
    0.0192   -1.7755    3.0764 N   0  0  0  1  0  0  0  0  0  0  0  0
    0.2379   -3.0745    3.5915 C   0  0  0  1  0  0  0  0  0  0  0  0
    0.8622   -4.0305    2.8128 C   0  0  0  1  0  0  0  0  0  0  0  0
    1.0813   -5.3020    3.3195 C   0  0  0  1  0  0  0  0  0  0  0  0
    0.6709   -5.6153    4.6016 C   0  0  0  1  0  0  0  0  0  0  0  0
    0.0448   -4.6563    5.3826 C   0  0  0  1  0  0  0  0  0  0  0  0
   -0.1738   -3.3885    4.8774 C   0  0  0  1  0  0  0  0  0  0  0  0
    0.8501   -6.8388    5.1538 O   0  0  0  1  0  0  0  0  0  0  0  0
    0.1185   -7.1303    6.3547 C   0  0  0  1  0  0  0  0  0  0  0  0
    3.4331   -1.4158   -0.0741 N   0  0  0  1  0  0  0  0  0  0  0  0
    4.2294   -0.5616   -0.9659 C   0  0  0  1  0  0  0  0  0  0  0  0
    3.4373   -0.2253   -2.2347 C   0  0  0  1  0  0  0  0  0  0  0  0
    4.1728   -0.9142   -3.3951 C   0  0  0  1  0  0  0  0  0  0  0  0
    5.0257   -2.0039   -2.7398 C   0  0  0  1  0  0  0  0  0  0  0  0
    5.4692   -1.3043   -1.4484 C   0  0  0  1  0  0  0  0  0  0  0  0
    6.1853   -2.3653   -3.5854 N   0  0  0  1  0  0  0  0  0  0  0  0
    0.5797    1.7959    0.6457 H   0  0  0  1  0  0  0  0  0  0  0  0
   -1.4561    0.9921    2.8649 H   0  0  0  1  0  0  0  0  0  0  0  0
    1.1674   -3.7960    1.8466 H   0  0  0  1  0  0  0  0  0  0  0  0
    1.5546   -6.0202    2.7350 H   0  0  0  1  0  0  0  0  0  0  0  0
   -0.2604   -4.8908    6.3487 H   0  0  0  1  0  0  0  0  0  0  0  0
   -0.6471   -2.6702    5.4619 H   0  0  0  1  0  0  0  0  0  0  0  0
   -0.8994   -6.8222    6.2365 H   0  0  0  1  0  0  0  0  0  0  0  0
    0.5573   -6.6034    7.1761 H   0  0  0  1  0  0  0  0  0  0  0  0
    0.1524   -8.1825    6.5462 H   0  0  0  1  0  0  0  0  0  0  0  0
    3.6871   -2.3555    0.0392 H   0  0  0  1  0  0  0  0  0  0  0  0
    4.5067    0.3335   -0.4494 H   0  0  0  1  0  0  0  0  0  0  0  0
    2.4371   -0.5973   -2.1568 H   0  0  0  1  0  0  0  0  0  0  0  0
    3.4137    0.8335   -2.3873 H   0  0  0  1  0  0  0  0  0  0  0  0
    3.4726   -1.3465   -4.0789 H   0  0  0  1  0  0  0  0  0  0  0  0
    4.7933   -0.2139   -3.9142 H   0  0  0  1  0  0  0  0  0  0  0  0
    4.4484   -2.8804   -2.5317 H   0  0  0  1  0  0  0  0  0  0  0  0
    6.2668   -0.6188   -1.6455 H   0  0  0  1  0  0  0  0  0  0  0  0
    5.7864   -2.0216   -0.7206 H   0  0  0  1  0  0  0  0  0  0  0  0
    5.8677   -2.7150   -4.4440 H   0  0  0  1  0  0  0  0  0  0  0  0
    6.7194   -3.0502   -3.1314 H   0  0  0  1  0  0  0  0  0  0  0  0
  1  2  4  0  0  0  0
  1  6  4  0  0  0  0
  1 18  1  0  0  0  0
  2  3  4  0  0  0  0
  3  4  4  0  0  0  0
  3 25  1  0  0  0  0
  4  5  4  0  0  0  0
  4  7  4  0  0  0  0
  5  6  4  0  0  0  0
  5  9  4  0  0  0  0
  7  8  4  0  0  0  0
  7 26  1  0  0  0  0
  8  9  4  0  0  0  0
  9 10  1  0  0  0  0
 10 11  4  0  0  0  0
 10 15  4  0  0  0  0
 11 12  4  0  0  0  0
 11 27  1  0  0  0  0
 12 13  4  0  0  0  0
 12 28  1  0  0  0  0
 13 14  4  0  0  0  0
 13 16  1  0  0  0  0
 14 15  4  0  0  0  0
 14 29  1  0  0  0  0
 15 30  1  0  0  0  0
 16 17  1  0  0  0  0
 17 31  1  0  0  0  0
 17 32  1  0  0  0  0
 17 33  1  0  0  0  0
 18 19  1  0  0  0  0
 18 34  1  0  0  0  0
 19 20  1  0  0  0  0
 19 23  1  0  0  0  0
 19 35  1  0  0  0  0
 20 21  1  0  0  0  0
 20 36  1  0  0  0  0
 20 37  1  0  0  0  0
 21 22  1  0  0  0  0
 21 38  1  0  0  0  0
 21 39  1  0  0  0  0
 22 23  1  0  0  0  0
 22 24  1  0  0  0  0
 22 40  1  0  0  0  0
 23 41  1  0  0  0  0
 23 42  1  0  0  0  0
 24 43  1  0  0  0  0
 24 44  1  0  0  0  0
M  END
> <ConfClashScore>
0 

> <ConfOneFourInteractionScore>
-0.981848 

> <ConfScore>
-0.0435206 

> <ConfScorePBest>
0.00343329 

> <ConfTolerance>
0.360622 

$$$$
c22.sdf
 OpenBabel04162418103D

 44 47  0  0  0  0  0  0  0  0999 V2000
    2.7522    0.1219    0.7869 C   0  0  0  1  0  0  0  0  0  0  0  0
    2.1627   -0.3291    1.8988 N   0  0  0  1  0  0  0  0  0  0  0  0
    1.2788    0.4777    2.5194 C   0  0  0  1  0  0  0  0  0  0  0  0
    1.0149    1.7614    1.9587 C   0  0  0  1  0  0  0  0  0  0  0  0
    1.7137    2.0635    0.7964 C   0  0  0  1  0  0  0  0  0  0  0  0
    2.6114    1.2776    0.1554 N   0  0  0  1  0  0  0  0  0  0  0  0
    0.2211    2.9030    2.1902 C   0  0  0  1  0  0  0  0  0  0  0  0
    0.4102    3.8231    1.2727 N   0  0  0  1  0  0  0  0  0  0  0  0
    1.3345    3.3025    0.4099 N   0  0  0  1  0  0  0  0  0  0  0  0
    1.8282    3.9712   -0.7346 C   0  0  0  1  0  0  0  0  0  0  0  0
    1.0334    4.7910   -1.5133 C   0  0  0  1  0  0  0  0  0  0  0  0
    1.5703    5.4266   -2.6220 C   0  0  0  1  0  0  0  0  0  0  0  0
    2.8990    5.2364   -2.9518 C   0  0  0  1  0  0  0  0  0  0  0  0
    3.6960    4.4141   -2.1707 C   0  0  0  1  0  0  0  0  0  0  0  0
    3.1608    3.7803   -1.0652 C   0  0  0  1  0  0  0  0  0  0  0  0
    3.5308    5.7980   -4.0098 O   0  0  0  1  0  0  0  0  0  0  0  0
    2.7352    6.5933   -4.9026 C   0  0  0  1  0  0  0  0  0  0  0  0
    3.6370   -0.7434    0.2131 N   0  0  0  1  0  0  0  0  0  0  0  0
    4.3224   -0.4239   -1.0402 C   0  0  0  1  0  0  0  0  0  0  0  0
    3.3171   -0.3914   -2.2072 C   0  0  0  1  0  0  0  0  0  0  0  0
    4.1536   -0.8956   -3.3801 C   0  0  0  1  0  0  0  0  0  0  0  0
    5.0271   -2.0004   -2.8119 C   0  0  0  1  0  0  0  0  0  0  0  0
    5.3272   -1.5118   -1.3854 C   0  0  0  1  0  0  0  0  0  0  0  0
    6.2852   -2.1486   -3.6030 N   0  0  0  1  0  0  0  0  0  0  0  0
    0.7993    0.1699    3.3894 H   0  0  0  1  0  0  0  0  0  0  0  0
   -0.4349    3.0042    2.9907 H   0  0  0  1  0  0  0  0  0  0  0  0
    0.0326    4.9310   -1.2675 H   0  0  0  1  0  0  0  0  0  0  0  0
    0.9733    6.0467   -3.2056 H   0  0  0  1  0  0  0  0  0  0  0  0
    4.6968    4.2741   -2.4164 H   0  0  0  1  0  0  0  0  0  0  0  0
    3.7577    3.1602   -0.4815 H   0  0  0  1  0  0  0  0  0  0  0  0
    2.2701    7.3868   -4.3559 H   0  0  0  1  0  0  0  0  0  0  0  0
    1.9817    5.9799   -5.3509 H   0  0  0  1  0  0  0  0  0  0  0  0
    3.3611    7.0057   -5.6663 H   0  0  0  1  0  0  0  0  0  0  0  0
    3.8184   -1.6011    0.6512 H   0  0  0  1  0  0  0  0  0  0  0  0
    4.8149    0.5214   -0.9470 H   0  0  0  1  0  0  0  0  0  0  0  0
    2.4859   -1.0385   -2.0192 H   0  0  0  1  0  0  0  0  0  0  0  0
    2.9630    0.6026   -2.3844 H   0  0  0  1  0  0  0  0  0  0  0  0
    3.5206   -1.2798   -4.1526 H   0  0  0  1  0  0  0  0  0  0  0  0
    4.7589   -0.1061   -3.7740 H   0  0  0  1  0  0  0  0  0  0  0  0
    4.5034   -2.9334   -2.7957 H   0  0  0  1  0  0  0  0  0  0  0  0
    5.2333   -2.3247   -0.6960 H   0  0  0  1  0  0  0  0  0  0  0  0
    6.3205   -1.1166   -1.3385 H   0  0  0  1  0  0  0  0  0  0  0  0
    6.0807   -2.5593   -4.4689 H   0  0  0  1  0  0  0  0  0  0  0  0
    6.9143   -2.7176   -3.1122 H   0  0  0  1  0  0  0  0  0  0  0  0
  1  2  4  0  0  0  0
  1  6  4  0  0  0  0
  1 18  1  0  0  0  0
  2  3  4  0  0  0  0
  3  4  4  0  0  0  0
  3 25  1  0  0  0  0
  4  5  4  0  0  0  0
  4  7  4  0  0  0  0
  5  6  4  0  0  0  0
  5  9  4  0  0  0  0
  7  8  4  0  0  0  0
  7 26  1  0  0  0  0
  8  9  4  0  0  0  0
  9 10  1  0  0  0  0
 10 11  4  0  0  0  0
 10 15  4  0  0  0  0
 11 12  4  0  0  0  0
 11 27  1  0  0  0  0
 12 13  4  0  0  0  0
 12 28  1  0  0  0  0
 13 14  4  0  0  0  0
 13 16  1  0  0  0  0
 14 15  4  0  0  0  0
 14 29  1  0  0  0  0
 15 30  1  0  0  0  0
 16 17  1  0  0  0  0
 17 31  1  0  0  0  0
 17 32  1  0  0  0  0
 17 33  1  0  0  0  0
 18 19  1  0  0  0  0
 18 34  1  0  0  0  0
 19 20  1  0  0  0  0
 19 23  1  0  0  0  0
 19 35  1  0  0  0  0
 20 21  1  0  0  0  0
 20 36  1  0  0  0  0
 20 37  1  0  0  0  0
 21 22  1  0  0  0  0
 21 38  1  0  0  0  0
 21 39  1  0  0  0  0
 22 23  1  0  0  0  0
 22 24  1  0  0  0  0
 22 40  1  0  0  0  0
 23 41  1  0  0  0  0
 23 42  1  0  0  0  0
 24 43  1  0  0  0  0
 24 44  1  0  0  0  0
M  END
> <ConfClashScore>
0 

> <ConfOneFourInteractionScore>
-0.981848 

> <ConfScore>
-0.0435206 

> <ConfScorePBest>
0.00341997 

> <ConfTolerance>
0.382347 

$$$$
c22.sdf
 OpenBabel04162418103D

 44 47  0  0  0  0  0  0  0  0999 V2000
    4.9537    0.0643    1.1149 C   0  0  0  1  0  0  0  0  0  0  0  0
    6.0893   -0.6326    1.0057 N   0  0  0  1  0  0  0  0  0  0  0  0
    6.8253   -0.8234    2.1188 C   0  0  0  1  0  0  0  0  0  0  0  0
    6.3552   -0.2803    3.3501 C   0  0  0  1  0  0  0  0  0  0  0  0
    5.1524    0.4116    3.2801 C   0  0  0  1  0  0  0  0  0  0  0  0
    4.3959    0.6252    2.1773 N   0  0  0  1  0  0  0  0  0  0  0  0
    6.7130   -0.2128    4.7118 C   0  0  0  1  0  0  0  0  0  0  0  0
    5.8299    0.4568    5.4159 N   0  0  0  1  0  0  0  0  0  0  0  0
    4.8636    0.8430    4.5287 N   0  0  0  1  0  0  0  0  0  0  0  0
    3.7071    1.5989    4.8738 C   0  0  0  1  0  0  0  0  0  0  0  0
    3.4563    2.8039    4.2450 C   0  0  0  1  0  0  0  0  0  0  0  0
    2.3278    3.5371    4.5772 C   0  0  0  1  0  0  0  0  0  0  0  0
    1.4562    3.0659    5.5408 C   0  0  0  1  0  0  0  0  0  0  0  0
    1.7079    1.8573    6.1714 C   0  0  0  1  0  0  0  0  0  0  0  0
    2.8331    1.1261    5.8403 C   0  0  0  1  0  0  0  0  0  0  0  0
    0.4268    3.8629    5.9136 O   0  0  0  1  0  0  0  0  0  0  0  0
   -0.4188    3.3898    6.9736 C   0  0  0  1  0  0  0  0  0  0  0  0
    4.2746    0.2193   -0.0271 N   0  0  0  1  0  0  0  0  0  0  0  0
    4.6810   -0.2487   -1.3464 C   0  0  0  1  0  0  0  0  0  0  0  0
    3.4852   -0.2607   -2.3182 C   0  0  0  1  0  0  0  0  0  0  0  0
    3.8039   -1.3366   -3.3714 C   0  0  0  1  0  0  0  0  0  0  0  0
    4.9263   -2.2293   -2.7710 C   0  0  0  1  0  0  0  0  0  0  0  0
    5.1279   -1.7490   -1.2943 C   0  0  0  1  0  0  0  0  0  0  0  0
    6.1929   -2.0602   -3.5476 N   0  0  0  1  0  0  0  0  0  0  0  0
    7.7177   -1.3560    2.0801 H   0  0  0  1  0  0  0  0  0  0  0  0
    7.5726   -0.6415    5.1106 H   0  0  0  1  0  0  0  0  0  0  0  0
    4.1142    3.1605    3.5228 H   0  0  0  1  0  0  0  0  0  0  0  0
    2.1369    4.4418    4.1012 H   0  0  0  1  0  0  0  0  0  0  0  0
    1.0500    1.5007    6.8936 H   0  0  0  1  0  0  0  0  0  0  0  0
    3.0241    0.2214    6.3162 H   0  0  0  1  0  0  0  0  0  0  0  0
   -0.8965    2.4815    6.6710 H   0  0  0  1  0  0  0  0  0  0  0  0
   -1.1622    4.1276    7.1927 H   0  0  0  1  0  0  0  0  0  0  0  0
    0.1722    3.2080    7.8469 H   0  0  0  1  0  0  0  0  0  0  0  0
    3.4193    0.6944    0.0288 H   0  0  0  1  0  0  0  0  0  0  0  0
    5.4693    0.3720   -1.7183 H   0  0  0  1  0  0  0  0  0  0  0  0
    3.3767    0.6958   -2.7854 H   0  0  0  1  0  0  0  0  0  0  0  0
    2.5846   -0.5074   -1.7959 H   0  0  0  1  0  0  0  0  0  0  0  0
    4.1423   -0.8776   -4.2767 H   0  0  0  1  0  0  0  0  0  0  0  0
    2.9330   -1.9247   -3.5729 H   0  0  0  1  0  0  0  0  0  0  0  0
    4.6310   -3.2576   -2.7889 H   0  0  0  1  0  0  0  0  0  0  0  0
    4.5139   -2.3096   -0.6207 H   0  0  0  1  0  0  0  0  0  0  0  0
    6.1527   -1.8347   -0.9989 H   0  0  0  1  0  0  0  0  0  0  0  0
    6.8897   -2.6338   -3.1658 H   0  0  0  1  0  0  0  0  0  0  0  0
    6.4802   -1.1243   -3.5037 H   0  0  0  1  0  0  0  0  0  0  0  0
  1  2  4  0  0  0  0
  1  6  4  0  0  0  0
  1 18  1  0  0  0  0
  2  3  4  0  0  0  0
  3  4  4  0  0  0  0
  3 25  1  0  0  0  0
  4  5  4  0  0  0  0
  4  7  4  0  0  0  0
  5  6  4  0  0  0  0
  5  9  4  0  0  0  0
  7  8  4  0  0  0  0
  7 26  1  0  0  0  0
  8  9  4  0  0  0  0
  9 10  1  0  0  0  0
 10 11  4  0  0  0  0
 10 15  4  0  0  0  0
 11 12  4  0  0  0  0
 11 27  1  0  0  0  0
 12 13  4  0  0  0  0
 12 28  1  0  0  0  0
 13 14  4  0  0  0  0
 13 16  1  0  0  0  0
 14 15  4  0  0  0  0
 14 29  1  0  0  0  0
 15 30  1  0  0  0  0
 16 17  1  0  0  0  0
 17 31  1  0  0  0  0
 17 32  1  0  0  0  0
 17 33  1  0  0  0  0
 18 19  1  0  0  0  0
 18 34  1  0  0  0  0
 19 20  1  0  0  0  0
 19 23  1  0  0  0  0
 19 35  1  0  0  0  0
 20 21  1  0  0  0  0
 20 36  1  0  0  0  0
 20 37  1  0  0  0  0
 21 22  1  0  0  0  0
 21 38  1  0  0  0  0
 21 39  1  0  0  0  0
 22 23  1  0  0  0  0
 22 24  1  0  0  0  0
 22 40  1  0  0  0  0
 23 41  1  0  0  0  0
 23 42  1  0  0  0  0
 24 43  1  0  0  0  0
 24 44  1  0  0  0  0
M  END
> <ConfClashScore>
0 

> <ConfOneFourInteractionScore>
-0.985399 

> <ConfScore>
-0.0429332 

> <ConfScorePBest>
0.00340664 

> <ConfTolerance>
0.310655 

$$$$
c22.sdf
 OpenBabel04162418103D

 44 47  0  0  0  0  0  0  0  0999 V2000
    3.1820    0.5480    0.7764 C   0  0  0  1  0  0  0  0  0  0  0  0
    2.7912    1.5445   -0.0245 N   0  0  0  1  0  0  0  0  0  0  0  0
    1.9848    2.4934    0.4918 C   0  0  0  1  0  0  0  0  0  0  0  0
    1.5964    2.3898    1.8594 C   0  0  0  1  0  0  0  0  0  0  0  0
    2.1003    1.2910    2.5445 C   0  0  0  1  0  0  0  0  0  0  0  0
    2.9049    0.3196    2.0513 N   0  0  0  1  0  0  0  0  0  0  0  0
    0.8331    3.0773    2.8246 C   0  0  0  1  0  0  0  0  0  0  0  0
    0.8531    2.4678    3.9874 N   0  0  0  1  0  0  0  0  0  0  0  0
    1.6381    1.3618    3.8132 N   0  0  0  1  0  0  0  0  0  0  0  0
    1.9280    0.4174    4.8256 C   0  0  0  1  0  0  0  0  0  0  0  0
    1.5639   -0.9056    4.6611 C   0  0  0  1  0  0  0  0  0  0  0  0
    1.8528   -1.8321    5.6509 C   0  0  0  1  0  0  0  0  0  0  0  0
    2.5002   -1.4318    6.8046 C   0  0  0  1  0  0  0  0  0  0  0  0
    2.8653   -0.1048    6.9694 C   0  0  0  1  0  0  0  0  0  0  0  0
    2.5773    0.8191    5.9826 C   0  0  0  1  0  0  0  0  0  0  0  0
    2.6875   -2.2680    7.8532 O   0  0  0  1  0  0  0  0  0  0  0  0
    3.4804   -1.7811    8.9472 C   0  0  0  1  0  0  0  0  0  0  0  0
    3.9858   -0.3701    0.1940 N   0  0  0  1  0  0  0  0  0  0  0  0
    4.4586   -0.2813   -1.1913 C   0  0  0  1  0  0  0  0  0  0  0  0
    3.2852   -0.4729   -2.1711 C   0  0  0  1  0  0  0  0  0  0  0  0
    3.9493   -1.1777   -3.3509 C   0  0  0  1  0  0  0  0  0  0  0  0
    4.9404   -2.1515   -2.7378 C   0  0  0  1  0  0  0  0  0  0  0  0
    5.4382   -1.4057   -1.4888 C   0  0  0  1  0  0  0  0  0  0  0  0
    6.0657   -2.4323   -3.6773 N   0  0  0  1  0  0  0  0  0  0  0  0
    1.6528    3.2848   -0.0956 H   0  0  0  1  0  0  0  0  0  0  0  0
    0.3167    3.9605    2.6382 H   0  0  0  1  0  0  0  0  0  0  0  0
    1.0732   -1.2061    3.7947 H   0  0  0  1  0  0  0  0  0  0  0  0
    1.5824   -2.8284    5.5254 H   0  0  0  1  0  0  0  0  0  0  0  0
    3.3560    0.1957    7.8357 H   0  0  0  1  0  0  0  0  0  0  0  0
    2.8477    1.8154    6.1080 H   0  0  0  1  0  0  0  0  0  0  0  0
    4.5108   -1.7587    8.6594 H   0  0  0  1  0  0  0  0  0  0  0  0
    3.3599   -2.4285    9.7905 H   0  0  0  1  0  0  0  0  0  0  0  0
    3.1614   -0.7933    9.2067 H   0  0  0  1  0  0  0  0  0  0  0  0
    4.2692   -1.1405    0.7293 H   0  0  0  1  0  0  0  0  0  0  0  0
    4.9241    0.6691   -1.3497 H   0  0  0  1  0  0  0  0  0  0  0  0
    2.5175   -1.0811   -1.7402 H   0  0  0  1  0  0  0  0  0  0  0  0
    2.8712    0.4685   -2.4668 H   0  0  0  1  0  0  0  0  0  0  0  0
    4.4569   -0.4693   -3.9717 H   0  0  0  1  0  0  0  0  0  0  0  0
    3.2197   -1.7029   -3.9311 H   0  0  0  1  0  0  0  0  0  0  0  0
    4.4606   -3.0698   -2.4705 H   0  0  0  1  0  0  0  0  0  0  0  0
    6.4114   -1.0004   -1.6718 H   0  0  0  1  0  0  0  0  0  0  0  0
    5.4819   -2.0783   -0.6577 H   0  0  0  1  0  0  0  0  0  0  0  0
    6.7699   -2.9250   -3.2064 H   0  0  0  1  0  0  0  0  0  0  0  0
    6.4285   -1.5865   -4.0142 H   0  0  0  1  0  0  0  0  0  0  0  0
  1  2  4  0  0  0  0
  1  6  4  0  0  0  0
  1 18  1  0  0  0  0
  2  3  4  0  0  0  0
  3  4  4  0  0  0  0
  3 25  1  0  0  0  0
  4  5  4  0  0  0  0
  4  7  4  0  0  0  0
  5  6  4  0  0  0  0
  5  9  4  0  0  0  0
  7  8  4  0  0  0  0
  7 26  1  0  0  0  0
  8  9  4  0  0  0  0
  9 10  1  0  0  0  0
 10 11  4  0  0  0  0
 10 15  4  0  0  0  0
 11 12  4  0  0  0  0
 11 27  1  0  0  0  0
 12 13  4  0  0  0  0
 12 28  1  0  0  0  0
 13 14  4  0  0  0  0
 13 16  1  0  0  0  0
 14 15  4  0  0  0  0
 14 29  1  0  0  0  0
 15 30  1  0  0  0  0
 16 17  1  0  0  0  0
 17 31  1  0  0  0  0
 17 32  1  0  0  0  0
 17 33  1  0  0  0  0
 18 19  1  0  0  0  0
 18 34  1  0  0  0  0
 19 20  1  0  0  0  0
 19 23  1  0  0  0  0
 19 35  1  0  0  0  0
 20 21  1  0  0  0  0
 20 36  1  0  0  0  0
 20 37  1  0  0  0  0
 21 22  1  0  0  0  0
 21 38  1  0  0  0  0
 21 39  1  0  0  0  0
 22 23  1  0  0  0  0
 22 24  1  0  0  0  0
 22 40  1  0  0  0  0
 23 41  1  0  0  0  0
 23 42  1  0  0  0  0
 24 43  1  0  0  0  0
 24 44  1  0  0  0  0
M  END
> <ConfClashScore>
0 

> <ConfOneFourInteractionScore>
-0.981848 

> <ConfScore>
-0.0421042 

> <ConfScorePBest>
0.00339331 

> <ConfTolerance>
0.258394 

$$$$
c22.sdf
 OpenBabel04162418103D

 44 47  0  0  0  0  0  0  0  0999 V2000
    3.0169   -1.2180    1.0555 C   0  0  0  1  0  0  0  0  0  0  0  0
    1.9122   -1.8943    1.3863 N   0  0  0  1  0  0  0  0  0  0  0  0
    1.6864   -2.1391    2.6926 C   0  0  0  1  0  0  0  0  0  0  0  0
    2.6288   -1.6623    3.6499 C   0  0  0  1  0  0  0  0  0  0  0  0
    3.7173   -0.9738    3.1286 C   0  0  0  1  0  0  0  0  0  0  0  0
    3.9739   -0.7193    1.8235 N   0  0  0  1  0  0  0  0  0  0  0  0
    2.8405   -1.6379    5.0432 C   0  0  0  1  0  0  0  0  0  0  0  0
    3.9482   -1.0067    5.3575 N   0  0  0  1  0  0  0  0  0  0  0  0
    4.4905   -0.5956    4.1715 N   0  0  0  1  0  0  0  0  0  0  0  0
    5.6952    0.1263    4.0519 C   0  0  0  1  0  0  0  0  0  0  0  0
    6.1379    0.8217    5.1612 C   0  0  0  1  0  0  0  0  0  0  0  0
    7.3195    1.5440    5.1002 C   0  0  0  1  0  0  0  0  0  0  0  0
    8.0520    1.5732    3.9285 C   0  0  0  1  0  0  0  0  0  0  0  0
    7.6078    0.8758    2.8159 C   0  0  0  1  0  0  0  0  0  0  0  0
    6.4297    0.1555    2.8767 C   0  0  0  1  0  0  0  0  0  0  0  0
    9.1835    2.3149    3.9867 O   0  0  0  1  0  0  0  0  0  0  0  0
   10.0068    2.3495    2.8105 C   0  0  0  1  0  0  0  0  0  0  0  0
    3.1823   -1.0116   -0.2634 N   0  0  0  1  0  0  0  0  0  0  0  0
    4.2903   -0.4551   -1.0413 C   0  0  0  1  0  0  0  0  0  0  0  0
    3.8154   -0.0230   -2.4189 C   0  0  0  1  0  0  0  0  0  0  0  0
    3.7726   -1.3565   -3.1730 C   0  0  0  1  0  0  0  0  0  0  0  0
    5.0237   -2.1041   -2.7034 C   0  0  0  1  0  0  0  0  0  0  0  0
    5.3491   -1.5274   -1.3191 C   0  0  0  1  0  0  0  0  0  0  0  0
    6.1605   -1.8680   -3.6493 N   0  0  0  1  0  0  0  0  0  0  0  0
    0.8420   -2.6651    2.9956 H   0  0  0  1  0  0  0  0  0  0  0  0
    2.1973   -2.0678    5.7382 H   0  0  0  1  0  0  0  0  0  0  0  0
    5.5847    0.8030    6.0416 H   0  0  0  1  0  0  0  0  0  0  0  0
    7.6547    2.0640    5.9361 H   0  0  0  1  0  0  0  0  0  0  0  0
    8.1610    0.8944    1.9355 H   0  0  0  1  0  0  0  0  0  0  0  0
    6.0944   -0.3645    2.0407 H   0  0  0  1  0  0  0  0  0  0  0  0
   10.0488    1.3729    2.3751 H   0  0  0  1  0  0  0  0  0  0  0  0
   10.9944    2.6642    3.0758 H   0  0  0  1  0  0  0  0  0  0  0  0
    9.5904    3.0369    2.1041 H   0  0  0  1  0  0  0  0  0  0  0  0
    2.4146   -1.2863   -0.8071 H   0  0  0  1  0  0  0  0  0  0  0  0
    4.7183    0.3709   -0.5128 H   0  0  0  1  0  0  0  0  0  0  0  0
    4.5052    0.6579   -2.8721 H   0  0  0  1  0  0  0  0  0  0  0  0
    2.8464    0.4284   -2.3722 H   0  0  0  1  0  0  0  0  0  0  0  0
    2.8884   -1.9044   -2.9220 H   0  0  0  1  0  0  0  0  0  0  0  0
    3.8040   -1.1940   -4.2302 H   0  0  0  1  0  0  0  0  0  0  0  0
    4.8283   -3.1539   -2.6347 H   0  0  0  1  0  0  0  0  0  0  0  0
    5.3012   -2.2965   -0.5767 H   0  0  0  1  0  0  0  0  0  0  0  0
    6.3264   -1.0918   -1.3196 H   0  0  0  1  0  0  0  0  0  0  0  0
    5.9068   -2.1678   -4.5472 H   0  0  0  1  0  0  0  0  0  0  0  0
    6.9461   -2.3701   -3.3474 H   0  0  0  1  0  0  0  0  0  0  0  0
  1  2  4  0  0  0  0
  1  6  4  0  0  0  0
  1 18  1  0  0  0  0
  2  3  4  0  0  0  0
  3  4  4  0  0  0  0
  3 25  1  0  0  0  0
  4  5  4  0  0  0  0
  4  7  4  0  0  0  0
  5  6  4  0  0  0  0
  5  9  4  0  0  0  0
  7  8  4  0  0  0  0
  7 26  1  0  0  0  0
  8  9  4  0  0  0  0
  9 10  1  0  0  0  0
 10 11  4  0  0  0  0
 10 15  4  0  0  0  0
 11 12  4  0  0  0  0
 11 27  1  0  0  0  0
 12 13  4  0  0  0  0
 12 28  1  0  0  0  0
 13 14  4  0  0  0  0
 13 16  1  0  0  0  0
 14 15  4  0  0  0  0
 14 29  1  0  0  0  0
 15 30  1  0  0  0  0
 16 17  1  0  0  0  0
 17 31  1  0  0  0  0
 17 32  1  0  0  0  0
 17 33  1  0  0  0  0
 18 19  1  0  0  0  0
 18 34  1  0  0  0  0
 19 20  1  0  0  0  0
 19 23  1  0  0  0  0
 19 35  1  0  0  0  0
 20 21  1  0  0  0  0
 20 36  1  0  0  0  0
 20 37  1  0  0  0  0
 21 22  1  0  0  0  0
 21 38  1  0  0  0  0
 21 39  1  0  0  0  0
 22 23  1  0  0  0  0
 22 24  1  0  0  0  0
 22 40  1  0  0  0  0
 23 41  1  0  0  0  0
 23 42  1  0  0  0  0
 24 43  1  0  0  0  0
 24 44  1  0  0  0  0
M  END
> <ConfClashScore>
0 

> <ConfOneFourInteractionScore>
-0.984337 

> <ConfScore>
-0.0420425 

> <ConfScorePBest>
0.00337998 

> <ConfTolerance>
0.430825 

$$$$
c22.sdf
 OpenBabel04162418103D

 44 47  0  0  0  0  0  0  0  0999 V2000
    4.3082    0.1942    1.3309 C   0  0  0  1  0  0  0  0  0  0  0  0
    3.4867    0.1401    2.3842 N   0  0  0  1  0  0  0  0  0  0  0  0
    3.9071    0.6830    3.5443 C   0  0  0  1  0  0  0  0  0  0  0  0
    5.1968    1.2887    3.5874 C   0  0  0  1  0  0  0  0  0  0  0  0
    5.9135    1.2589    2.3975 C   0  0  0  1  0  0  0  0  0  0  0  0
    5.5208    0.7155    1.2208 N   0  0  0  1  0  0  0  0  0  0  0  0
    6.0464    1.9667    4.4847 C   0  0  0  1  0  0  0  0  0  0  0  0
    7.1771    2.3168    3.9163 N   0  0  0  1  0  0  0  0  0  0  0  0
    7.0940    1.8783    2.6238 N   0  0  0  1  0  0  0  0  0  0  0  0
    8.1155    2.0511    1.6455 C   0  0  0  1  0  0  0  0  0  0  0  0
    8.7457    3.2738    1.5116 C   0  0  0  1  0  0  0  0  0  0  0  0
    9.6767    3.4668    0.5029 C   0  0  0  1  0  0  0  0  0  0  0  0
    9.9708    2.4383   -0.3722 C   0  0  0  1  0  0  0  0  0  0  0  0
    9.3387    1.2120   -0.2378 C   0  0  0  1  0  0  0  0  0  0  0  0
    8.4104    1.0194    0.7679 C   0  0  0  1  0  0  0  0  0  0  0  0
   10.8454    2.4667   -1.4058 O   0  0  0  1  0  0  0  0  0  0  0  0
   11.5828    3.6822   -1.6083 C   0  0  0  1  0  0  0  0  0  0  0  0
    3.8304   -0.3663    0.2123 N   0  0  0  1  0  0  0  0  0  0  0  0
    4.4371   -0.2901   -1.1413 C   0  0  0  1  0  0  0  0  0  0  0  0
    3.3506   -0.4334   -2.2242 C   0  0  0  1  0  0  0  0  0  0  0  0
    4.0915   -1.1592   -3.3439 C   0  0  0  1  0  0  0  0  0  0  0  0
    4.9856   -2.1722   -2.6505 C   0  0  0  1  0  0  0  0  0  0  0  0
    5.3964   -1.4502   -1.3567 C   0  0  0  1  0  0  0  0  0  0  0  0
    6.1805   -2.4930   -3.4871 N   0  0  0  1  0  0  0  0  0  0  0  0
    3.3029    0.6603    4.3905 H   0  0  0  1  0  0  0  0  0  0  0  0
    5.8067    2.1656    5.4770 H   0  0  0  1  0  0  0  0  0  0  0  0
    8.5215    4.0491    2.1677 H   0  0  0  1  0  0  0  0  0  0  0  0
   10.1539    4.3856    0.4047 H   0  0  0  1  0  0  0  0  0  0  0  0
    9.5629    0.4367   -0.8938 H   0  0  0  1  0  0  0  0  0  0  0  0
    7.9332    0.1006    0.8662 H   0  0  0  1  0  0  0  0  0  0  0  0
   11.6238    4.2321   -0.6913 H   0  0  0  1  0  0  0  0  0  0  0  0
   11.0974    4.2731   -2.3567 H   0  0  0  1  0  0  0  0  0  0  0  0
   12.5766    3.4472   -1.9277 H   0  0  0  1  0  0  0  0  0  0  0  0
    2.9982   -0.8771    0.2950 H   0  0  0  1  0  0  0  0  0  0  0  0
    4.9506    0.6423   -1.2506 H   0  0  0  1  0  0  0  0  0  0  0  0
    2.5248   -1.0132   -1.8683 H   0  0  0  1  0  0  0  0  0  0  0  0
    3.0010    0.5240   -2.5496 H   0  0  0  1  0  0  0  0  0  0  0  0
    4.6796   -0.4687   -3.9117 H   0  0  0  1  0  0  0  0  0  0  0  0
    3.3980   -1.6543   -3.9912 H   0  0  0  1  0  0  0  0  0  0  0  0
    4.4493   -3.0724   -2.4338 H   0  0  0  1  0  0  0  0  0  0  0  0
    5.3393   -2.1267   -0.5297 H   0  0  0  1  0  0  0  0  0  0  0  0
    6.3967   -1.0818   -1.4485 H   0  0  0  1  0  0  0  0  0  0  0  0
    6.7636   -1.7071   -3.5397 H   0  0  0  1  0  0  0  0  0  0  0  0
    5.8899   -2.7447   -4.3885 H   0  0  0  1  0  0  0  0  0  0  0  0
  1  2  4  0  0  0  0
  1  6  4  0  0  0  0
  1 18  1  0  0  0  0
  2  3  4  0  0  0  0
  3  4  4  0  0  0  0
  3 25  1  0  0  0  0
  4  5  4  0  0  0  0
  4  7  4  0  0  0  0
  5  6  4  0  0  0  0
  5  9  4  0  0  0  0
  7  8  4  0  0  0  0
  7 26  1  0  0  0  0
  8  9  4  0  0  0  0
  9 10  1  0  0  0  0
 10 11  4  0  0  0  0
 10 15  4  0  0  0  0
 11 12  4  0  0  0  0
 11 27  1  0  0  0  0
 12 13  4  0  0  0  0
 12 28  1  0  0  0  0
 13 14  4  0  0  0  0
 13 16  1  0  0  0  0
 14 15  4  0  0  0  0
 14 29  1  0  0  0  0
 15 30  1  0  0  0  0
 16 17  1  0  0  0  0
 17 31  1  0  0  0  0
 17 32  1  0  0  0  0
 17 33  1  0  0  0  0
 18 19  1  0  0  0  0
 18 34  1  0  0  0  0
 19 20  1  0  0  0  0
 19 23  1  0  0  0  0
 19 35  1  0  0  0  0
 20 21  1  0  0  0  0
 20 36  1  0  0  0  0
 20 37  1  0  0  0  0
 21 22  1  0  0  0  0
 21 38  1  0  0  0  0
 21 39  1  0  0  0  0
 22 23  1  0  0  0  0
 22 24  1  0  0  0  0
 22 40  1  0  0  0  0
 23 41  1  0  0  0  0
 23 42  1  0  0  0  0
 24 43  1  0  0  0  0
 24 44  1  0  0  0  0
M  END
> <ConfClashScore>
0 

> <ConfOneFourInteractionScore>
-0.984337 

> <ConfScore>
-0.0418337 

> <ConfScorePBest>
0.00336665 

> <ConfTolerance>
0.323685 

$$$$
c22.sdf
 OpenBabel04162418103D

 44 47  0  0  0  0  0  0  0  0999 V2000
    4.1459    1.6266    0.2392 C   0  0  0  1  0  0  0  0  0  0  0  0
    4.4818    2.4388   -0.7680 N   0  0  0  1  0  0  0  0  0  0  0  0
    4.3760    3.7684   -0.5722 C   0  0  0  1  0  0  0  0  0  0  0  0
    3.9192    4.2383    0.6937 C   0  0  0  1  0  0  0  0  0  0  0  0
    3.6193    3.2532    1.6265 C   0  0  0  1  0  0  0  0  0  0  0  0
    3.7087    1.9127    1.4563 N   0  0  0  1  0  0  0  0  0  0  0  0
    3.6631    5.4462    1.3734 C   0  0  0  1  0  0  0  0  0  0  0  0
    3.2410    5.2366    2.5990 N   0  0  0  1  0  0  0  0  0  0  0  0
    3.2143    3.8784    2.7551 N   0  0  0  1  0  0  0  0  0  0  0  0
    2.8160    3.2156    3.9395 C   0  0  0  1  0  0  0  0  0  0  0  0
    3.1912    1.9158    4.2222 C   0  0  0  1  0  0  0  0  0  0  0  0
    2.7767    1.3158    5.4011 C   0  0  0  1  0  0  0  0  0  0  0  0
    1.9840    2.0155    6.2913 C   0  0  0  1  0  0  0  0  0  0  0  0
    1.6079    3.3192    6.0075 C   0  0  0  1  0  0  0  0  0  0  0  0
    2.0210    3.9175    4.8321 C   0  0  0  1  0  0  0  0  0  0  0  0
    1.5416    1.4862    7.4566 O   0  0  0  1  0  0  0  0  0  0  0  0
    1.9586    0.1480    7.7696 C   0  0  0  1  0  0  0  0  0  0  0  0
    4.2716    0.3135   -0.0246 N   0  0  0  1  0  0  0  0  0  0  0  0
    4.6734   -0.2225   -1.3260 C   0  0  0  1  0  0  0  0  0  0  0  0
    3.4717   -0.4032   -2.2434 C   0  0  0  1  0  0  0  0  0  0  0  0
    3.8629   -1.4631   -3.2641 C   0  0  0  1  0  0  0  0  0  0  0  0
    5.0531   -2.2113   -2.6603 C   0  0  0  1  0  0  0  0  0  0  0  0
    5.2149   -1.6950   -1.1944 C   0  0  0  1  0  0  0  0  0  0  0  0
    6.2972   -1.9247   -3.4489 N   0  0  0  1  0  0  0  0  0  0  0  0
    4.6226    4.4376   -1.3292 H   0  0  0  1  0  0  0  0  0  0  0  0
    3.7927    6.3894    0.9549 H   0  0  0  1  0  0  0  0  0  0  0  0
    3.7843    1.3879    3.5505 H   0  0  0  1  0  0  0  0  0  0  0  0
    3.0623    0.3391    5.6158 H   0  0  0  1  0  0  0  0  0  0  0  0
    1.0148    3.8471    6.6792 H   0  0  0  1  0  0  0  0  0  0  0  0
    1.7355    4.8942    4.6174 H   0  0  0  1  0  0  0  0  0  0  0  0
    1.5595   -0.1372    8.7206 H   0  0  0  1  0  0  0  0  0  0  0  0
    3.0272    0.1067    7.8047 H   0  0  0  1  0  0  0  0  0  0  0  0
    1.5997   -0.5224    7.0169 H   0  0  0  1  0  0  0  0  0  0  0  0
    4.0830   -0.3218    0.6973 H   0  0  0  1  0  0  0  0  0  0  0  0
    5.4049    0.4219   -1.7673 H   0  0  0  1  0  0  0  0  0  0  0  0
    2.6222   -0.7285   -1.6799 H   0  0  0  1  0  0  0  0  0  0  0  0
    3.2416    0.5179   -2.7368 H   0  0  0  1  0  0  0  0  0  0  0  0
    4.1434   -1.0031   -4.1886 H   0  0  0  1  0  0  0  0  0  0  0  0
    3.0478   -2.1355   -3.4326 H   0  0  0  1  0  0  0  0  0  0  0  0
    4.8646   -3.2646   -2.6609 H   0  0  0  1  0  0  0  0  0  0  0  0
    6.2389   -1.7097   -0.8846 H   0  0  0  1  0  0  0  0  0  0  0  0
    4.6263   -2.2691   -0.5096 H   0  0  0  1  0  0  0  0  0  0  0  0
    6.4075   -0.9557   -3.5451 H   0  0  0  1  0  0  0  0  0  0  0  0
    6.2230   -2.3345   -4.3360 H   0  0  0  1  0  0  0  0  0  0  0  0
  1  2  4  0  0  0  0
  1  6  4  0  0  0  0
  1 18  1  0  0  0  0
  2  3  4  0  0  0  0
  3  4  4  0  0  0  0
  3 25  1  0  0  0  0
  4  5  4  0  0  0  0
  4  7  4  0  0  0  0
  5  6  4  0  0  0  0
  5  9  4  0  0  0  0
  7  8  4  0  0  0  0
  7 26  1  0  0  0  0
  8  9  4  0  0  0  0
  9 10  1  0  0  0  0
 10 11  4  0  0  0  0
 10 15  4  0  0  0  0
 11 12  4  0  0  0  0
 11 27  1  0  0  0  0
 12 13  4  0  0  0  0
 12 28  1  0  0  0  0
 13 14  4  0  0  0  0
 13 16  1  0  0  0  0
 14 15  4  0  0  0  0
 14 29  1  0  0  0  0
 15 30  1  0  0  0  0
 16 17  1  0  0  0  0
 17 31  1  0  0  0  0
 17 32  1  0  0  0  0
 17 33  1  0  0  0  0
 18 19  1  0  0  0  0
 18 34  1  0  0  0  0
 19 20  1  0  0  0  0
 19 23  1  0  0  0  0
 19 35  1  0  0  0  0
 20 21  1  0  0  0  0
 20 36  1  0  0  0  0
 20 37  1  0  0  0  0
 21 22  1  0  0  0  0
 21 38  1  0  0  0  0
 21 39  1  0  0  0  0
 22 23  1  0  0  0  0
 22 24  1  0  0  0  0
 22 40  1  0  0  0  0
 23 41  1  0  0  0  0
 23 42  1  0  0  0  0
 24 43  1  0  0  0  0
 24 44  1  0  0  0  0
M  END
> <ConfClashScore>
0 

> <ConfOneFourInteractionScore>
-0.984337 

> <ConfScore>
-0.0417374 

> <ConfScorePBest>
0.00335333 

> <ConfTolerance>
0.284191 

$$$$
c22.sdf
 OpenBabel04162418103D

 44 47  0  0  0  0  0  0  0  0999 V2000
    3.5726    1.3175    0.1127 C   0  0  0  1  0  0  0  0  0  0  0  0
    3.1839    1.5423    1.3719 N   0  0  0  1  0  0  0  0  0  0  0  0
    2.4816    2.6642    1.6275 C   0  0  0  1  0  0  0  0  0  0  0  0
    2.1859    3.5461    0.5475 C   0  0  0  1  0  0  0  0  0  0  0  0
    2.6639    3.1526   -0.6964 C   0  0  0  1  0  0  0  0  0  0  0  0
    3.3769    2.0372   -0.9818 N   0  0  0  1  0  0  0  0  0  0  0  0
    1.5155    4.7592    0.2911 C   0  0  0  1  0  0  0  0  0  0  0  0
    1.5751    5.0911   -0.9779 N   0  0  0  1  0  0  0  0  0  0  0  0
    2.2862    4.0956   -1.5888 N   0  0  0  1  0  0  0  0  0  0  0  0
    2.5868    4.0575   -2.9705 C   0  0  0  1  0  0  0  0  0  0  0  0
    3.8959    4.1797   -3.3964 C   0  0  0  1  0  0  0  0  0  0  0  0
    4.1910    4.1369   -4.7501 C   0  0  0  1  0  0  0  0  0  0  0  0
    3.1756    3.9774   -5.6742 C   0  0  0  1  0  0  0  0  0  0  0  0
    1.8626    3.8549   -5.2468 C   0  0  0  1  0  0  0  0  0  0  0  0
    1.5683    3.8975   -3.8971 C   0  0  0  1  0  0  0  0  0  0  0  0
    3.5787    3.9560   -6.9500 O   0  0  0  1  0  0  0  0  0  0  0  0
    2.6508    3.6575   -8.0467 C   0  0  0  1  0  0  0  0  0  0  0  0
    4.2718    0.1831   -0.0714 N   0  0  0  1  0  0  0  0  0  0  0  0
    4.7039   -0.3083   -1.3870 C   0  0  0  1  0  0  0  0  0  0  0  0
    3.5339   -0.3066   -2.3766 C   0  0  0  1  0  0  0  0  0  0  0  0
    3.7159   -1.5486   -3.2593 C   0  0  0  1  0  0  0  0  0  0  0  0
    4.9994   -2.2187   -2.7610 C   0  0  0  1  0  0  0  0  0  0  0  0
    5.1294   -1.7649   -1.3029 C   0  0  0  1  0  0  0  0  0  0  0  0
    6.1816   -1.7633   -3.5651 N   0  0  0  1  0  0  0  0  0  0  0  0
    2.1621    2.8817    2.5930 H   0  0  0  1  0  0  0  0  0  0  0  0
    1.0321    5.3233    1.0190 H   0  0  0  1  0  0  0  0  0  0  0  0
    4.6595    4.3037   -2.7014 H   0  0  0  1  0  0  0  0  0  0  0  0
    5.1765    4.2248   -5.0705 H   0  0  0  1  0  0  0  0  0  0  0  0
    1.0990    3.7309   -5.9419 H   0  0  0  1  0  0  0  0  0  0  0  0
    0.5828    3.8096   -3.5767 H   0  0  0  1  0  0  0  0  0  0  0  0
    2.2290    2.6848   -7.9030 H   0  0  0  1  0  0  0  0  0  0  0  0
    3.1787    3.6832   -8.9771 H   0  0  0  1  0  0  0  0  0  0  0  0
    1.8681    4.3870   -8.0599 H   0  0  0  1  0  0  0  0  0  0  0  0
    4.5068   -0.3469    0.7186 H   0  0  0  1  0  0  0  0  0  0  0  0
    5.5064    0.2996   -1.7495 H   0  0  0  1  0  0  0  0  0  0  0  0
    3.5562    0.5800   -2.9753 H   0  0  0  1  0  0  0  0  0  0  0  0
    2.6036   -0.3590   -1.8506 H   0  0  0  1  0  0  0  0  0  0  0  0
    2.8821   -2.2103   -3.1505 H   0  0  0  1  0  0  0  0  0  0  0  0
    3.8160   -1.2661   -4.2864 H   0  0  0  1  0  0  0  0  0  0  0  0
    4.9168   -3.2839   -2.8193 H   0  0  0  1  0  0  0  0  0  0  0  0
    6.1374   -1.8561   -0.9557 H   0  0  0  1  0  0  0  0  0  0  0  0
    4.4791   -2.3235   -0.6625 H   0  0  0  1  0  0  0  0  0  0  0  0
    7.0022   -2.1361   -3.1803 H   0  0  0  1  0  0  0  0  0  0  0  0
    6.2293   -0.7845   -3.5498 H   0  0  0  1  0  0  0  0  0  0  0  0
  1  2  4  0  0  0  0
  1  6  4  0  0  0  0
  1 18  1  0  0  0  0
  2  3  4  0  0  0  0
  3  4  4  0  0  0  0
  3 25  1  0  0  0  0
  4  5  4  0  0  0  0
  4  7  4  0  0  0  0
  5  6  4  0  0  0  0
  5  9  4  0  0  0  0
  7  8  4  0  0  0  0
  7 26  1  0  0  0  0
  8  9  4  0  0  0  0
  9 10  1  0  0  0  0
 10 11  4  0  0  0  0
 10 15  4  0  0  0  0
 11 12  4  0  0  0  0
 11 27  1  0  0  0  0
 12 13  4  0  0  0  0
 12 28  1  0  0  0  0
 13 14  4  0  0  0  0
 13 16  1  0  0  0  0
 14 15  4  0  0  0  0
 14 29  1  0  0  0  0
 15 30  1  0  0  0  0
 16 17  1  0  0  0  0
 17 31  1  0  0  0  0
 17 32  1  0  0  0  0
 17 33  1  0  0  0  0
 18 19  1  0  0  0  0
 18 34  1  0  0  0  0
 19 20  1  0  0  0  0
 19 23  1  0  0  0  0
 19 35  1  0  0  0  0
 20 21  1  0  0  0  0
 20 36  1  0  0  0  0
 20 37  1  0  0  0  0
 21 22  1  0  0  0  0
 21 38  1  0  0  0  0
 21 39  1  0  0  0  0
 22 23  1  0  0  0  0
 22 24  1  0  0  0  0
 22 40  1  0  0  0  0
 23 41  1  0  0  0  0
 23 42  1  0  0  0  0
 24 43  1  0  0  0  0
 24 44  1  0  0  0  0
M  END
> <ConfClashScore>
0 

> <ConfOneFourInteractionScore>
-0.985399 

> <ConfScore>
-0.0415245 

> <ConfScorePBest>
0.00334 

> <ConfTolerance>
0.315746 

$$$$
c22.sdf
 OpenBabel04162418103D

 44 47  0  0  0  0  0  0  0  0999 V2000
    4.2951    1.5375    0.4015 C   0  0  0  1  0  0  0  0  0  0  0  0
    3.7654    1.7994    1.6007 N   0  0  0  1  0  0  0  0  0  0  0  0
    3.8261    3.0663    2.0573 C   0  0  0  1  0  0  0  0  0  0  0  0
    4.4435    4.0581    1.2405 C   0  0  0  1  0  0  0  0  0  0  0  0
    4.9359    3.6094    0.0212 C   0  0  0  1  0  0  0  0  0  0  0  0
    4.8959    2.3442   -0.4602 N   0  0  0  1  0  0  0  0  0  0  0  0
    4.7328    5.4376    1.2426 C   0  0  0  1  0  0  0  0  0  0  0  0
    5.3474    5.8090    0.1433 N   0  0  0  1  0  0  0  0  0  0  0  0
    5.4727    4.6765   -0.6126 N   0  0  0  1  0  0  0  0  0  0  0  0
    6.0826    4.6277   -1.8879 C   0  0  0  1  0  0  0  0  0  0  0  0
    5.7152    3.6495   -2.7925 C   0  0  0  1  0  0  0  0  0  0  0  0
    6.3091    3.6050   -4.0442 C   0  0  0  1  0  0  0  0  0  0  0  0
    7.2724    4.5354   -4.3858 C   0  0  0  1  0  0  0  0  0  0  0  0
    7.6408    5.5164   -3.4783 C   0  0  0  1  0  0  0  0  0  0  0  0
    7.0488    5.5609   -2.2302 C   0  0  0  1  0  0  0  0  0  0  0  0
    7.8941    4.5439   -5.5888 O   0  0  0  1  0  0  0  0  0  0  0  0
    8.6378    5.7228   -5.9347 C   0  0  0  1  0  0  0  0  0  0  0  0
    4.2036    0.2543    0.0087 N   0  0  0  1  0  0  0  0  0  0  0  0
    4.6682   -0.2373   -1.2918 C   0  0  0  1  0  0  0  0  0  0  0  0
    3.5050   -0.3098   -2.2999 C   0  0  0  1  0  0  0  0  0  0  0  0
    3.8885   -1.4019   -3.3140 C   0  0  0  1  0  0  0  0  0  0  0  0
    5.0168   -2.2451   -2.6557 C   0  0  0  1  0  0  0  0  0  0  0  0
    5.1568   -1.7217   -1.1864 C   0  0  0  1  0  0  0  0  0  0  0  0
    6.3066   -2.0570   -3.3990 N   0  0  0  1  0  0  0  0  0  0  0  0
    3.4305    3.3150    2.9864 H   0  0  0  1  0  0  0  0  0  0  0  0
    4.4891    6.0831    2.0207 H   0  0  0  1  0  0  0  0  0  0  0  0
    4.9932    2.9470   -2.5342 H   0  0  0  1  0  0  0  0  0  0  0  0
    6.0297    2.8714   -4.7265 H   0  0  0  1  0  0  0  0  0  0  0  0
    8.3628    6.2189   -3.7366 H   0  0  0  1  0  0  0  0  0  0  0  0
    7.3281    6.2944   -1.5479 H   0  0  0  1  0  0  0  0  0  0  0  0
    9.2067    5.5386   -6.8221 H   0  0  0  1  0  0  0  0  0  0  0  0
    9.2999    5.9746   -5.1328 H   0  0  0  1  0  0  0  0  0  0  0  0
    7.9610    6.5334   -6.1071 H   0  0  0  1  0  0  0  0  0  0  0  0
    3.8026   -0.3901    0.6286 H   0  0  0  1  0  0  0  0  0  0  0  0
    5.4495    0.3971   -1.6551 H   0  0  0  1  0  0  0  0  0  0  0  0
    3.3836    0.6309   -2.7952 H   0  0  0  1  0  0  0  0  0  0  0  0
    2.5957   -0.5701   -1.7998 H   0  0  0  1  0  0  0  0  0  0  0  0
    4.2422   -0.9560   -4.2201 H   0  0  0  1  0  0  0  0  0  0  0  0
    3.0421   -2.0208   -3.5272 H   0  0  0  1  0  0  0  0  0  0  0  0
    4.7523   -3.2819   -2.6558 H   0  0  0  1  0  0  0  0  0  0  0  0
    6.1737   -1.7691   -0.8570 H   0  0  0  1  0  0  0  0  0  0  0  0
    4.5382   -2.2833   -0.5179 H   0  0  0  1  0  0  0  0  0  0  0  0
    6.5351   -1.1043   -3.4220 H   0  0  0  1  0  0  0  0  0  0  0  0
    6.2072   -2.3911   -4.3149 H   0  0  0  1  0  0  0  0  0  0  0  0
  1  2  4  0  0  0  0
  1  6  4  0  0  0  0
  1 18  1  0  0  0  0
  2  3  4  0  0  0  0
  3  4  4  0  0  0  0
  3 25  1  0  0  0  0
  4  5  4  0  0  0  0
  4  7  4  0  0  0  0
  5  6  4  0  0  0  0
  5  9  4  0  0  0  0
  7  8  4  0  0  0  0
  7 26  1  0  0  0  0
  8  9  4  0  0  0  0
  9 10  1  0  0  0  0
 10 11  4  0  0  0  0
 10 15  4  0  0  0  0
 11 12  4  0  0  0  0
 11 27  1  0  0  0  0
 12 13  4  0  0  0  0
 12 28  1  0  0  0  0
 13 14  4  0  0  0  0
 13 16  1  0  0  0  0
 14 15  4  0  0  0  0
 14 29  1  0  0  0  0
 15 30  1  0  0  0  0
 16 17  1  0  0  0  0
 17 31  1  0  0  0  0
 17 32  1  0  0  0  0
 17 33  1  0  0  0  0
 18 19  1  0  0  0  0
 18 34  1  0  0  0  0
 19 20  1  0  0  0  0
 19 23  1  0  0  0  0
 19 35  1  0  0  0  0
 20 21  1  0  0  0  0
 20 36  1  0  0  0  0
 20 37  1  0  0  0  0
 21 22  1  0  0  0  0
 21 38  1  0  0  0  0
 21 39  1  0  0  0  0
 22 23  1  0  0  0  0
 22 24  1  0  0  0  0
 22 40  1  0  0  0  0
 23 41  1  0  0  0  0
 23 42  1  0  0  0  0
 24 43  1  0  0  0  0
 24 44  1  0  0  0  0
M  END
> <ConfClashScore>
1.94413e-05 

> <ConfOneFourInteractionScore>
-0.984337 

> <ConfScore>
-0.0397933 

> <ConfScorePBest>
0.00332667 

> <ConfTolerance>
0.255165 

$$$$
c22.sdf
 OpenBabel04162418103D

 44 47  0  0  0  0  0  0  0  0999 V2000
    2.6444   -1.0667    0.9522 C   0  0  0  1  0  0  0  0  0  0  0  0
    2.1478   -2.0854    1.6612 N   0  0  0  1  0  0  0  0  0  0  0  0
    1.3555   -1.7985    2.7134 C   0  0  0  1  0  0  0  0  0  0  0  0
    1.0843   -0.4312    3.0117 C   0  0  0  1  0  0  0  0  0  0  0  0
    1.6797    0.4967    2.1661 C   0  0  0  1  0  0  0  0  0  0  0  0
    2.4846    0.2389    1.1078 N   0  0  0  1  0  0  0  0  0  0  0  0
    0.3564    0.3546    3.9279 C   0  0  0  1  0  0  0  0  0  0  0  0
    0.4894    1.6379    3.6837 N   0  0  0  1  0  0  0  0  0  0  0  0
    1.3089    1.7251    2.5926 N   0  0  0  1  0  0  0  0  0  0  0  0
    1.7174    2.9471    1.9860 C   0  0  0  1  0  0  0  0  0  0  0  0
    3.0259    3.3750    2.1072 C   0  0  0  1  0  0  0  0  0  0  0  0
    3.4248    4.5618    1.5122 C   0  0  0  1  0  0  0  0  0  0  0  0
    2.5127    5.3198    0.8024 C   0  0  0  1  0  0  0  0  0  0  0  0
    1.2003    4.8904    0.6809 C   0  0  0  1  0  0  0  0  0  0  0  0
    0.8025    3.7071    1.2741 C   0  0  0  1  0  0  0  0  0  0  0  0
    2.9746    6.3926    0.1496 O   0  0  0  1  0  0  0  0  0  0  0  0
    4.3373    6.8947    0.3586 C   0  0  0  1  0  0  0  0  0  0  0  0
    3.4289   -1.4232   -0.0807 N   0  0  0  1  0  0  0  0  0  0  0  0
    4.2317   -0.5691   -0.9620 C   0  0  0  1  0  0  0  0  0  0  0  0
    3.4160   -0.2127   -2.2533 C   0  0  0  1  0  0  0  0  0  0  0  0
    4.1596   -0.9206   -3.3814 C   0  0  0  1  0  0  0  0  0  0  0  0
    5.0343   -2.0072   -2.7441 C   0  0  0  1  0  0  0  0  0  0  0  0
    5.4970   -1.3206   -1.4153 C   0  0  0  1  0  0  0  0  0  0  0  0
    6.1849   -2.3390   -3.6030 N   0  0  0  1  0  0  0  0  0  0  0  0
    0.9504   -2.5591    3.2956 H   0  0  0  1  0  0  0  0  0  0  0  0
   -0.2167   -0.0349    4.7034 H   0  0  0  1  0  0  0  0  0  0  0  0
    3.7113    2.8067    2.6447 H   0  0  0  1  0  0  0  0  0  0  0  0
    4.4104    4.8818    1.6000 H   0  0  0  1  0  0  0  0  0  0  0  0
    0.5149    5.4587    0.1434 H   0  0  0  1  0  0  0  0  0  0  0  0
   -0.1831    3.3871    1.1863 H   0  0  0  1  0  0  0  0  0  0  0  0
    4.9979    6.0719    0.5359 H   0  0  0  1  0  0  0  0  0  0  0  0
    4.3498    7.5504    1.2041 H   0  0  0  1  0  0  0  0  0  0  0  0
    4.6580    7.4281   -0.5118 H   0  0  0  1  0  0  0  0  0  0  0  0
    3.4695   -2.3839   -0.2699 H   0  0  0  1  0  0  0  0  0  0  0  0
    4.5035    0.3255   -0.4417 H   0  0  0  1  0  0  0  0  0  0  0  0
    2.4115   -0.5734   -2.1777 H   0  0  0  1  0  0  0  0  0  0  0  0
    3.4045    0.8452   -2.4134 H   0  0  0  1  0  0  0  0  0  0  0  0
    3.4599   -1.3649   -4.0580 H   0  0  0  1  0  0  0  0  0  0  0  0
    4.7730   -0.2212   -3.9101 H   0  0  0  1  0  0  0  0  0  0  0  0
    4.4689   -2.8939   -2.5462 H   0  0  0  1  0  0  0  0  0  0  0  0
    5.7943   -2.0479   -0.6890 H   0  0  0  1  0  0  0  0  0  0  0  0
    6.3052   -0.6424   -1.5931 H   0  0  0  1  0  0  0  0  0  0  0  0
    5.8632   -2.6734   -4.4662 H   0  0  0  1  0  0  0  0  0  0  0  0
    6.7289   -3.0284   -3.1680 H   0  0  0  1  0  0  0  0  0  0  0  0
  1  2  4  0  0  0  0
  1  6  4  0  0  0  0
  1 18  1  0  0  0  0
  2  3  4  0  0  0  0
  3  4  4  0  0  0  0
  3 25  1  0  0  0  0
  4  5  4  0  0  0  0
  4  7  4  0  0  0  0
  5  6  4  0  0  0  0
  5  9  4  0  0  0  0
  7  8  4  0  0  0  0
  7 26  1  0  0  0  0
  8  9  4  0  0  0  0
  9 10  1  0  0  0  0
 10 11  4  0  0  0  0
 10 15  4  0  0  0  0
 11 12  4  0  0  0  0
 11 27  1  0  0  0  0
 12 13  4  0  0  0  0
 12 28  1  0  0  0  0
 13 14  4  0  0  0  0
 13 16  1  0  0  0  0
 14 15  4  0  0  0  0
 14 29  1  0  0  0  0
 15 30  1  0  0  0  0
 16 17  1  0  0  0  0
 17 31  1  0  0  0  0
 17 32  1  0  0  0  0
 17 33  1  0  0  0  0
 18 19  1  0  0  0  0
 18 34  1  0  0  0  0
 19 20  1  0  0  0  0
 19 23  1  0  0  0  0
 19 35  1  0  0  0  0
 20 21  1  0  0  0  0
 20 36  1  0  0  0  0
 20 37  1  0  0  0  0
 21 22  1  0  0  0  0
 21 38  1  0  0  0  0
 21 39  1  0  0  0  0
 22 23  1  0  0  0  0
 22 24  1  0  0  0  0
 22 40  1  0  0  0  0
 23 41  1  0  0  0  0
 23 42  1  0  0  0  0
 24 43  1  0  0  0  0
 24 44  1  0  0  0  0
M  END
> <ConfClashScore>
0 

> <ConfOneFourInteractionScore>
-0.984337 

> <ConfScore>
-0.0393159 

> <ConfScorePBest>
0.00331334 

> <ConfTolerance>
0.384926 

$$$$
c22.sdf
 OpenBabel04162418103D

 44 47  0  0  0  0  0  0  0  0999 V2000
    4.6732    1.0508    0.8686 C   0  0  0  1  0  0  0  0  0  0  0  0
    5.7279    1.6421    0.2984 N   0  0  0  1  0  0  0  0  0  0  0  0
    6.3508    2.6229    0.9819 C   0  0  0  1  0  0  0  0  0  0  0  0
    5.8594    2.9742    2.2730 C   0  0  0  1  0  0  0  0  0  0  0  0
    4.7566    2.2519    2.7121 C   0  0  0  1  0  0  0  0  0  0  0  0
    4.1067    1.2681    2.0459 N   0  0  0  1  0  0  0  0  0  0  0  0
    6.1388    3.8568    3.3359 C   0  0  0  1  0  0  0  0  0  0  0  0
    5.2948    3.7058    4.3304 N   0  0  0  1  0  0  0  0  0  0  0  0
    4.4393    2.7118    3.9434 N   0  0  0  1  0  0  0  0  0  0  0  0
    3.3740    2.2327    4.7205 C   0  0  0  1  0  0  0  0  0  0  0  0
    3.1912    0.9079    5.0690 C   0  0  0  1  0  0  0  0  0  0  0  0
    2.1048    0.5397    5.8473 C   0  0  0  1  0  0  0  0  0  0  0  0
    1.2016    1.4965    6.2703 C   0  0  0  1  0  0  0  0  0  0  0  0
    1.3851    2.8253    5.9206 C   0  0  0  1  0  0  0  0  0  0  0  0
    2.4683    3.1925    5.1446 C   0  0  0  1  0  0  0  0  0  0  0  0
    0.2051    1.1517    7.0940 O   0  0  0  1  0  0  0  0  0  0  0  0
    0.0429   -0.2254    7.5737 C   0  0  0  1  0  0  0  0  0  0  0  0
    4.0892    0.0705    0.1210 N   0  0  0  1  0  0  0  0  0  0  0  0
    4.6093   -0.3058   -1.2007 C   0  0  0  1  0  0  0  0  0  0  0  0
    3.5239   -0.2223   -2.2653 C   0  0  0  1  0  0  0  0  0  0  0  0
    3.9512   -1.1531   -3.3919 C   0  0  0  1  0  0  0  0  0  0  0  0
    4.9866   -2.1022   -2.7852 C   0  0  0  1  0  0  0  0  0  0  0  0
    5.0027   -1.8296   -1.2467 C   0  0  0  1  0  0  0  0  0  0  0  0
    6.3228   -1.8355   -3.3637 N   0  0  0  1  0  0  0  0  0  0  0  0
    7.1730    3.1133    0.5755 H   0  0  0  1  0  0  0  0  0  0  0  0
    6.9191    4.5444    3.3329 H   0  0  0  1  0  0  0  0  0  0  0  0
    3.8686    0.1873    4.7474 H   0  0  0  1  0  0  0  0  0  0  0  0
    1.9694   -0.4567    6.1129 H   0  0  0  1  0  0  0  0  0  0  0  0
    0.7077    3.5459    6.2422 H   0  0  0  1  0  0  0  0  0  0  0  0
    2.6037    4.1889    4.8790 H   0  0  0  1  0  0  0  0  0  0  0  0
   -0.3139   -0.8420    6.7753 H   0  0  0  1  0  0  0  0  0  0  0  0
   -0.6617   -0.2417    8.3788 H   0  0  0  1  0  0  0  0  0  0  0  0
    0.9859   -0.5967    7.9168 H   0  0  0  1  0  0  0  0  0  0  0  0
    3.3025   -0.3948    0.4746 H   0  0  0  1  0  0  0  0  0  0  0  0
    5.4431    0.3177   -1.4472 H   0  0  0  1  0  0  0  0  0  0  0  0
    3.4377    0.7809   -2.6273 H   0  0  0  1  0  0  0  0  0  0  0  0
    2.5848   -0.5381   -1.8612 H   0  0  0  1  0  0  0  0  0  0  0  0
    3.1104   -1.7048   -3.7573 H   0  0  0  1  0  0  0  0  0  0  0  0
    4.3856   -0.5921   -4.1929 H   0  0  0  1  0  0  0  0  0  0  0  0
    4.7111   -3.1184   -2.9762 H   0  0  0  1  0  0  0  0  0  0  0  0
    4.2848   -2.4352   -0.7340 H   0  0  0  1  0  0  0  0  0  0  0  0
    5.9737   -1.9963   -0.8294 H   0  0  0  1  0  0  0  0  0  0  0  0
    6.2803   -1.9221   -4.3389 H   0  0  0  1  0  0  0  0  0  0  0  0
    6.9679   -2.4809   -3.0064 H   0  0  0  1  0  0  0  0  0  0  0  0
  1  2  4  0  0  0  0
  1  6  4  0  0  0  0
  1 18  1  0  0  0  0
  2  3  4  0  0  0  0
  3  4  4  0  0  0  0
  3 25  1  0  0  0  0
  4  5  4  0  0  0  0
  4  7  4  0  0  0  0
  5  6  4  0  0  0  0
  5  9  4  0  0  0  0
  7  8  4  0  0  0  0
  7 26  1  0  0  0  0
  8  9  4  0  0  0  0
  9 10  1  0  0  0  0
 10 11  4  0  0  0  0
 10 15  4  0  0  0  0
 11 12  4  0  0  0  0
 11 27  1  0  0  0  0
 12 13  4  0  0  0  0
 12 28  1  0  0  0  0
 13 14  4  0  0  0  0
 13 16  1  0  0  0  0
 14 15  4  0  0  0  0
 14 29  1  0  0  0  0
 15 30  1  0  0  0  0
 16 17  1  0  0  0  0
 17 31  1  0  0  0  0
 17 32  1  0  0  0  0
 17 33  1  0  0  0  0
 18 19  1  0  0  0  0
 18 34  1  0  0  0  0
 19 20  1  0  0  0  0
 19 23  1  0  0  0  0
 19 35  1  0  0  0  0
 20 21  1  0  0  0  0
 20 36  1  0  0  0  0
 20 37  1  0  0  0  0
 21 22  1  0  0  0  0
 21 38  1  0  0  0  0
 21 39  1  0  0  0  0
 22 23  1  0  0  0  0
 22 24  1  0  0  0  0
 22 40  1  0  0  0  0
 23 41  1  0  0  0  0
 23 42  1  0  0  0  0
 24 43  1  0  0  0  0
 24 44  1  0  0  0  0
M  END
> <ConfClashScore>
0 

> <ConfOneFourInteractionScore>
-0.984337 

> <ConfScore>
-0.0390292 

> <ConfScorePBest>
0.00330001 

> <ConfTolerance>
0.369432 

$$$$
c22.sdf
 OpenBabel04162418103D

 44 47  0  0  0  0  0  0  0  0999 V2000
    3.7409   -0.0901    1.3370 C   0  0  0  1  0  0  0  0  0  0  0  0
    4.5860    0.9427    1.2570 N   0  0  0  1  0  0  0  0  0  0  0  0
    4.7751    1.6938    2.3603 C   0  0  0  1  0  0  0  0  0  0  0  0
    4.0726    1.3474    3.5513 C   0  0  0  1  0  0  0  0  0  0  0  0
    3.2390    0.2399    3.4553 C   0  0  0  1  0  0  0  0  0  0  0  0
    3.0239   -0.5282    2.3608 N   0  0  0  1  0  0  0  0  0  0  0  0
    3.9362    1.7665    4.8901 C   0  0  0  1  0  0  0  0  0  0  0  0
    3.1001    1.0050    5.5572 N   0  0  0  1  0  0  0  0  0  0  0  0
    2.6689    0.0597    4.6682 N   0  0  0  1  0  0  0  0  0  0  0  0
    1.7489   -0.9696    4.9762 C   0  0  0  1  0  0  0  0  0  0  0  0
    0.5118   -0.7134    5.5366 C   0  0  0  1  0  0  0  0  0  0  0  0
   -0.3537   -1.7601    5.8135 C   0  0  0  1  0  0  0  0  0  0  0  0
    0.0225   -3.0604    5.5343 C   0  0  0  1  0  0  0  0  0  0  0  0
    1.2633   -3.3172    4.9722 C   0  0  0  1  0  0  0  0  0  0  0  0
    2.1264   -2.2736    4.6960 C   0  0  0  1  0  0  0  0  0  0  0  0
   -0.8210   -4.0834    5.8097 O   0  0  0  1  0  0  0  0  0  0  0  0
   -0.3589   -5.4116    5.5182 C   0  0  0  1  0  0  0  0  0  0  0  0
    3.5923   -0.8142    0.1683 N   0  0  0  1  0  0  0  0  0  0  0  0
    4.3333   -0.4214   -1.0336 C   0  0  0  1  0  0  0  0  0  0  0  0
    3.3856   -0.3272   -2.2342 C   0  0  0  1  0  0  0  0  0  0  0  0
    4.2085   -0.8293   -3.4092 C   0  0  0  1  0  0  0  0  0  0  0  0
    4.9799   -1.9955   -2.7817 C   0  0  0  1  0  0  0  0  0  0  0  0
    5.3734   -1.4918   -1.3903 C   0  0  0  1  0  0  0  0  0  0  0  0
    6.1892   -2.3179   -3.5849 N   0  0  0  1  0  0  0  0  0  0  0  0
    5.4202    2.5093    2.3429 H   0  0  0  1  0  0  0  0  0  0  0  0
    4.4371    2.5806    5.2999 H   0  0  0  1  0  0  0  0  0  0  0  0
    0.2303    0.2647    5.7505 H   0  0  0  1  0  0  0  0  0  0  0  0
   -1.2862   -1.5670    6.2315 H   0  0  0  1  0  0  0  0  0  0  0  0
    1.5449   -4.2953    4.7583 H   0  0  0  1  0  0  0  0  0  0  0  0
    3.0590   -2.4667    4.2781 H   0  0  0  1  0  0  0  0  0  0  0  0
    0.6076   -5.5570    5.9535 H   0  0  0  1  0  0  0  0  0  0  0  0
   -0.2957   -5.5423    4.4581 H   0  0  0  1  0  0  0  0  0  0  0  0
   -1.0444   -6.1249    5.9258 H   0  0  0  1  0  0  0  0  0  0  0  0
    2.9924   -1.5888    0.1438 H   0  0  0  1  0  0  0  0  0  0  0  0
    4.8131    0.5201   -0.8656 H   0  0  0  1  0  0  0  0  0  0  0  0
    3.0770    0.6848   -2.3938 H   0  0  0  1  0  0  0  0  0  0  0  0
    2.5241   -0.9440   -2.0850 H   0  0  0  1  0  0  0  0  0  0  0  0
    3.5809   -1.1637   -4.2087 H   0  0  0  1  0  0  0  0  0  0  0  0
    4.8734   -0.0725   -3.7697 H   0  0  0  1  0  0  0  0  0  0  0  0
    4.3584   -2.8634   -2.7077 H   0  0  0  1  0  0  0  0  0  0  0  0
    6.3553   -1.0672   -1.4101 H   0  0  0  1  0  0  0  0  0  0  0  0
    5.3446   -2.2923   -0.6808 H   0  0  0  1  0  0  0  0  0  0  0  0
    5.9190   -2.7309   -4.4316 H   0  0  0  1  0  0  0  0  0  0  0  0
    6.7569   -2.9406   -3.0846 H   0  0  0  1  0  0  0  0  0  0  0  0
  1  2  4  0  0  0  0
  1  6  4  0  0  0  0
  1 18  1  0  0  0  0
  2  3  4  0  0  0  0
  3  4  4  0  0  0  0
  3 25  1  0  0  0  0
  4  5  4  0  0  0  0
  4  7  4  0  0  0  0
  5  6  4  0  0  0  0
  5  9  4  0  0  0  0
  7  8  4  0  0  0  0
  7 26  1  0  0  0  0
  8  9  4  0  0  0  0
  9 10  1  0  0  0  0
 10 11  4  0  0  0  0
 10 15  4  0  0  0  0
 11 12  4  0  0  0  0
 11 27  1  0  0  0  0
 12 13  4  0  0  0  0
 12 28  1  0  0  0  0
 13 14  4  0  0  0  0
 13 16  1  0  0  0  0
 14 15  4  0  0  0  0
 14 29  1  0  0  0  0
 15 30  1  0  0  0  0
 16 17  1  0  0  0  0
 17 31  1  0  0  0  0
 17 32  1  0  0  0  0
 17 33  1  0  0  0  0
 18 19  1  0  0  0  0
 18 34  1  0  0  0  0
 19 20  1  0  0  0  0
 19 23  1  0  0  0  0
 19 35  1  0  0  0  0
 20 21  1  0  0  0  0
 20 36  1  0  0  0  0
 20 37  1  0  0  0  0
 21 22  1  0  0  0  0
 21 38  1  0  0  0  0
 21 39  1  0  0  0  0
 22 23  1  0  0  0  0
 22 24  1  0  0  0  0
 22 40  1  0  0  0  0
 23 41  1  0  0  0  0
 23 42  1  0  0  0  0
 24 43  1  0  0  0  0
 24 44  1  0  0  0  0
M  END
> <ConfClashScore>
0 

> <ConfOneFourInteractionScore>
-0.984337 

> <ConfScore>
-0.0390292 

> <ConfScorePBest>
0.00328668 

> <ConfTolerance>
0.352603 

$$$$
c22.sdf
 OpenBabel04162418103D

 44 47  0  0  0  0  0  0  0  0999 V2000
    4.2986   -0.3808    1.1712 C   0  0  0  1  0  0  0  0  0  0  0  0
    3.4403   -0.2073    2.1813 N   0  0  0  1  0  0  0  0  0  0  0  0
    3.8882   -0.4137    3.4359 C   0  0  0  1  0  0  0  0  0  0  0  0
    5.2480   -0.7989    3.6212 C   0  0  0  1  0  0  0  0  0  0  0  0
    5.9986   -0.9278    2.4591 C   0  0  0  1  0  0  0  0  0  0  0  0
    5.5749   -0.7344    1.1874 N   0  0  0  1  0  0  0  0  0  0  0  0
    6.1577   -1.1017    4.6545 C   0  0  0  1  0  0  0  0  0  0  0  0
    7.3486   -1.3953    4.1858 N   0  0  0  1  0  0  0  0  0  0  0  0
    7.2494   -1.2873    2.8262 N   0  0  0  1  0  0  0  0  0  0  0  0
    8.3135   -1.5206    1.9241 C   0  0  0  1  0  0  0  0  0  0  0  0
    8.2686   -2.6751    1.1656 C   0  0  0  1  0  0  0  0  0  0  0  0
    9.2830   -2.9503    0.2618 C   0  0  0  1  0  0  0  0  0  0  0  0
   10.3420   -2.0730    0.1230 C   0  0  0  1  0  0  0  0  0  0  0  0
   10.3868   -0.9151    0.8839 C   0  0  0  1  0  0  0  0  0  0  0  0
    9.3755   -0.6406    1.7850 C   0  0  0  1  0  0  0  0  0  0  0  0
   11.3835   -2.2364   -0.7156 O   0  0  0  1  0  0  0  0  0  0  0  0
   11.3171   -3.4150   -1.5518 C   0  0  0  1  0  0  0  0  0  0  0  0
    3.7776   -0.1585   -0.0729 N   0  0  0  1  0  0  0  0  0  0  0  0
    4.5775   -0.3487   -1.2898 C   0  0  0  1  0  0  0  0  0  0  0  0
    3.6869   -0.2409   -2.5331 C   0  0  0  1  0  0  0  0  0  0  0  0
    3.6873   -1.6331   -3.1523 C   0  0  0  1  0  0  0  0  0  0  0  0
    5.0469   -2.2301   -2.7667 C   0  0  0  1  0  0  0  0  0  0  0  0
    5.1807   -1.7620   -1.3151 C   0  0  0  1  0  0  0  0  0  0  0  0
    6.1331   -1.6906   -3.6108 N   0  0  0  1  0  0  0  0  0  0  0  0
    3.2546   -0.2944    4.2520 H   0  0  0  1  0  0  0  0  0  0  0  0
    5.9151   -1.0934    5.6657 H   0  0  0  1  0  0  0  0  0  0  0  0
    7.4739   -3.3372    1.2729 H   0  0  0  1  0  0  0  0  0  0  0  0
    9.2472   -3.8170   -0.3118 H   0  0  0  1  0  0  0  0  0  0  0  0
   11.1816   -0.2529    0.7766 H   0  0  0  1  0  0  0  0  0  0  0  0
    9.4112    0.2262    2.3587 H   0  0  0  1  0  0  0  0  0  0  0  0
   11.1364   -4.2756   -0.9423 H   0  0  0  1  0  0  0  0  0  0  0  0
   12.2440   -3.5353   -2.0725 H   0  0  0  1  0  0  0  0  0  0  0  0
   10.5216   -3.3058   -2.2591 H   0  0  0  1  0  0  0  0  0  0  0  0
    2.8462    0.1354   -0.1548 H   0  0  0  1  0  0  0  0  0  0  0  0
    5.3541    0.3865   -1.3253 H   0  0  0  1  0  0  0  0  0  0  0  0
    4.0883    0.4744   -3.2202 H   0  0  0  1  0  0  0  0  0  0  0  0
    2.6935    0.0463   -2.2582 H   0  0  0  1  0  0  0  0  0  0  0  0
    3.5897   -1.5729   -4.2161 H   0  0  0  1  0  0  0  0  0  0  0  0
    2.8891   -2.2236   -2.7533 H   0  0  0  1  0  0  0  0  0  0  0  0
    5.0388   -3.2980   -2.8343 H   0  0  0  1  0  0  0  0  0  0  0  0
    6.2097   -1.7359   -1.0228 H   0  0  0  1  0  0  0  0  0  0  0  0
    4.6397   -2.4124   -0.6599 H   0  0  0  1  0  0  0  0  0  0  0  0
    6.9997   -1.9549   -3.2372 H   0  0  0  1  0  0  0  0  0  0  0  0
    6.0725   -0.7128   -3.6352 H   0  0  0  1  0  0  0  0  0  0  0  0
  1  2  4  0  0  0  0
  1  6  4  0  0  0  0
  1 18  1  0  0  0  0
  2  3  4  0  0  0  0
  3  4  4  0  0  0  0
  3 25  1  0  0  0  0
  4  5  4  0  0  0  0
  4  7  4  0  0  0  0
  5  6  4  0  0  0  0
  5  9  4  0  0  0  0
  7  8  4  0  0  0  0
  7 26  1  0  0  0  0
  8  9  4  0  0  0  0
  9 10  1  0  0  0  0
 10 11  4  0  0  0  0
 10 15  4  0  0  0  0
 11 12  4  0  0  0  0
 11 27  1  0  0  0  0
 12 13  4  0  0  0  0
 12 28  1  0  0  0  0
 13 14  4  0  0  0  0
 13 16  1  0  0  0  0
 14 15  4  0  0  0  0
 14 29  1  0  0  0  0
 15 30  1  0  0  0  0
 16 17  1  0  0  0  0
 17 31  1  0  0  0  0
 17 32  1  0  0  0  0
 17 33  1  0  0  0  0
 18 19  1  0  0  0  0
 18 34  1  0  0  0  0
 19 20  1  0  0  0  0
 19 23  1  0  0  0  0
 19 35  1  0  0  0  0
 20 21  1  0  0  0  0
 20 36  1  0  0  0  0
 20 37  1  0  0  0  0
 21 22  1  0  0  0  0
 21 38  1  0  0  0  0
 21 39  1  0  0  0  0
 22 23  1  0  0  0  0
 22 24  1  0  0  0  0
 22 40  1  0  0  0  0
 23 41  1  0  0  0  0
 23 42  1  0  0  0  0
 24 43  1  0  0  0  0
 24 44  1  0  0  0  0
M  END
> <ConfClashScore>
0 

> <ConfOneFourInteractionScore>
-0.985399 

> <ConfScore>
-0.038887 

> <ConfScorePBest>
0.00327336 

> <ConfTolerance>
0.313284 

$$$$
c22.sdf
 OpenBabel04162418103D

 44 47  0  0  0  0  0  0  0  0999 V2000
    3.2007   -1.0028    1.1168 C   0  0  0  1  0  0  0  0  0  0  0  0
    3.7562    0.1327    1.5516 N   0  0  0  1  0  0  0  0  0  0  0  0
    3.5370    0.4959    2.8312 C   0  0  0  1  0  0  0  0  0  0  0  0
    2.7332   -0.3473    3.6526 C   0  0  0  1  0  0  0  0  0  0  0  0
    2.2407   -1.4915    3.0371 C   0  0  0  1  0  0  0  0  0  0  0  0
    2.4378   -1.8780    1.7542 N   0  0  0  1  0  0  0  0  0  0  0  0
    2.2447   -0.4284    4.9723 C   0  0  0  1  0  0  0  0  0  0  0  0
    1.5181   -1.5061    5.1584 N   0  0  0  1  0  0  0  0  0  0  0  0
    1.5163   -2.1640    3.9597 N   0  0  0  1  0  0  0  0  0  0  0  0
    0.8419   -3.3926    3.7157 C   0  0  0  1  0  0  0  0  0  0  0  0
    1.5625   -4.5182    3.3639 C   0  0  0  1  0  0  0  0  0  0  0  0
    0.9058   -5.7167    3.1314 C   0  0  0  1  0  0  0  0  0  0  0  0
   -0.4699   -5.7847    3.2462 C   0  0  0  1  0  0  0  0  0  0  0  0
   -1.1924   -4.6555    3.5990 C   0  0  0  1  0  0  0  0  0  0  0  0
   -0.5378   -3.4605    3.8309 C   0  0  0  1  0  0  0  0  0  0  0  0
   -0.9996   -7.0045    2.9905 O   0  0  0  1  0  0  0  0  0  0  0  0
   -2.4299   -7.1227    3.0425 C   0  0  0  1  0  0  0  0  0  0  0  0
    3.4566   -1.3036   -0.1692 N   0  0  0  1  0  0  0  0  0  0  0  0
    4.3101   -0.4919   -1.0452 C   0  0  0  1  0  0  0  0  0  0  0  0
    3.5803   -0.1412   -2.3505 C   0  0  0  1  0  0  0  0  0  0  0  0
    3.8490   -1.3013   -3.2969 C   0  0  0  1  0  0  0  0  0  0  0  0
    4.9390   -2.1571   -2.6460 C   0  0  0  1  0  0  0  0  0  0  0  0
    5.5210   -1.2891   -1.5163 C   0  0  0  1  0  0  0  0  0  0  0  0
    5.9905   -2.4955   -3.6334 N   0  0  0  1  0  0  0  0  0  0  0  0
    3.9460    1.3734    3.2112 H   0  0  0  1  0  0  0  0  0  0  0  0
    2.4365    0.2798    5.7094 H   0  0  0  1  0  0  0  0  0  0  0  0
    2.5973   -4.4662    3.2737 H   0  0  0  1  0  0  0  0  0  0  0  0
    1.4484   -6.5647    2.8706 H   0  0  0  1  0  0  0  0  0  0  0  0
   -2.2272   -4.7076    3.6893 H   0  0  0  1  0  0  0  0  0  0  0  0
   -1.0803   -2.6124    4.0917 H   0  0  0  1  0  0  0  0  0  0  0  0
   -2.7139   -8.1278    2.8102 H   0  0  0  1  0  0  0  0  0  0  0  0
   -2.8688   -6.4548    2.3310 H   0  0  0  1  0  0  0  0  0  0  0  0
   -2.7727   -6.8735    4.0250 H   0  0  0  1  0  0  0  0  0  0  0  0
    3.0490   -2.1125   -0.5433 H   0  0  0  1  0  0  0  0  0  0  0  0
    4.6137    0.3938   -0.5273 H   0  0  0  1  0  0  0  0  0  0  0  0
    2.5298   -0.0391   -2.1746 H   0  0  0  1  0  0  0  0  0  0  0  0
    3.9643    0.7701   -2.7592 H   0  0  0  1  0  0  0  0  0  0  0  0
    2.9590   -1.8793   -3.4334 H   0  0  0  1  0  0  0  0  0  0  0  0
    4.1852   -0.9340   -4.2440 H   0  0  0  1  0  0  0  0  0  0  0  0
    4.5198   -3.0575   -2.2479 H   0  0  0  1  0  0  0  0  0  0  0  0
    5.9134   -1.8960   -0.7273 H   0  0  0  1  0  0  0  0  0  0  0  0
    6.2890   -0.6416   -1.8846 H   0  0  0  1  0  0  0  0  0  0  0  0
    6.7418   -2.9276   -3.1760 H   0  0  0  1  0  0  0  0  0  0  0  0
    6.3026   -1.6764   -4.0716 H   0  0  0  1  0  0  0  0  0  0  0  0
  1  2  4  0  0  0  0
  1  6  4  0  0  0  0
  1 18  1  0  0  0  0
  2  3  4  0  0  0  0
  3  4  4  0  0  0  0
  3 25  1  0  0  0  0
  4  5  4  0  0  0  0
  4  7  4  0  0  0  0
  5  6  4  0  0  0  0
  5  9  4  0  0  0  0
  7  8  4  0  0  0  0
  7 26  1  0  0  0  0
  8  9  4  0  0  0  0
  9 10  1  0  0  0  0
 10 11  4  0  0  0  0
 10 15  4  0  0  0  0
 11 12  4  0  0  0  0
 11 27  1  0  0  0  0
 12 13  4  0  0  0  0
 12 28  1  0  0  0  0
 13 14  4  0  0  0  0
 13 16  1  0  0  0  0
 14 15  4  0  0  0  0
 14 29  1  0  0  0  0
 15 30  1  0  0  0  0
 16 17  1  0  0  0  0
 17 31  1  0  0  0  0
 17 32  1  0  0  0  0
 17 33  1  0  0  0  0
 18 19  1  0  0  0  0
 18 34  1  0  0  0  0
 19 20  1  0  0  0  0
 19 23  1  0  0  0  0
 19 35  1  0  0  0  0
 20 21  1  0  0  0  0
 20 36  1  0  0  0  0
 20 37  1  0  0  0  0
 21 22  1  0  0  0  0
 21 38  1  0  0  0  0
 21 39  1  0  0  0  0
 22 23  1  0  0  0  0
 22 24  1  0  0  0  0
 22 40  1  0  0  0  0
 23 41  1  0  0  0  0
 23 42  1  0  0  0  0
 24 43  1  0  0  0  0
 24 44  1  0  0  0  0
M  END
> <ConfClashScore>
0 

> <ConfOneFourInteractionScore>
-0.984337 

> <ConfScore>
-0.0364345 

> <ConfScorePBest>
0.00326003 

> <ConfTolerance>
0.282801 

$$$$
c22.sdf
 OpenBabel04162418103D

 44 47  0  0  0  0  0  0  0  0999 V2000
    5.0527    0.2125    1.0878 C   0  0  0  1  0  0  0  0  0  0  0  0
    6.2810   -0.2561    0.8455 N   0  0  0  1  0  0  0  0  0  0  0  0
    7.1590   -0.2910    1.8678 C   0  0  0  1  0  0  0  0  0  0  0  0
    6.7339    0.1658    3.1494 C   0  0  0  1  0  0  0  0  0  0  0  0
    5.4209    0.6147    3.2211 C   0  0  0  1  0  0  0  0  0  0  0  0
    4.5198    0.6682    2.2115 N   0  0  0  1  0  0  0  0  0  0  0  0
    7.2214    0.3150    4.4635 C   0  0  0  1  0  0  0  0  0  0  0  0
    6.3106    0.8114    5.2686 N   0  0  0  1  0  0  0  0  0  0  0  0
    5.1959    0.9965    4.4985 N   0  0  0  1  0  0  0  0  0  0  0  0
    3.9747    1.5163    4.9733 C   0  0  0  1  0  0  0  0  0  0  0  0
    3.2687    0.9242    6.0034 C   0  0  0  1  0  0  0  0  0  0  0  0
    2.0747    1.4807    6.4347 C   0  0  0  1  0  0  0  0  0  0  0  0
    1.5875    2.6247    5.8313 C   0  0  0  1  0  0  0  0  0  0  0  0
    2.2957    3.2185    4.7981 C   0  0  0  1  0  0  0  0  0  0  0  0
    3.4862    2.6637    4.3679 C   0  0  0  1  0  0  0  0  0  0  0  0
    0.4688    3.2157    6.3142 O   0  0  0  1  0  0  0  0  0  0  0  0
   -0.0412    4.3460    5.5897 C   0  0  0  1  0  0  0  0  0  0  0  0
    4.2175    0.2229    0.0092 N   0  0  0  1  0  0  0  0  0  0  0  0
    4.6498   -0.2472   -1.2951 C   0  0  0  1  0  0  0  0  0  0  0  0
    3.4603   -0.4132   -2.2487 C   0  0  0  1  0  0  0  0  0  0  0  0
    3.8588   -1.4423   -3.3017 C   0  0  0  1  0  0  0  0  0  0  0  0
    5.0715   -2.2058   -2.6641 C   0  0  0  1  0  0  0  0  0  0  0  0
    5.2138   -1.7054   -1.2148 C   0  0  0  1  0  0  0  0  0  0  0  0
    6.3197   -1.9142   -3.4307 N   0  0  0  1  0  0  0  0  0  0  0  0
    8.1268   -0.6439    1.7244 H   0  0  0  1  0  0  0  0  0  0  0  0
    8.1859    0.0625    4.7597 H   0  0  0  1  0  0  0  0  0  0  0  0
    3.6333    0.0611    6.4548 H   0  0  0  1  0  0  0  0  0  0  0  0
    1.5455    1.0375    7.2126 H   0  0  0  1  0  0  0  0  0  0  0  0
    1.9312    4.0816    4.3466 H   0  0  0  1  0  0  0  0  0  0  0  0
    4.0155    3.1069    3.5901 H   0  0  0  1  0  0  0  0  0  0  0  0
    0.7188    5.0955    5.5160 H   0  0  0  1  0  0  0  0  0  0  0  0
   -0.8886    4.7470    6.1054 H   0  0  0  1  0  0  0  0  0  0  0  0
   -0.3338    4.0374    4.6078 H   0  0  0  1  0  0  0  0  0  0  0  0
    3.3023    0.5562    0.1173 H   0  0  0  1  0  0  0  0  0  0  0  0
    5.3766    0.4284   -1.6954 H   0  0  0  1  0  0  0  0  0  0  0  0
    2.6034   -0.7569   -1.7077 H   0  0  0  1  0  0  0  0  0  0  0  0
    3.2349    0.5215   -2.7181 H   0  0  0  1  0  0  0  0  0  0  0  0
    3.0500   -2.1146   -3.4987 H   0  0  0  1  0  0  0  0  0  0  0  0
    4.1515   -0.9595   -4.2106 H   0  0  0  1  0  0  0  0  0  0  0  0
    4.8859   -3.2595   -2.6714 H   0  0  0  1  0  0  0  0  0  0  0  0
    6.2382   -1.7059   -0.9057 H   0  0  0  1  0  0  0  0  0  0  0  0
    4.6374   -2.3051   -0.5417 H   0  0  0  1  0  0  0  0  0  0  0  0
    6.4629   -0.9454   -3.4663 H   0  0  0  1  0  0  0  0  0  0  0  0
    6.2327   -2.2650   -4.3417 H   0  0  0  1  0  0  0  0  0  0  0  0
  1  2  4  0  0  0  0
  1  6  4  0  0  0  0
  1 18  1  0  0  0  0
  2  3  4  0  0  0  0
  3  4  4  0  0  0  0
  3 25  1  0  0  0  0
  4  5  4  0  0  0  0
  4  7  4  0  0  0  0
  5  6  4  0  0  0  0
  5  9  4  0  0  0  0
  7  8  4  0  0  0  0
  7 26  1  0  0  0  0
  8  9  4  0  0  0  0
  9 10  1  0  0  0  0
 10 11  4  0  0  0  0
 10 15  4  0  0  0  0
 11 12  4  0  0  0  0
 11 27  1  0  0  0  0
 12 13  4  0  0  0  0
 12 28  1  0  0  0  0
 13 14  4  0  0  0  0
 13 16  1  0  0  0  0
 14 15  4  0  0  0  0
 14 29  1  0  0  0  0
 15 30  1  0  0  0  0
 16 17  1  0  0  0  0
 17 31  1  0  0  0  0
 17 32  1  0  0  0  0
 17 33  1  0  0  0  0
 18 19  1  0  0  0  0
 18 34  1  0  0  0  0
 19 20  1  0  0  0  0
 19 23  1  0  0  0  0
 19 35  1  0  0  0  0
 20 21  1  0  0  0  0
 20 36  1  0  0  0  0
 20 37  1  0  0  0  0
 21 22  1  0  0  0  0
 21 38  1  0  0  0  0
 21 39  1  0  0  0  0
 22 23  1  0  0  0  0
 22 24  1  0  0  0  0
 22 40  1  0  0  0  0
 23 41  1  0  0  0  0
 23 42  1  0  0  0  0
 24 43  1  0  0  0  0
 24 44  1  0  0  0  0
M  END
> <ConfClashScore>
0 

> <ConfOneFourInteractionScore>
-0.985399 

> <ConfScore>
-0.0358845 

> <ConfScorePBest>
0.0032467 

> <ConfTolerance>
0.276779 

$$$$
c22.sdf
 OpenBabel04162418103D

 44 47  0  0  0  0  0  0  0  0999 V2000
    3.8074   -1.4171    1.2292 C   0  0  0  1  0  0  0  0  0  0  0  0
    2.9102   -2.0874    1.9591 N   0  0  0  1  0  0  0  0  0  0  0  0
    3.2148   -2.3601    3.2437 C   0  0  0  1  0  0  0  0  0  0  0  0
    4.4686   -1.9175    3.7573 C   0  0  0  1  0  0  0  0  0  0  0  0
    5.2758   -1.2302    2.8592 C   0  0  0  1  0  0  0  0  0  0  0  0
    5.0002   -0.9483    1.5636 N   0  0  0  1  0  0  0  0  0  0  0  0
    5.2148   -1.9283    4.9531 C   0  0  0  1  0  0  0  0  0  0  0  0
    6.3692   -1.3183    4.8135 N   0  0  0  1  0  0  0  0  0  0  0  0
    6.4062   -0.8861    3.5168 N   0  0  0  1  0  0  0  0  0  0  0  0
    7.4908   -0.1690    2.9360 C   0  0  0  1  0  0  0  0  0  0  0  0
    7.8236    1.0852    3.4119 C   0  0  0  1  0  0  0  0  0  0  0  0
    8.8827    1.7809    2.8501 C   0  0  0  1  0  0  0  0  0  0  0  0
    9.6026    1.2228    1.8106 C   0  0  0  1  0  0  0  0  0  0  0  0
    9.2687   -0.0351    1.3334 C   0  0  0  1  0  0  0  0  0  0  0  0
    8.2127   -0.7289    1.8934 C   0  0  0  1  0  0  0  0  0  0  0  0
   10.6094    1.9965    1.3398 O   0  0  0  1  0  0  0  0  0  0  0  0
   11.4520    1.4304    0.3239 C   0  0  0  1  0  0  0  0  0  0  0  0
    3.4365   -1.1785   -0.0618 N   0  0  0  1  0  0  0  0  0  0  0  0
    4.3088   -0.4569   -0.9929 C   0  0  0  1  0  0  0  0  0  0  0  0
    3.5830   -0.1688   -2.3173 C   0  0  0  1  0  0  0  0  0  0  0  0
    4.0715   -1.1734   -3.3490 C   0  0  0  1  0  0  0  0  0  0  0  0
    4.9639   -2.1674   -2.5815 C   0  0  0  1  0  0  0  0  0  0  0  0
    5.4816   -1.3214   -1.4213 C   0  0  0  1  0  0  0  0  0  0  0  0
    6.0772   -2.6505   -3.4290 N   0  0  0  1  0  0  0  0  0  0  0  0
    2.5486   -2.8827    3.8475 H   0  0  0  1  0  0  0  0  0  0  0  0
    4.8904   -2.3666    5.8387 H   0  0  0  1  0  0  0  0  0  0  0  0
    7.2794    1.5069    4.1914 H   0  0  0  1  0  0  0  0  0  0  0  0
    9.1357    2.7230    3.2108 H   0  0  0  1  0  0  0  0  0  0  0  0
    9.8129   -0.4568    0.5539 H   0  0  0  1  0  0  0  0  0  0  0  0
    7.9597   -1.6710    1.5327 H   0  0  0  1  0  0  0  0  0  0  0  0
   11.8000    0.4701    0.6427 H   0  0  0  1  0  0  0  0  0  0  0  0
   12.2893    2.0750    0.1553 H   0  0  0  1  0  0  0  0  0  0  0  0
   10.8946    1.3244   -0.5832 H   0  0  0  1  0  0  0  0  0  0  0  0
    2.5645   -1.4978   -0.3747 H   0  0  0  1  0  0  0  0  0  0  0  0
    4.6472    0.4495   -0.5358 H   0  0  0  1  0  0  0  0  0  0  0  0
    3.8059    0.8252   -2.6447 H   0  0  0  1  0  0  0  0  0  0  0  0
    2.5266   -0.2718   -2.1822 H   0  0  0  1  0  0  0  0  0  0  0  0
    4.6361   -0.6788   -4.1116 H   0  0  0  1  0  0  0  0  0  0  0  0
    3.2424   -1.6839   -3.7928 H   0  0  0  1  0  0  0  0  0  0  0  0
    4.3962   -3.0024   -2.2274 H   0  0  0  1  0  0  0  0  0  0  0  0
    6.2995   -0.7098   -1.7407 H   0  0  0  1  0  0  0  0  0  0  0  0
    5.7983   -1.9482   -0.6140 H   0  0  0  1  0  0  0  0  0  0  0  0
    6.6740   -1.9031   -3.6425 H   0  0  0  1  0  0  0  0  0  0  0  0
    5.7162   -3.0272   -4.2586 H   0  0  0  1  0  0  0  0  0  0  0  0
  1  2  4  0  0  0  0
  1  6  4  0  0  0  0
  1 18  1  0  0  0  0
  2  3  4  0  0  0  0
  3  4  4  0  0  0  0
  3 25  1  0  0  0  0
  4  5  4  0  0  0  0
  4  7  4  0  0  0  0
  5  6  4  0  0  0  0
  5  9  4  0  0  0  0
  7  8  4  0  0  0  0
  7 26  1  0  0  0  0
  8  9  4  0  0  0  0
  9 10  1  0  0  0  0
 10 11  4  0  0  0  0
 10 15  4  0  0  0  0
 11 12  4  0  0  0  0
 11 27  1  0  0  0  0
 12 13  4  0  0  0  0
 12 28  1  0  0  0  0
 13 14  4  0  0  0  0
 13 16  1  0  0  0  0
 14 15  4  0  0  0  0
 14 29  1  0  0  0  0
 15 30  1  0  0  0  0
 16 17  1  0  0  0  0
 17 31  1  0  0  0  0
 17 32  1  0  0  0  0
 17 33  1  0  0  0  0
 18 19  1  0  0  0  0
 18 34  1  0  0  0  0
 19 20  1  0  0  0  0
 19 23  1  0  0  0  0
 19 35  1  0  0  0  0
 20 21  1  0  0  0  0
 20 36  1  0  0  0  0
 20 37  1  0  0  0  0
 21 22  1  0  0  0  0
 21 38  1  0  0  0  0
 21 39  1  0  0  0  0
 22 23  1  0  0  0  0
 22 24  1  0  0  0  0
 22 40  1  0  0  0  0
 23 41  1  0  0  0  0
 23 42  1  0  0  0  0
 24 43  1  0  0  0  0
 24 44  1  0  0  0  0
M  END
> <ConfClashScore>
0 

> <ConfOneFourInteractionScore>
-0.984337 

> <ConfScore>
-0.0358845 

> <ConfScorePBest>
0.00323337 

> <ConfTolerance>
0.26759 

$$$$
c22.sdf
 OpenBabel04162418103D

 44 47  0  0  0  0  0  0  0  0999 V2000
    4.2238    0.6177    1.0221 C   0  0  0  1  0  0  0  0  0  0  0  0
    3.3286    0.7309    2.0085 N   0  0  0  1  0  0  0  0  0  0  0  0
    3.6907    1.4043    3.1187 C   0  0  0  1  0  0  0  0  0  0  0  0
    5.0005    1.9632    3.1821 C   0  0  0  1  0  0  0  0  0  0  0  0
    5.7971    1.7530    2.0633 C   0  0  0  1  0  0  0  0  0  0  0  0
    5.4637    1.0758    0.9388 N   0  0  0  1  0  0  0  0  0  0  0  0
    5.8150    2.7208    4.0478 C   0  0  0  1  0  0  0  0  0  0  0  0
    6.9977    2.9527    3.5267 N   0  0  0  1  0  0  0  0  0  0  0  0
    6.9858    2.3532    2.2977 N   0  0  0  1  0  0  0  0  0  0  0  0
    8.0725    2.3601    1.3923 C   0  0  0  1  0  0  0  0  0  0  0  0
    8.8130    1.2104    1.1929 C   0  0  0  1  0  0  0  0  0  0  0  0
    9.8746    1.2158    0.3015 C   0  0  0  1  0  0  0  0  0  0  0  0
   10.1958    2.3722   -0.3839 C   0  0  0  1  0  0  0  0  0  0  0  0
    9.4529    3.5253   -0.1838 C   0  0  0  1  0  0  0  0  0  0  0  0
    8.3945    3.5201    0.7050 C   0  0  0  1  0  0  0  0  0  0  0  0
   11.2098    2.4992   -1.2724 O   0  0  0  1  0  0  0  0  0  0  0  0
   11.8831    1.2966   -1.6761 C   0  0  0  1  0  0  0  0  0  0  0  0
    3.7973   -0.0712   -0.0579 N   0  0  0  1  0  0  0  0  0  0  0  0
    4.6179   -0.3118   -1.2520 C   0  0  0  1  0  0  0  0  0  0  0  0
    3.7516   -0.2409   -2.5150 C   0  0  0  1  0  0  0  0  0  0  0  0
    3.7503   -1.6543   -3.0840 C   0  0  0  1  0  0  0  0  0  0  0  0
    5.0969   -2.2490   -2.6517 C   0  0  0  1  0  0  0  0  0  0  0  0
    5.2081   -1.7303   -1.2155 C   0  0  0  1  0  0  0  0  0  0  0  0
    6.2168   -1.7436   -3.5039 N   0  0  0  1  0  0  0  0  0  0  0  0
    3.0281    1.5137    3.9128 H   0  0  0  1  0  0  0  0  0  0  0  0
    5.5154    3.0555    4.9857 H   0  0  0  1  0  0  0  0  0  0  0  0
    8.5739    0.3413    1.7115 H   0  0  0  1  0  0  0  0  0  0  0  0
   10.4293    0.3495    0.1484 H   0  0  0  1  0  0  0  0  0  0  0  0
    9.6921    4.3945   -0.7024 H   0  0  0  1  0  0  0  0  0  0  0  0
    7.8397    4.3863    0.8581 H   0  0  0  1  0  0  0  0  0  0  0  0
   11.1857    0.4851   -1.6924 H   0  0  0  1  0  0  0  0  0  0  0  0
   12.6683    1.0778   -0.9829 H   0  0  0  1  0  0  0  0  0  0  0  0
   12.2968    1.4306   -2.6537 H   0  0  0  1  0  0  0  0  0  0  0  0
    2.8862   -0.4321   -0.0443 H   0  0  0  1  0  0  0  0  0  0  0  0
    5.4019    0.4148   -1.2990 H   0  0  0  1  0  0  0  0  0  0  0  0
    2.7560    0.0646   -2.2693 H   0  0  0  1  0  0  0  0  0  0  0  0
    4.1723    0.4458   -3.2194 H   0  0  0  1  0  0  0  0  0  0  0  0
    2.9394   -2.2232   -2.6793 H   0  0  0  1  0  0  0  0  0  0  0  0
    3.6731   -1.6314   -4.1509 H   0  0  0  1  0  0  0  0  0  0  0  0
    5.0800   -3.3184   -2.6814 H   0  0  0  1  0  0  0  0  0  0  0  0
    6.2317   -1.7027   -0.9049 H   0  0  0  1  0  0  0  0  0  0  0  0
    4.6490   -2.3521   -0.5479 H   0  0  0  1  0  0  0  0  0  0  0  0
    6.2663   -0.7673   -3.4339 H   0  0  0  1  0  0  0  0  0  0  0  0
    6.0565   -1.9962   -4.4371 H   0  0  0  1  0  0  0  0  0  0  0  0
  1  2  4  0  0  0  0
  1  6  4  0  0  0  0
  1 18  1  0  0  0  0
  2  3  4  0  0  0  0
  3  4  4  0  0  0  0
  3 25  1  0  0  0  0
  4  5  4  0  0  0  0
  4  7  4  0  0  0  0
  5  6  4  0  0  0  0
  5  9  4  0  0  0  0
  7  8  4  0  0  0  0
  7 26  1  0  0  0  0
  8  9  4  0  0  0  0
  9 10  1  0  0  0  0
 10 11  4  0  0  0  0
 10 15  4  0  0  0  0
 11 12  4  0  0  0  0
 11 27  1  0  0  0  0
 12 13  4  0  0  0  0
 12 28  1  0  0  0  0
 13 14  4  0  0  0  0
 13 16  1  0  0  0  0
 14 15  4  0  0  0  0
 14 29  1  0  0  0  0
 15 30  1  0  0  0  0
 16 17  1  0  0  0  0
 17 31  1  0  0  0  0
 17 32  1  0  0  0  0
 17 33  1  0  0  0  0
 18 19  1  0  0  0  0
 18 34  1  0  0  0  0
 19 20  1  0  0  0  0
 19 23  1  0  0  0  0
 19 35  1  0  0  0  0
 20 21  1  0  0  0  0
 20 36  1  0  0  0  0
 20 37  1  0  0  0  0
 21 22  1  0  0  0  0
 21 38  1  0  0  0  0
 21 39  1  0  0  0  0
 22 23  1  0  0  0  0
 22 24  1  0  0  0  0
 22 40  1  0  0  0  0
 23 41  1  0  0  0  0
 23 42  1  0  0  0  0
 24 43  1  0  0  0  0
 24 44  1  0  0  0  0
M  END
> <ConfClashScore>
0 

> <ConfOneFourInteractionScore>
-0.984337 

> <ConfScore>
-0.0338307 

> <ConfScorePBest>
0.00322004 

> <ConfTolerance>
0.393026 

$$$$
c22.sdf
 OpenBabel04162418103D

 44 47  0  0  0  0  0  0  0  0999 V2000
    2.1773   -0.8222    0.3474 C   0  0  0  1  0  0  0  0  0  0  0  0
    1.8726    0.4051   -0.0862 N   0  0  0  1  0  0  0  0  0  0  0  0
    0.6892    0.9329    0.2856 C   0  0  0  1  0  0  0  0  0  0  0  0
   -0.1701    0.1622    1.1220 C   0  0  0  1  0  0  0  0  0  0  0  0
    0.3092   -1.0915    1.4813 C   0  0  0  1  0  0  0  0  0  0  0  0
    1.4882   -1.6501    1.1181 N   0  0  0  1  0  0  0  0  0  0  0  0
   -1.4216    0.2500    1.7645 C   0  0  0  1  0  0  0  0  0  0  0  0
   -1.6971   -0.8373    2.4471 N   0  0  0  1  0  0  0  0  0  0  0  0
   -0.6249   -1.6675    2.2714 N   0  0  0  1  0  0  0  0  0  0  0  0
   -0.5074   -2.9669    2.8447 C   0  0  0  1  0  0  0  0  0  0  0  0
   -0.5344   -4.0859    2.0340 C   0  0  0  1  0  0  0  0  0  0  0  0
   -0.5082   -5.3515    2.5988 C   0  0  0  1  0  0  0  0  0  0  0  0
   -0.4605   -5.4945    3.9727 C   0  0  0  1  0  0  0  0  0  0  0  0
   -0.4334   -4.3720    4.7857 C   0  0  0  1  0  0  0  0  0  0  0  0
   -0.4596   -3.1100    4.2227 C   0  0  0  1  0  0  0  0  0  0  0  0
   -0.3158   -6.7436    4.4664 O   0  0  0  1  0  0  0  0  0  0  0  0
   -0.4442   -7.8711    3.5861 C   0  0  0  1  0  0  0  0  0  0  0  0
    3.3869   -1.2958   -0.0689 N   0  0  0  1  0  0  0  0  0  0  0  0
    4.2531   -0.5186   -0.9612 C   0  0  0  1  0  0  0  0  0  0  0  0
    3.4873   -0.1419   -2.2608 C   0  0  0  1  0  0  0  0  0  0  0  0
    4.1664   -0.9069   -3.4105 C   0  0  0  1  0  0  0  0  0  0  0  0
    4.9915   -2.0270   -2.7479 C   0  0  0  1  0  0  0  0  0  0  0  0
    5.4822   -1.3795   -1.4087 C   0  0  0  1  0  0  0  0  0  0  0  0
    6.1333   -2.4109   -3.5957 N   0  0  0  1  0  0  0  0  0  0  0  0
    0.4088    1.8829   -0.0314 H   0  0  0  1  0  0  0  0  0  0  0  0
   -2.0506    1.0761    1.7051 H   0  0  0  1  0  0  0  0  0  0  0  0
   -0.5743   -3.9784    1.0004 H   0  0  0  1  0  0  0  0  0  0  0  0
   -0.5244   -6.1936    1.9887 H   0  0  0  1  0  0  0  0  0  0  0  0
   -0.3935   -4.4795    5.8194 H   0  0  0  1  0  0  0  0  0  0  0  0
   -0.4433   -2.2679    4.8327 H   0  0  0  1  0  0  0  0  0  0  0  0
   -1.4035   -7.8471    3.1127 H   0  0  0  1  0  0  0  0  0  0  0  0
   -0.3472   -8.7758    4.1492 H   0  0  0  1  0  0  0  0  0  0  0  0
    0.3223   -7.8304    2.8406 H   0  0  0  1  0  0  0  0  0  0  0  0
    3.6847   -2.1783    0.2361 H   0  0  0  1  0  0  0  0  0  0  0  0
    4.5840    0.3653   -0.4571 H   0  0  0  1  0  0  0  0  0  0  0  0
    3.5486    0.9124   -2.4325 H   0  0  0  1  0  0  0  0  0  0  0  0
    2.4604   -0.4317   -2.1809 H   0  0  0  1  0  0  0  0  0  0  0  0
    3.4300   -1.3252   -4.0644 H   0  0  0  1  0  0  0  0  0  0  0  0
    4.8062   -0.2527   -3.9650 H   0  0  0  1  0  0  0  0  0  0  0  0
    4.3839   -2.8867   -2.5563 H   0  0  0  1  0  0  0  0  0  0  0  0
    5.7115   -2.1294   -0.6807 H   0  0  0  1  0  0  0  0  0  0  0  0
    6.3428   -0.7650   -1.5717 H   0  0  0  1  0  0  0  0  0  0  0  0
    5.8035   -2.8167   -4.4245 H   0  0  0  1  0  0  0  0  0  0  0  0
    6.6932   -3.0567   -3.1163 H   0  0  0  1  0  0  0  0  0  0  0  0
  1  2  4  0  0  0  0
  1  6  4  0  0  0  0
  1 18  1  0  0  0  0
  2  3  4  0  0  0  0
  3  4  4  0  0  0  0
  3 25  1  0  0  0  0
  4  5  4  0  0  0  0
  4  7  4  0  0  0  0
  5  6  4  0  0  0  0
  5  9  4  0  0  0  0
  7  8  4  0  0  0  0
  7 26  1  0  0  0  0
  8  9  4  0  0  0  0
  9 10  1  0  0  0  0
 10 11  4  0  0  0  0
 10 15  4  0  0  0  0
 11 12  4  0  0  0  0
 11 27  1  0  0  0  0
 12 13  4  0  0  0  0
 12 28  1  0  0  0  0
 13 14  4  0  0  0  0
 13 16  1  0  0  0  0
 14 15  4  0  0  0  0
 14 29  1  0  0  0  0
 15 30  1  0  0  0  0
 16 17  1  0  0  0  0
 17 31  1  0  0  0  0
 17 32  1  0  0  0  0
 17 33  1  0  0  0  0
 18 19  1  0  0  0  0
 18 34  1  0  0  0  0
 19 20  1  0  0  0  0
 19 23  1  0  0  0  0
 19 35  1  0  0  0  0
 20 21  1  0  0  0  0
 20 36  1  0  0  0  0
 20 37  1  0  0  0  0
 21 22  1  0  0  0  0
 21 38  1  0  0  0  0
 21 39  1  0  0  0  0
 22 23  1  0  0  0  0
 22 24  1  0  0  0  0
 22 40  1  0  0  0  0
 23 41  1  0  0  0  0
 23 42  1  0  0  0  0
 24 43  1  0  0  0  0
 24 44  1  0  0  0  0
M  END
> <ConfClashScore>
0 

> <ConfOneFourInteractionScore>
-0.985399 

> <ConfScore>
-0.0328375 

> <ConfScorePBest>
0.00320672 

> <ConfTolerance>
0.262834 

$$$$
c22.sdf
 OpenBabel04162418103D

 44 47  0  0  0  0  0  0  0  0999 V2000
    2.1862   -0.3000    0.2751 C   0  0  0  1  0  0  0  0  0  0  0  0
    2.4032    1.0125    0.1433 N   0  0  0  1  0  0  0  0  0  0  0  0
    1.4729    1.8603    0.6264 C   0  0  0  1  0  0  0  0  0  0  0  0
    0.3143    1.3174    1.2546 C   0  0  0  1  0  0  0  0  0  0  0  0
    0.2556   -0.0698    1.3085 C   0  0  0  1  0  0  0  0  0  0  0  0
    1.1694   -0.9454    0.8264 N   0  0  0  1  0  0  0  0  0  0  0  0
   -0.8681    1.7376    1.8965 C   0  0  0  1  0  0  0  0  0  0  0  0
   -1.5917    0.7197    2.3019 N   0  0  0  1  0  0  0  0  0  0  0  0
   -0.8952   -0.3992    1.9376 N   0  0  0  1  0  0  0  0  0  0  0  0
   -1.3246   -1.7338    2.1874 C   0  0  0  1  0  0  0  0  0  0  0  0
   -1.5748   -2.5884    1.1305 C   0  0  0  1  0  0  0  0  0  0  0  0
   -1.9876   -3.8891    1.3739 C   0  0  0  1  0  0  0  0  0  0  0  0
   -2.1541   -4.3299    2.6732 C   0  0  0  1  0  0  0  0  0  0  0  0
   -1.9031   -3.4725    3.7332 C   0  0  0  1  0  0  0  0  0  0  0  0
   -1.4915   -2.1756    3.4907 C   0  0  0  1  0  0  0  0  0  0  0  0
   -2.6529   -5.5661    2.9115 O   0  0  0  1  0  0  0  0  0  0  0  0
   -2.8579   -6.4210    1.7759 C   0  0  0  1  0  0  0  0  0  0  0  0
    3.1785   -1.1106   -0.2456 N   0  0  0  1  0  0  0  0  0  0  0  0
    4.2626   -0.4712   -0.9906 C   0  0  0  1  0  0  0  0  0  0  0  0
    3.7761   -0.0021   -2.4028 C   0  0  0  1  0  0  0  0  0  0  0  0
    3.8125   -1.3075   -3.2069 C   0  0  0  1  0  0  0  0  0  0  0  0
    5.0196   -2.1067   -2.7262 C   0  0  0  1  0  0  0  0  0  0  0  0
    5.3729   -1.4823   -1.3316 C   0  0  0  1  0  0  0  0  0  0  0  0
    6.1621   -1.9588   -3.6753 N   0  0  0  1  0  0  0  0  0  0  0  0
    1.5981    2.8893    0.5424 H   0  0  0  1  0  0  0  0  0  0  0  0
   -1.1351    2.7335    2.0326 H   0  0  0  1  0  0  0  0  0  0  0  0
   -1.4534   -2.2557    0.1527 H   0  0  0  1  0  0  0  0  0  0  0  0
   -2.1720   -4.5335    0.5786 H   0  0  0  1  0  0  0  0  0  0  0  0
   -2.0245   -3.8053    4.7111 H   0  0  0  1  0  0  0  0  0  0  0  0
   -1.3070   -1.5312    4.2859 H   0  0  0  1  0  0  0  0  0  0  0  0
   -3.1570   -7.3927    2.1098 H   0  0  0  1  0  0  0  0  0  0  0  0
   -1.9470   -6.4999    1.2201 H   0  0  0  1  0  0  0  0  0  0  0  0
   -3.6225   -6.0076    1.1519 H   0  0  0  1  0  0  0  0  0  0  0  0
    3.1559   -2.0822   -0.1193 H   0  0  0  1  0  0  0  0  0  0  0  0
    4.6496    0.3498   -0.4240 H   0  0  0  1  0  0  0  0  0  0  0  0
    4.4384    0.7282   -2.8185 H   0  0  0  1  0  0  0  0  0  0  0  0
    2.7850    0.3987   -2.3584 H   0  0  0  1  0  0  0  0  0  0  0  0
    3.9093   -1.0914   -4.2504 H   0  0  0  1  0  0  0  0  0  0  0  0
    2.9148   -1.8651   -3.0393 H   0  0  0  1  0  0  0  0  0  0  0  0
    4.7713   -3.1426   -2.6248 H   0  0  0  1  0  0  0  0  0  0  0  0
    5.4119   -2.2489   -0.5861 H   0  0  0  1  0  0  0  0  0  0  0  0
    6.3188   -0.9846   -1.3819 H   0  0  0  1  0  0  0  0  0  0  0  0
    5.9286   -2.3677   -4.5347 H   0  0  0  1  0  0  0  0  0  0  0  0
    6.9530   -2.4044   -3.3060 H   0  0  0  1  0  0  0  0  0  0  0  0
  1  2  4  0  0  0  0
  1  6  4  0  0  0  0
  1 18  1  0  0  0  0
  2  3  4  0  0  0  0
  3  4  4  0  0  0  0
  3 25  1  0  0  0  0
  4  5  4  0  0  0  0
  4  7  4  0  0  0  0
  5  6  4  0  0  0  0
  5  9  4  0  0  0  0
  7  8  4  0  0  0  0
  7 26  1  0  0  0  0
  8  9  4  0  0  0  0
  9 10  1  0  0  0  0
 10 11  4  0  0  0  0
 10 15  4  0  0  0  0
 11 12  4  0  0  0  0
 11 27  1  0  0  0  0
 12 13  4  0  0  0  0
 12 28  1  0  0  0  0
 13 14  4  0  0  0  0
 13 16  1  0  0  0  0
 14 15  4  0  0  0  0
 14 29  1  0  0  0  0
 15 30  1  0  0  0  0
 16 17  1  0  0  0  0
 17 31  1  0  0  0  0
 17 32  1  0  0  0  0
 17 33  1  0  0  0  0
 18 19  1  0  0  0  0
 18 34  1  0  0  0  0
 19 20  1  0  0  0  0
 19 23  1  0  0  0  0
 19 35  1  0  0  0  0
 20 21  1  0  0  0  0
 20 36  1  0  0  0  0
 20 37  1  0  0  0  0
 21 22  1  0  0  0  0
 21 38  1  0  0  0  0
 21 39  1  0  0  0  0
 22 23  1  0  0  0  0
 22 24  1  0  0  0  0
 22 40  1  0  0  0  0
 23 41  1  0  0  0  0
 23 42  1  0  0  0  0
 24 43  1  0  0  0  0
 24 44  1  0  0  0  0
M  END
> <ConfClashScore>
0 

> <ConfOneFourInteractionScore>
-0.981848 

> <ConfScore>
-0.0328375 

> <ConfScorePBest>
0.00319339 

> <ConfTolerance>
0.445187 

$$$$
c22.sdf
 OpenBabel04162418103D

 44 47  0  0  0  0  0  0  0  0999 V2000
    4.3664   -0.9583    1.3553 C   0  0  0  1  0  0  0  0  0  0  0  0
    5.7003   -0.9177    1.2759 N   0  0  0  1  0  0  0  0  0  0  0  0
    6.4097   -1.1705    2.3939 C   0  0  0  1  0  0  0  0  0  0  0  0
    5.7058   -1.4721    3.5962 C   0  0  0  1  0  0  0  0  0  0  0  0
    4.3200   -1.4756    3.4950 C   0  0  0  1  0  0  0  0  0  0  0  0
    3.5810   -1.2189    2.3895 N   0  0  0  1  0  0  0  0  0  0  0  0
    5.9539   -1.8044    4.9433 C   0  0  0  1  0  0  0  0  0  0  0  0
    4.8401   -1.9888    5.6137 N   0  0  0  1  0  0  0  0  0  0  0  0
    3.8287   -1.7852    4.7162 N   0  0  0  1  0  0  0  0  0  0  0  0
    2.4397   -1.8860    5.0269 C   0  0  0  1  0  0  0  0  0  0  0  0
    2.0319   -2.6345    6.1149 C   0  0  0  1  0  0  0  0  0  0  0  0
    0.6946   -2.6561    6.4790 C   0  0  0  1  0  0  0  0  0  0  0  0
   -0.2319   -1.9337    5.7509 C   0  0  0  1  0  0  0  0  0  0  0  0
    0.1773   -1.1830    4.6597 C   0  0  0  1  0  0  0  0  0  0  0  0
    1.5107   -1.1613    4.2966 C   0  0  0  1  0  0  0  0  0  0  0  0
   -1.5574   -1.8823    6.0066 O   0  0  0  1  0  0  0  0  0  0  0  0
   -2.0958   -2.6375    7.1031 C   0  0  0  1  0  0  0  0  0  0  0  0
    3.7187   -0.6922    0.2009 N   0  0  0  1  0  0  0  0  0  0  0  0
    4.3927   -0.3571   -1.0544 C   0  0  0  1  0  0  0  0  0  0  0  0
    3.3847   -0.3344   -2.2083 C   0  0  0  1  0  0  0  0  0  0  0  0
    4.1529   -0.8903   -3.3960 C   0  0  0  1  0  0  0  0  0  0  0  0
    4.9682   -2.0152   -2.7489 C   0  0  0  1  0  0  0  0  0  0  0  0
    5.4256   -1.4357   -1.4074 C   0  0  0  1  0  0  0  0  0  0  0  0
    6.1496   -2.3721   -3.6025 N   0  0  0  1  0  0  0  0  0  0  0  0
    7.4493   -1.1459    2.3796 H   0  0  0  1  0  0  0  0  0  0  0  0
    6.9043   -1.8928    5.3563 H   0  0  0  1  0  0  0  0  0  0  0  0
    2.7283   -3.1813    6.6604 H   0  0  0  1  0  0  0  0  0  0  0  0
    0.3883   -3.2161    7.3001 H   0  0  0  1  0  0  0  0  0  0  0  0
   -0.5191   -0.6362    4.1143 H   0  0  0  1  0  0  0  0  0  0  0  0
    1.8171   -0.6014    3.4755 H   0  0  0  1  0  0  0  0  0  0  0  0
   -1.6144   -2.3409    8.0115 H   0  0  0  1  0  0  0  0  0  0  0  0
   -1.9271   -3.6805    6.9344 H   0  0  0  1  0  0  0  0  0  0  0  0
   -3.1470   -2.4536    7.1804 H   0  0  0  1  0  0  0  0  0  0  0  0
    2.7392   -0.7254    0.2037 H   0  0  0  1  0  0  0  0  0  0  0  0
    4.8697    0.5960   -0.9602 H   0  0  0  1  0  0  0  0  0  0  0  0
    3.0570    0.6651   -2.4044 H   0  0  0  1  0  0  0  0  0  0  0  0
    2.5389   -0.9500   -1.9836 H   0  0  0  1  0  0  0  0  0  0  0  0
    4.7902   -0.1478   -3.8289 H   0  0  0  1  0  0  0  0  0  0  0  0
    3.4896   -1.2717   -4.1440 H   0  0  0  1  0  0  0  0  0  0  0  0
    4.3611   -2.8834   -2.5982 H   0  0  0  1  0  0  0  0  0  0  0  0
    6.4004   -1.0043   -1.4992 H   0  0  0  1  0  0  0  0  0  0  0  0
    5.4417   -2.1981   -0.6567 H   0  0  0  1  0  0  0  0  0  0  0  0
    5.8376   -2.7215   -4.4633 H   0  0  0  1  0  0  0  0  0  0  0  0
    6.6862   -3.0548   -3.1482 H   0  0  0  1  0  0  0  0  0  0  0  0
  1  2  4  0  0  0  0
  1  6  4  0  0  0  0
  1 18  1  0  0  0  0
  2  3  4  0  0  0  0
  3  4  4  0  0  0  0
  3 25  1  0  0  0  0
  4  5  4  0  0  0  0
  4  7  4  0  0  0  0
  5  6  4  0  0  0  0
  5  9  4  0  0  0  0
  7  8  4  0  0  0  0
  7 26  1  0  0  0  0
  8  9  4  0  0  0  0
  9 10  1  0  0  0  0
 10 11  4  0  0  0  0
 10 15  4  0  0  0  0
 11 12  4  0  0  0  0
 11 27  1  0  0  0  0
 12 13  4  0  0  0  0
 12 28  1  0  0  0  0
 13 14  4  0  0  0  0
 13 16  1  0  0  0  0
 14 15  4  0  0  0  0
 14 29  1  0  0  0  0
 15 30  1  0  0  0  0
 16 17  1  0  0  0  0
 17 31  1  0  0  0  0
 17 32  1  0  0  0  0
 17 33  1  0  0  0  0
 18 19  1  0  0  0  0
 18 34  1  0  0  0  0
 19 20  1  0  0  0  0
 19 23  1  0  0  0  0
 19 35  1  0  0  0  0
 20 21  1  0  0  0  0
 20 36  1  0  0  0  0
 20 37  1  0  0  0  0
 21 22  1  0  0  0  0
 21 38  1  0  0  0  0
 21 39  1  0  0  0  0
 22 23  1  0  0  0  0
 22 24  1  0  0  0  0
 22 40  1  0  0  0  0
 23 41  1  0  0  0  0
 23 42  1  0  0  0  0
 24 43  1  0  0  0  0
 24 44  1  0  0  0  0
M  END
> <ConfClashScore>
0 

> <ConfOneFourInteractionScore>
-0.985399 

> <ConfScore>
-0.0322075 

> <ConfScorePBest>
0.00318006 

> <ConfTolerance>
0.329073 

$$$$
c22.sdf
 OpenBabel04162418103D

 44 47  0  0  0  0  0  0  0  0999 V2000
    2.3312   -0.7294    0.4189 C   0  0  0  1  0  0  0  0  0  0  0  0
    1.7817   -1.4909    1.3703 N   0  0  0  1  0  0  0  0  0  0  0  0
    0.5924   -1.1105    1.8783 C   0  0  0  1  0  0  0  0  0  0  0  0
   -0.0183    0.0747    1.3740 C   0  0  0  1  0  0  0  0  0  0  0  0
    0.6917    0.7398    0.3820 C   0  0  0  1  0  0  0  0  0  0  0  0
    1.8894    0.3862   -0.1419 N   0  0  0  1  0  0  0  0  0  0  0  0
   -1.1846    0.8485    1.5409 C   0  0  0  1  0  0  0  0  0  0  0  0
   -1.1975    1.8905    0.7420 N   0  0  0  1  0  0  0  0  0  0  0  0
   -0.0354    1.8224    0.0246 N   0  0  0  1  0  0  0  0  0  0  0  0
    0.3569    2.7662   -0.9671 C   0  0  0  1  0  0  0  0  0  0  0  0
    0.4275    4.1101   -0.6524 C   0  0  0  1  0  0  0  0  0  0  0  0
    0.8145    5.0281   -1.6162 C   0  0  0  1  0  0  0  0  0  0  0  0
    1.1247    4.6002   -2.8934 C   0  0  0  1  0  0  0  0  0  0  0  0
    1.0538    3.2522   -3.2089 C   0  0  0  1  0  0  0  0  0  0  0  0
    0.6679    2.3368   -2.2479 C   0  0  0  1  0  0  0  0  0  0  0  0
    1.5042    5.4452   -3.8812 O   0  0  0  1  0  0  0  0  0  0  0  0
    1.6278    6.8357   -3.5439 C   0  0  0  1  0  0  0  0  0  0  0  0
    3.5183   -1.1641   -0.0408 N   0  0  0  1  0  0  0  0  0  0  0  0
    4.3115   -0.4581   -1.0509 C   0  0  0  1  0  0  0  0  0  0  0  0
    3.4644   -0.1980   -2.2983 C   0  0  0  1  0  0  0  0  0  0  0  0
    4.0570   -1.0694   -3.3973 C   0  0  0  1  0  0  0  0  0  0  0  0
    4.8845   -2.1407   -2.7002 C   0  0  0  1  0  0  0  0  0  0  0  0
    5.5188   -1.3420   -1.5008 C   0  0  0  1  0  0  0  0  0  0  0  0
    5.9235   -2.6769   -3.5928 N   0  0  0  1  0  0  0  0  0  0  0  0
    0.1299   -1.6702    2.6228 H   0  0  0  1  0  0  0  0  0  0  0  0
   -1.9431    0.6215    2.2152 H   0  0  0  1  0  0  0  0  0  0  0  0
    0.1903    4.4326    0.3074 H   0  0  0  1  0  0  0  0  0  0  0  0
    0.8716    6.0389   -1.3784 H   0  0  0  1  0  0  0  0  0  0  0  0
    1.2910    2.9297   -4.1687 H   0  0  0  1  0  0  0  0  0  0  0  0
    0.6108    1.3260   -2.4857 H   0  0  0  1  0  0  0  0  0  0  0  0
    1.7983    6.9343   -2.4921 H   0  0  0  1  0  0  0  0  0  0  0  0
    0.7265    7.3481   -3.8084 H   0  0  0  1  0  0  0  0  0  0  0  0
    2.4507    7.2606   -4.0797 H   0  0  0  1  0  0  0  0  0  0  0  0
    3.8738   -2.0026    0.3210 H   0  0  0  1  0  0  0  0  0  0  0  0
    4.6637    0.4674   -0.6455 H   0  0  0  1  0  0  0  0  0  0  0  0
    3.5163    0.8345   -2.5741 H   0  0  0  1  0  0  0  0  0  0  0  0
    2.4450   -0.4689   -2.1183 H   0  0  0  1  0  0  0  0  0  0  0  0
    3.2759   -1.5215   -3.9720 H   0  0  0  1  0  0  0  0  0  0  0  0
    4.6790   -0.4818   -4.0398 H   0  0  0  1  0  0  0  0  0  0  0  0
    4.2668   -2.9411   -2.3498 H   0  0  0  1  0  0  0  0  0  0  0  0
    6.3448   -0.7427   -1.8225 H   0  0  0  1  0  0  0  0  0  0  0  0
    5.8372   -1.9983   -0.7179 H   0  0  0  1  0  0  0  0  0  0  0  0
    6.5455   -3.2300   -3.0755 H   0  0  0  1  0  0  0  0  0  0  0  0
    6.4127   -1.9354   -4.0067 H   0  0  0  1  0  0  0  0  0  0  0  0
  1  2  4  0  0  0  0
  1  6  4  0  0  0  0
  1 18  1  0  0  0  0
  2  3  4  0  0  0  0
  3  4  4  0  0  0  0
  3 25  1  0  0  0  0
  4  5  4  0  0  0  0
  4  7  4  0  0  0  0
  5  6  4  0  0  0  0
  5  9  4  0  0  0  0
  7  8  4  0  0  0  0
  7 26  1  0  0  0  0
  8  9  4  0  0  0  0
  9 10  1  0  0  0  0
 10 11  4  0  0  0  0
 10 15  4  0  0  0  0
 11 12  4  0  0  0  0
 11 27  1  0  0  0  0
 12 13  4  0  0  0  0
 12 28  1  0  0  0  0
 13 14  4  0  0  0  0
 13 16  1  0  0  0  0
 14 15  4  0  0  0  0
 14 29  1  0  0  0  0
 15 30  1  0  0  0  0
 16 17  1  0  0  0  0
 17 31  1  0  0  0  0
 17 32  1  0  0  0  0
 17 33  1  0  0  0  0
 18 19  1  0  0  0  0
 18 34  1  0  0  0  0
 19 20  1  0  0  0  0
 19 23  1  0  0  0  0
 19 35  1  0  0  0  0
 20 21  1  0  0  0  0
 20 36  1  0  0  0  0
 20 37  1  0  0  0  0
 21 22  1  0  0  0  0
 21 38  1  0  0  0  0
 21 39  1  0  0  0  0
 22 23  1  0  0  0  0
 22 24  1  0  0  0  0
 22 40  1  0  0  0  0
 23 41  1  0  0  0  0
 23 42  1  0  0  0  0
 24 43  1  0  0  0  0
 24 44  1  0  0  0  0
M  END
> <ConfClashScore>
0 

> <ConfOneFourInteractionScore>
-0.985399 

> <ConfScore>
-0.0320565 

> <ConfScorePBest>
0.00316673 

> <ConfTolerance>
0.298221 

$$$$
c22.sdf
 OpenBabel04162418103D

 44 47  0  0  0  0  0  0  0  0999 V2000
    3.7819   -1.3536    1.2713 C   0  0  0  1  0  0  0  0  0  0  0  0
    4.8615   -0.6785    1.6785 N   0  0  0  1  0  0  0  0  0  0  0  0
    5.1980   -0.7480    2.9821 C   0  0  0  1  0  0  0  0  0  0  0  0
    4.3933   -1.5378    3.8542 C   0  0  0  1  0  0  0  0  0  0  0  0
    3.3117   -2.1754    3.2592 C   0  0  0  1  0  0  0  0  0  0  0  0
    2.9455   -2.1185    1.9566 N   0  0  0  1  0  0  0  0  0  0  0  0
    4.3240   -1.9307    5.2061 C   0  0  0  1  0  0  0  0  0  0  0  0
    3.3025   -2.7241    5.4320 N   0  0  0  1  0  0  0  0  0  0  0  0
    2.6762   -2.8754    4.2259 N   0  0  0  1  0  0  0  0  0  0  0  0
    1.5177   -3.6597    4.0173 C   0  0  0  1  0  0  0  0  0  0  0  0
    0.5223   -3.2102    3.1703 C   0  0  0  1  0  0  0  0  0  0  0  0
   -0.6105   -3.9814    2.9618 C   0  0  0  1  0  0  0  0  0  0  0  0
   -0.7472   -5.1971    3.6049 C   0  0  0  1  0  0  0  0  0  0  0  0
    0.2512   -5.6477    4.4544 C   0  0  0  1  0  0  0  0  0  0  0  0
    1.3808   -4.8789    4.6625 C   0  0  0  1  0  0  0  0  0  0  0  0
   -1.8563   -5.9480    3.4052 O   0  0  0  1  0  0  0  0  0  0  0  0
   -1.9566   -7.1755    4.1376 C   0  0  0  1  0  0  0  0  0  0  0  0
    3.5013   -1.2380   -0.0392 N   0  0  0  1  0  0  0  0  0  0  0  0
    4.3109   -0.4795   -0.9768 C   0  0  0  1  0  0  0  0  0  0  0  0
    3.4746   -0.1458   -2.2610 C   0  0  0  1  0  0  0  0  0  0  0  0
    4.1458   -0.9472   -3.3718 C   0  0  0  1  0  0  0  0  0  0  0  0
    4.9834   -2.0449   -2.7046 C   0  0  0  1  0  0  0  0  0  0  0  0
    5.5216   -1.3180   -1.4267 C   0  0  0  1  0  0  0  0  0  0  0  0
    6.1033   -2.4848   -3.5894 N   0  0  0  1  0  0  0  0  0  0  0  0
    6.0276   -0.2358    3.3441 H   0  0  0  1  0  0  0  0  0  0  0  0
    5.0001   -1.6286    5.9363 H   0  0  0  1  0  0  0  0  0  0  0  0
    0.6232   -2.2936    2.6895 H   0  0  0  1  0  0  0  0  0  0  0  0
   -1.3577   -3.6451    2.3213 H   0  0  0  1  0  0  0  0  0  0  0  0
    0.1503   -6.5643    4.9353 H   0  0  0  1  0  0  0  0  0  0  0  0
    2.1281   -5.2152    5.3029 H   0  0  0  1  0  0  0  0  0  0  0  0
   -1.4860   -7.9611    3.5842 H   0  0  0  1  0  0  0  0  0  0  0  0
   -2.9879   -7.4159    4.2909 H   0  0  0  1  0  0  0  0  0  0  0  0
   -1.4708   -7.0662    5.0847 H   0  0  0  1  0  0  0  0  0  0  0  0
    2.7034   -1.6924   -0.3816 H   0  0  0  1  0  0  0  0  0  0  0  0
    4.6439    0.4245   -0.5113 H   0  0  0  1  0  0  0  0  0  0  0  0
    3.5119    0.9019   -2.4750 H   0  0  0  1  0  0  0  0  0  0  0  0
    2.4559   -0.4492   -2.1384 H   0  0  0  1  0  0  0  0  0  0  0  0
    4.7772   -0.3082   -3.9531 H   0  0  0  1  0  0  0  0  0  0  0  0
    3.4036   -1.3875   -4.0045 H   0  0  0  1  0  0  0  0  0  0  0  0
    4.3801   -2.8897   -2.4453 H   0  0  0  1  0  0  0  0  0  0  0  0
    6.3573   -0.6927   -1.6622 H   0  0  0  1  0  0  0  0  0  0  0  0
    5.8040   -2.0226   -0.6726 H   0  0  0  1  0  0  0  0  0  0  0  0
    5.7501   -2.7157   -4.4739 H   0  0  0  1  0  0  0  0  0  0  0  0
    6.5402   -3.2696   -3.1974 H   0  0  0  1  0  0  0  0  0  0  0  0
  1  2  4  0  0  0  0
  1  6  4  0  0  0  0
  1 18  1  0  0  0  0
  2  3  4  0  0  0  0
  3  4  4  0  0  0  0
  3 25  1  0  0  0  0
  4  5  4  0  0  0  0
  4  7  4  0  0  0  0
  5  6  4  0  0  0  0
  5  9  4  0  0  0  0
  7  8  4  0  0  0  0
  7 26  1  0  0  0  0
  8  9  4  0  0  0  0
  9 10  1  0  0  0  0
 10 11  4  0  0  0  0
 10 15  4  0  0  0  0
 11 12  4  0  0  0  0
 11 27  1  0  0  0  0
 12 13  4  0  0  0  0
 12 28  1  0  0  0  0
 13 14  4  0  0  0  0
 13 16  1  0  0  0  0
 14 15  4  0  0  0  0
 14 29  1  0  0  0  0
 15 30  1  0  0  0  0
 16 17  1  0  0  0  0
 17 31  1  0  0  0  0
 17 32  1  0  0  0  0
 17 33  1  0  0  0  0
 18 19  1  0  0  0  0
 18 34  1  0  0  0  0
 19 20  1  0  0  0  0
 19 23  1  0  0  0  0
 19 35  1  0  0  0  0
 20 21  1  0  0  0  0
 20 36  1  0  0  0  0
 20 37  1  0  0  0  0
 21 22  1  0  0  0  0
 21 38  1  0  0  0  0
 21 39  1  0  0  0  0
 22 23  1  0  0  0  0
 22 24  1  0  0  0  0
 22 40  1  0  0  0  0
 23 41  1  0  0  0  0
 23 42  1  0  0  0  0
 24 43  1  0  0  0  0
 24 44  1  0  0  0  0
M  END
> <ConfClashScore>
0 

> <ConfOneFourInteractionScore>
-0.984337 

> <ConfScore>
-0.0301537 

> <ConfScorePBest>
0.0031534 

> <ConfTolerance>
0.285009 

$$$$
c22.sdf
 OpenBabel04162418103D

 44 47  0  0  0  0  0  0  0  0999 V2000
    3.3365   -1.9405    0.8227 C   0  0  0  1  0  0  0  0  0  0  0  0
    4.5590   -1.9658    1.3630 N   0  0  0  1  0  0  0  0  0  0  0  0
    4.7473   -2.7121    2.4698 C   0  0  0  1  0  0  0  0  0  0  0  0
    3.6411   -3.4369    3.0015 C   0  0  0  1  0  0  0  0  0  0  0  0
    2.4447   -3.2989    2.3085 C   0  0  0  1  0  0  0  0  0  0  0  0
    2.2241   -2.5522    1.2004 N   0  0  0  1  0  0  0  0  0  0  0  0
    3.3287   -4.3179    4.0564 C   0  0  0  1  0  0  0  0  0  0  0  0
    2.0684   -4.6853    4.0286 N   0  0  0  1  0  0  0  0  0  0  0  0
    1.5217   -4.0540    2.9458 N   0  0  0  1  0  0  0  0  0  0  0  0
    0.1611   -4.1756    2.5430 C   0  0  0  1  0  0  0  0  0  0  0  0
   -0.1488   -4.6958    1.3006 C   0  0  0  1  0  0  0  0  0  0  0  0
   -1.4672   -4.7329    0.8742 C   0  0  0  1  0  0  0  0  0  0  0  0
   -2.4713   -4.2450    1.6892 C   0  0  0  1  0  0  0  0  0  0  0  0
   -2.1602   -3.7233    2.9353 C   0  0  0  1  0  0  0  0  0  0  0  0
   -0.8457   -3.6862    3.3605 C   0  0  0  1  0  0  0  0  0  0  0  0
   -3.7458   -4.1878    1.2351 O   0  0  0  1  0  0  0  0  0  0  0  0
   -4.7470   -3.7122    2.1482 C   0  0  0  1  0  0  0  0  0  0  0  0
    3.2181   -1.1776   -0.2717 N   0  0  0  1  0  0  0  0  0  0  0  0
    4.2654   -0.4743   -1.0183 C   0  0  0  1  0  0  0  0  0  0  0  0
    3.7924   -0.0969   -2.4281 C   0  0  0  1  0  0  0  0  0  0  0  0
    3.8788   -1.3929   -3.2246 C   0  0  0  1  0  0  0  0  0  0  0  0
    5.0129   -2.1944   -2.5751 C   0  0  0  1  0  0  0  0  0  0  0  0
    5.4449   -1.3982   -1.3336 C   0  0  0  1  0  0  0  0  0  0  0  0
    6.1588   -2.3340   -3.5255 N   0  0  0  1  0  0  0  0  0  0  0  0
    5.6807   -2.7581    2.9262 H   0  0  0  1  0  0  0  0  0  0  0  0
    4.0136   -4.6382    4.7705 H   0  0  0  1  0  0  0  0  0  0  0  0
    0.6071   -5.0592    0.6857 H   0  0  0  1  0  0  0  0  0  0  0  0
   -1.7010   -5.1280   -0.0590 H   0  0  0  1  0  0  0  0  0  0  0  0
   -2.9161   -3.3598    3.5502 H   0  0  0  1  0  0  0  0  0  0  0  0
   -0.6119   -3.2912    4.2937 H   0  0  0  1  0  0  0  0  0  0  0  0
   -5.0509   -4.5106    2.7927 H   0  0  0  1  0  0  0  0  0  0  0  0
   -5.5927   -3.3578    1.5969 H   0  0  0  1  0  0  0  0  0  0  0  0
   -4.3435   -2.9140    2.7355 H   0  0  0  1  0  0  0  0  0  0  0  0
    2.3080   -1.0756   -0.6207 H   0  0  0  1  0  0  0  0  0  0  0  0
    4.5796    0.3873   -0.4672 H   0  0  0  1  0  0  0  0  0  0  0  0
    4.4302    0.6500   -2.8527 H   0  0  0  1  0  0  0  0  0  0  0  0
    2.7856    0.2647   -2.4041 H   0  0  0  1  0  0  0  0  0  0  0  0
    4.1051   -1.1877   -4.2501 H   0  0  0  1  0  0  0  0  0  0  0  0
    2.9566   -1.9321   -3.1633 H   0  0  0  1  0  0  0  0  0  0  0  0
    4.6648   -3.1653   -2.2903 H   0  0  0  1  0  0  0  0  0  0  0  0
    6.3243   -0.8257   -1.5425 H   0  0  0  1  0  0  0  0  0  0  0  0
    5.6346   -2.0576   -0.5125 H   0  0  0  1  0  0  0  0  0  0  0  0
    6.5818   -1.4601   -3.6586 H   0  0  0  1  0  0  0  0  0  0  0  0
    5.8309   -2.6723   -4.3848 H   0  0  0  1  0  0  0  0  0  0  0  0
  1  2  4  0  0  0  0
  1  6  4  0  0  0  0
  1 18  1  0  0  0  0
  2  3  4  0  0  0  0
  3  4  4  0  0  0  0
  3 25  1  0  0  0  0
  4  5  4  0  0  0  0
  4  7  4  0  0  0  0
  5  6  4  0  0  0  0
  5  9  4  0  0  0  0
  7  8  4  0  0  0  0
  7 26  1  0  0  0  0
  8  9  4  0  0  0  0
  9 10  1  0  0  0  0
 10 11  4  0  0  0  0
 10 15  4  0  0  0  0
 11 12  4  0  0  0  0
 11 27  1  0  0  0  0
 12 13  4  0  0  0  0
 12 28  1  0  0  0  0
 13 14  4  0  0  0  0
 13 16  1  0  0  0  0
 14 15  4  0  0  0  0
 14 29  1  0  0  0  0
 15 30  1  0  0  0  0
 16 17  1  0  0  0  0
 17 31  1  0  0  0  0
 17 32  1  0  0  0  0
 17 33  1  0  0  0  0
 18 19  1  0  0  0  0
 18 34  1  0  0  0  0
 19 20  1  0  0  0  0
 19 23  1  0  0  0  0
 19 35  1  0  0  0  0
 20 21  1  0  0  0  0
 20 36  1  0  0  0  0
 20 37  1  0  0  0  0
 21 22  1  0  0  0  0
 21 38  1  0  0  0  0
 21 39  1  0  0  0  0
 22 23  1  0  0  0  0
 22 24  1  0  0  0  0
 22 40  1  0  0  0  0
 23 41  1  0  0  0  0
 23 42  1  0  0  0  0
 24 43  1  0  0  0  0
 24 44  1  0  0  0  0
M  END
> <ConfClashScore>
0 

> <ConfOneFourInteractionScore>
-0.985399 

> <ConfScore>
-0.029883 

> <ConfScorePBest>
0.00314007 

> <ConfTolerance>
0.358507 

$$$$
c22.sdf
 OpenBabel04162418103D

 44 47  0  0  0  0  0  0  0  0999 V2000
    2.1656   -0.5662    0.3169 C   0  0  0  1  0  0  0  0  0  0  0  0
    2.1268    0.7599    0.1528 N   0  0  0  1  0  0  0  0  0  0  0  0
    1.0922    1.4352    0.6921 C   0  0  0  1  0  0  0  0  0  0  0  0
    0.1004    0.7057    1.4106 C   0  0  0  1  0  0  0  0  0  0  0  0
    0.3027   -0.6669    1.4863 C   0  0  0  1  0  0  0  0  0  0  0  0
    1.3265   -1.3724    0.9496 N   0  0  0  1  0  0  0  0  0  0  0  0
   -1.0914    0.9188    2.1322 C   0  0  0  1  0  0  0  0  0  0  0  0
   -1.5845   -0.2036    2.6026 N   0  0  0  1  0  0  0  0  0  0  0  0
   -0.7206   -1.1850    2.2024 N   0  0  0  1  0  0  0  0  0  0  0  0
   -0.8777   -2.5687    2.5001 C   0  0  0  1  0  0  0  0  0  0  0  0
   -0.2154   -3.1228    3.5792 C   0  0  0  1  0  0  0  0  0  0  0  0
   -0.3726   -4.4685    3.8721 C   0  0  0  1  0  0  0  0  0  0  0  0
   -1.1873   -5.2574    3.0820 C   0  0  0  1  0  0  0  0  0  0  0  0
   -1.8514   -4.7015    1.9996 C   0  0  0  1  0  0  0  0  0  0  0  0
   -1.6948   -3.3597    1.7075 C   0  0  0  1  0  0  0  0  0  0  0  0
   -1.4131   -6.5799    3.2663 O   0  0  0  1  0  0  0  0  0  0  0  0
   -0.6501   -7.2396    4.2886 C   0  0  0  1  0  0  0  0  0  0  0  0
    3.2219   -1.1774   -0.2490 N   0  0  0  1  0  0  0  0  0  0  0  0
    4.2675   -0.4749   -0.9981 C   0  0  0  1  0  0  0  0  0  0  0  0
    3.7629   -0.0554   -2.4195 C   0  0  0  1  0  0  0  0  0  0  0  0
    3.8839   -1.3632   -3.2234 C   0  0  0  1  0  0  0  0  0  0  0  0
    5.0478   -2.1961   -2.5819 C   0  0  0  1  0  0  0  0  0  0  0  0
    5.4355   -1.4105   -1.3333 C   0  0  0  1  0  0  0  0  0  0  0  0
    6.2055   -2.2982   -3.5227 N   0  0  0  1  0  0  0  0  0  0  0  0
    1.0190    2.4671    0.5860 H   0  0  0  1  0  0  0  0  0  0  0  0
   -1.5275    1.8521    2.2749 H   0  0  0  1  0  0  0  0  0  0  0  0
    0.4007   -2.5302    4.1714 H   0  0  0  1  0  0  0  0  0  0  0  0
    0.1225   -4.8847    4.6866 H   0  0  0  1  0  0  0  0  0  0  0  0
   -2.4676   -5.2941    1.4074 H   0  0  0  1  0  0  0  0  0  0  0  0
   -2.1899   -2.9436    0.8931 H   0  0  0  1  0  0  0  0  0  0  0  0
   -1.0764   -8.2005    4.4884 H   0  0  0  1  0  0  0  0  0  0  0  0
   -0.6656   -6.6501    5.1814 H   0  0  0  1  0  0  0  0  0  0  0  0
    0.3603   -7.3599    3.9575 H   0  0  0  1  0  0  0  0  0  0  0  0
    3.2968   -2.1500   -0.1547 H   0  0  0  1  0  0  0  0  0  0  0  0
    4.5990    0.3743   -0.4378 H   0  0  0  1  0  0  0  0  0  0  0  0
    2.7483    0.2827   -2.3841 H   0  0  0  1  0  0  0  0  0  0  0  0
    4.3808    0.7121   -2.8368 H   0  0  0  1  0  0  0  0  0  0  0  0
    4.1101   -1.1450   -4.2462 H   0  0  0  1  0  0  0  0  0  0  0  0
    2.9673   -1.9125   -3.1696 H   0  0  0  1  0  0  0  0  0  0  0  0
    4.7114   -3.1780   -2.3217 H   0  0  0  1  0  0  0  0  0  0  0  0
    6.3197   -0.8382   -1.5215 H   0  0  0  1  0  0  0  0  0  0  0  0
    5.6111   -2.0819   -0.5189 H   0  0  0  1  0  0  0  0  0  0  0  0
    6.4200   -1.4093   -3.8752 H   0  0  0  1  0  0  0  0  0  0  0  0
    5.9723   -2.8957   -4.2637 H   0  0  0  1  0  0  0  0  0  0  0  0
  1  2  4  0  0  0  0
  1  6  4  0  0  0  0
  1 18  1  0  0  0  0
  2  3  4  0  0  0  0
  3  4  4  0  0  0  0
  3 25  1  0  0  0  0
  4  5  4  0  0  0  0
  4  7  4  0  0  0  0
  5  6  4  0  0  0  0
  5  9  4  0  0  0  0
  7  8  4  0  0  0  0
  7 26  1  0  0  0  0
  8  9  4  0  0  0  0
  9 10  1  0  0  0  0
 10 11  4  0  0  0  0
 10 15  4  0  0  0  0
 11 12  4  0  0  0  0
 11 27  1  0  0  0  0
 12 13  4  0  0  0  0
 12 28  1  0  0  0  0
 13 14  4  0  0  0  0
 13 16  1  0  0  0  0
 14 15  4  0  0  0  0
 14 29  1  0  0  0  0
 15 30  1  0  0  0  0
 16 17  1  0  0  0  0
 17 31  1  0  0  0  0
 17 32  1  0  0  0  0
 17 33  1  0  0  0  0
 18 19  1  0  0  0  0
 18 34  1  0  0  0  0
 19 20  1  0  0  0  0
 19 23  1  0  0  0  0
 19 35  1  0  0  0  0
 20 21  1  0  0  0  0
 20 36  1  0  0  0  0
 20 37  1  0  0  0  0
 21 22  1  0  0  0  0
 21 38  1  0  0  0  0
 21 39  1  0  0  0  0
 22 23  1  0  0  0  0
 22 24  1  0  0  0  0
 22 40  1  0  0  0  0
 23 41  1  0  0  0  0
 23 42  1  0  0  0  0
 24 43  1  0  0  0  0
 24 44  1  0  0  0  0
M  END
> <ConfClashScore>
0 

> <ConfOneFourInteractionScore>
-0.984337 

> <ConfScore>
-0.0291101 

> <ConfScorePBest>
0.00312675 

> <ConfTolerance>
0.295226 

$$$$
c22.sdf
 OpenBabel04162418103D

 44 47  0  0  0  0  0  0  0  0999 V2000
    5.0918    0.3079    1.0525 C   0  0  0  1  0  0  0  0  0  0  0  0
    4.6017    0.8944    2.1492 N   0  0  0  1  0  0  0  0  0  0  0  0
    5.3933    0.9642    3.2382 C   0  0  0  1  0  0  0  0  0  0  0  0
    6.7075    0.4172    3.1636 C   0  0  0  1  0  0  0  0  0  0  0  0
    7.0527   -0.1501    1.9432 C   0  0  0  1  0  0  0  0  0  0  0  0
    6.2777   -0.2410    0.8363 N   0  0  0  1  0  0  0  0  0  0  0  0
    7.8613    0.2565    3.9572 C   0  0  0  1  0  0  0  0  0  0  0  0
    8.8226   -0.3532    3.3028 N   0  0  0  1  0  0  0  0  0  0  0  0
    8.3213   -0.6045    2.0557 N   0  0  0  1  0  0  0  0  0  0  0  0
    9.0323   -1.2512    1.0246 C   0  0  0  1  0  0  0  0  0  0  0  0
    8.4933   -2.2940    0.2950 C   0  0  0  1  0  0  0  0  0  0  0  0
    9.2351   -2.8910   -0.7123 C   0  0  0  1  0  0  0  0  0  0  0  0
   10.5156   -2.4473   -0.9836 C   0  0  0  1  0  0  0  0  0  0  0  0
   11.0561   -1.4014   -0.2517 C   0  0  0  1  0  0  0  0  0  0  0  0
   10.3166   -0.8060    0.7528 C   0  0  0  1  0  0  0  0  0  0  0  0
   11.1869   -3.0748   -1.9738 O   0  0  0  1  0  0  0  0  0  0  0  0
   12.4478   -2.5491   -2.4168 C   0  0  0  1  0  0  0  0  0  0  0  0
    4.2371    0.2686   -0.0100 N   0  0  0  1  0  0  0  0  0  0  0  0
    4.6563   -0.2429   -1.3157 C   0  0  0  1  0  0  0  0  0  0  0  0
    3.4652   -0.4209   -2.2473 C   0  0  0  1  0  0  0  0  0  0  0  0
    3.8764   -1.4607   -3.2807 C   0  0  0  1  0  0  0  0  0  0  0  0
    5.0682   -2.2068   -2.6773 C   0  0  0  1  0  0  0  0  0  0  0  0
    5.2111   -1.7121   -1.2020 C   0  0  0  1  0  0  0  0  0  0  0  0
    6.2977   -1.9005   -3.4376 N   0  0  0  1  0  0  0  0  0  0  0  0
    5.0522    1.4081    4.1146 H   0  0  0  1  0  0  0  0  0  0  0  0
    7.9414    0.5815    4.9418 H   0  0  0  1  0  0  0  0  0  0  0  0
    7.5312   -2.6306    0.5018 H   0  0  0  1  0  0  0  0  0  0  0  0
    8.8280   -3.6730   -1.2640 H   0  0  0  1  0  0  0  0  0  0  0  0
   12.0181   -1.0647   -0.4584 H   0  0  0  1  0  0  0  0  0  0  0  0
   10.7236   -0.0240    1.3045 H   0  0  0  1  0  0  0  0  0  0  0  0
   12.7140   -2.9989   -3.3505 H   0  0  0  1  0  0  0  0  0  0  0  0
   13.2006   -2.7674   -1.6885 H   0  0  0  1  0  0  0  0  0  0  0  0
   12.3681   -1.4894   -2.5416 H   0  0  0  1  0  0  0  0  0  0  0  0
    3.3188    0.5911    0.1040 H   0  0  0  1  0  0  0  0  0  0  0  0
    5.3856    0.4153   -1.7398 H   0  0  0  1  0  0  0  0  0  0  0  0
    2.6137   -0.7632   -1.6971 H   0  0  0  1  0  0  0  0  0  0  0  0
    3.2306    0.5056   -2.7284 H   0  0  0  1  0  0  0  0  0  0  0  0
    3.0696   -2.1383   -3.4675 H   0  0  0  1  0  0  0  0  0  0  0  0
    4.1610   -0.9835   -4.1951 H   0  0  0  1  0  0  0  0  0  0  0  0
    4.8901   -3.2617   -2.6962 H   0  0  0  1  0  0  0  0  0  0  0  0
    6.2323   -1.7216   -0.8827 H   0  0  0  1  0  0  0  0  0  0  0  0
    4.6218   -2.3026   -0.5320 H   0  0  0  1  0  0  0  0  0  0  0  0
    6.4534   -0.9329   -3.4317 H   0  0  0  1  0  0  0  0  0  0  0  0
    6.1951   -2.2090   -4.3621 H   0  0  0  1  0  0  0  0  0  0  0  0
  1  2  4  0  0  0  0
  1  6  4  0  0  0  0
  1 18  1  0  0  0  0
  2  3  4  0  0  0  0
  3  4  4  0  0  0  0
  3 25  1  0  0  0  0
  4  5  4  0  0  0  0
  4  7  4  0  0  0  0
  5  6  4  0  0  0  0
  5  9  4  0  0  0  0
  7  8  4  0  0  0  0
  7 26  1  0  0  0  0
  8  9  4  0  0  0  0
  9 10  1  0  0  0  0
 10 11  4  0  0  0  0
 10 15  4  0  0  0  0
 11 12  4  0  0  0  0
 11 27  1  0  0  0  0
 12 13  4  0  0  0  0
 12 28  1  0  0  0  0
 13 14  4  0  0  0  0
 13 16  1  0  0  0  0
 14 15  4  0  0  0  0
 14 29  1  0  0  0  0
 15 30  1  0  0  0  0
 16 17  1  0  0  0  0
 17 31  1  0  0  0  0
 17 32  1  0  0  0  0
 17 33  1  0  0  0  0
 18 19  1  0  0  0  0
 18 34  1  0  0  0  0
 19 20  1  0  0  0  0
 19 23  1  0  0  0  0
 19 35  1  0  0  0  0
 20 21  1  0  0  0  0
 20 36  1  0  0  0  0
 20 37  1  0  0  0  0
 21 22  1  0  0  0  0
 21 38  1  0  0  0  0
 21 39  1  0  0  0  0
 22 23  1  0  0  0  0
 22 24  1  0  0  0  0
 22 40  1  0  0  0  0
 23 41  1  0  0  0  0
 23 42  1  0  0  0  0
 24 43  1  0  0  0  0
 24 44  1  0  0  0  0
M  END
> <ConfClashScore>
0 

> <ConfOneFourInteractionScore>
-0.985399 

> <ConfScore>
-0.0277886 

> <ConfScorePBest>
0.00311342 

> <ConfTolerance>
0.348909 

$$$$
c22.sdf
 OpenBabel04162418103D

 44 47  0  0  0  0  0  0  0  0999 V2000
    4.1017   -0.1162    1.2305 C   0  0  0  1  0  0  0  0  0  0  0  0
    5.4148   -0.2105    1.4629 N   0  0  0  1  0  0  0  0  0  0  0  0
    5.8320   -0.2252    2.7446 C   0  0  0  1  0  0  0  0  0  0  0  0
    4.8571   -0.1453    3.7815 C   0  0  0  1  0  0  0  0  0  0  0  0
    3.5368   -0.0575    3.3578 C   0  0  0  1  0  0  0  0  0  0  0  0
    3.0889   -0.0334    2.0799 N   0  0  0  1  0  0  0  0  0  0  0  0
    4.7689   -0.1383    5.1882 C   0  0  0  1  0  0  0  0  0  0  0  0
    3.5250   -0.0483    5.5988 N   0  0  0  1  0  0  0  0  0  0  0  0
    2.7625    0.0015    4.4648 N   0  0  0  1  0  0  0  0  0  0  0  0
    1.3421    0.1021    4.4515 C   0  0  0  1  0  0  0  0  0  0  0  0
    0.7315    1.1812    3.8407 C   0  0  0  1  0  0  0  0  0  0  0  0
   -0.6512    1.2763    3.8230 C   0  0  0  1  0  0  0  0  0  0  0  0
   -1.4193    0.2950    4.4209 C   0  0  0  1  0  0  0  0  0  0  0  0
   -0.8068   -0.7872    5.0334 C   0  0  0  1  0  0  0  0  0  0  0  0
    0.5719   -0.8822    5.0511 C   0  0  0  1  0  0  0  0  0  0  0  0
   -2.7573    0.4355    4.4925 O   0  0  0  1  0  0  0  0  0  0  0  0
   -3.4270   -0.5129    5.3553 C   0  0  0  1  0  0  0  0  0  0  0  0
    3.7564   -0.1035   -0.0635 N   0  0  0  1  0  0  0  0  0  0  0  0
    4.6000   -0.3291   -1.2414 C   0  0  0  1  0  0  0  0  0  0  0  0
    3.7614   -0.2342   -2.5214 C   0  0  0  1  0  0  0  0  0  0  0  0
    3.7659   -1.6385   -3.1124 C   0  0  0  1  0  0  0  0  0  0  0  0
    5.1002   -2.2465   -2.6608 C   0  0  0  1  0  0  0  0  0  0  0  0
    5.1828   -1.7509   -1.2145 C   0  0  0  1  0  0  0  0  0  0  0  0
    6.2307   -1.7378   -3.4738 N   0  0  0  1  0  0  0  0  0  0  0  0
    6.8445   -0.2933    2.9724 H   0  0  0  1  0  0  0  0  0  0  0  0
    5.5898   -0.1972    5.8240 H   0  0  0  1  0  0  0  0  0  0  0  0
    1.3095    1.9216    3.3943 H   0  0  0  1  0  0  0  0  0  0  0  0
   -1.1108    2.0862    3.3599 H   0  0  0  1  0  0  0  0  0  0  0  0
   -1.3848   -1.5277    5.4798 H   0  0  0  1  0  0  0  0  0  0  0  0
    1.0315   -1.6921    5.5142 H   0  0  0  1  0  0  0  0  0  0  0  0
   -2.8934   -0.5940    6.2792 H   0  0  0  1  0  0  0  0  0  0  0  0
   -3.4587   -1.4695    4.8769 H   0  0  0  1  0  0  0  0  0  0  0  0
   -4.4244   -0.1768    5.5481 H   0  0  0  1  0  0  0  0  0  0  0  0
    2.8119    0.0817   -0.2481 H   0  0  0  1  0  0  0  0  0  0  0  0
    5.3882    0.3943   -1.2601 H   0  0  0  1  0  0  0  0  0  0  0  0
    2.7622    0.0723   -2.2924 H   0  0  0  1  0  0  0  0  0  0  0  0
    4.2004    0.4614   -3.2058 H   0  0  0  1  0  0  0  0  0  0  0  0
    3.7119   -1.5985   -4.1803 H   0  0  0  1  0  0  0  0  0  0  0  0
    2.9439   -2.2096   -2.7343 H   0  0  0  1  0  0  0  0  0  0  0  0
    5.0790   -3.3153   -2.7077 H   0  0  0  1  0  0  0  0  0  0  0  0
    6.1996   -1.7332   -0.8817 H   0  0  0  1  0  0  0  0  0  0  0  0
    4.6065   -2.3803   -0.5690 H   0  0  0  1  0  0  0  0  0  0  0  0
    6.2996   -0.7661   -3.3664 H   0  0  0  1  0  0  0  0  0  0  0  0
    6.0764   -1.9518   -4.4176 H   0  0  0  1  0  0  0  0  0  0  0  0
  1  2  4  0  0  0  0
  1  6  4  0  0  0  0
  1 18  1  0  0  0  0
  2  3  4  0  0  0  0
  3  4  4  0  0  0  0
  3 25  1  0  0  0  0
  4  5  4  0  0  0  0
  4  7  4  0  0  0  0
  5  6  4  0  0  0  0
  5  9  4  0  0  0  0
  7  8  4  0  0  0  0
  7 26  1  0  0  0  0
  8  9  4  0  0  0  0
  9 10  1  0  0  0  0
 10 11  4  0  0  0  0
 10 15  4  0  0  0  0
 11 12  4  0  0  0  0
 11 27  1  0  0  0  0
 12 13  4  0  0  0  0
 12 28  1  0  0  0  0
 13 14  4  0  0  0  0
 13 16  1  0  0  0  0
 14 15  4  0  0  0  0
 14 29  1  0  0  0  0
 15 30  1  0  0  0  0
 16 17  1  0  0  0  0
 17 31  1  0  0  0  0
 17 32  1  0  0  0  0
 17 33  1  0  0  0  0
 18 19  1  0  0  0  0
 18 34  1  0  0  0  0
 19 20  1  0  0  0  0
 19 23  1  0  0  0  0
 19 35  1  0  0  0  0
 20 21  1  0  0  0  0
 20 36  1  0  0  0  0
 20 37  1  0  0  0  0
 21 22  1  0  0  0  0
 21 38  1  0  0  0  0
 21 39  1  0  0  0  0
 22 23  1  0  0  0  0
 22 24  1  0  0  0  0
 22 40  1  0  0  0  0
 23 41  1  0  0  0  0
 23 42  1  0  0  0  0
 24 43  1  0  0  0  0
 24 44  1  0  0  0  0
M  END
> <ConfClashScore>
0 

> <ConfOneFourInteractionScore>
-0.985399 

> <ConfScore>
-0.0277886 

> <ConfScorePBest>
0.00310009 

> <ConfTolerance>
0.409076 

$$$$
c22.sdf
 OpenBabel04162418103D

 44 47  0  0  0  0  0  0  0  0999 V2000
    4.0459   -1.1476    1.3243 C   0  0  0  1  0  0  0  0  0  0  0  0
    3.3967   -1.9493    2.1746 N   0  0  0  1  0  0  0  0  0  0  0  0
    3.8532   -2.0333    3.4403 C   0  0  0  1  0  0  0  0  0  0  0  0
    4.9952   -1.2632    3.8072 C   0  0  0  1  0  0  0  0  0  0  0  0
    5.5408   -0.4807    2.7969 C   0  0  0  1  0  0  0  0  0  0  0  0
    5.1092   -0.3817    1.5171 N   0  0  0  1  0  0  0  0  0  0  0  0
    5.8082   -0.9960    4.9272 C   0  0  0  1  0  0  0  0  0  0  0  0
    6.7645   -0.1421    4.6437 N   0  0  0  1  0  0  0  0  0  0  0  0
    6.5982    0.1766    3.3244 N   0  0  0  1  0  0  0  0  0  0  0  0
    7.4227    1.0746    2.6069 C   0  0  0  1  0  0  0  0  0  0  0  0
    7.4880    2.3807    3.0539 C   0  0  0  1  0  0  0  0  0  0  0  0
    8.2848    3.3010    2.3910 C   0  0  0  1  0  0  0  0  0  0  0  0
    9.0099    2.9139    1.2798 C   0  0  0  1  0  0  0  0  0  0  0  0
    8.9443    1.6038    0.8315 C   0  0  0  1  0  0  0  0  0  0  0  0
    8.1498    0.6861    1.4925 C   0  0  0  1  0  0  0  0  0  0  0  0
    9.6799    3.8557    0.6057 O   0  0  0  1  0  0  0  0  0  0  0  0
    9.6607    5.2625    1.0218 C   0  0  0  1  0  0  0  0  0  0  0  0
    3.5260   -1.1125    0.0432 N   0  0  0  1  0  0  0  0  0  0  0  0
    4.3052   -0.4329   -0.9929 C   0  0  0  1  0  0  0  0  0  0  0  0
    3.4533   -0.2628   -2.2822 C   0  0  0  1  0  0  0  0  0  0  0  0
    4.1011   -1.1506   -3.3594 C   0  0  0  1  0  0  0  0  0  0  0  0
    5.0099   -2.1405   -2.6054 C   0  0  0  1  0  0  0  0  0  0  0  0
    5.5445   -1.3011   -1.3958 C   0  0  0  1  0  0  0  0  0  0  0  0
    6.1250   -2.5958   -3.4668 N   0  0  0  1  0  0  0  0  0  0  0  0
    3.3819   -2.6474    4.1347 H   0  0  0  1  0  0  0  0  0  0  0  0
    5.6675   -1.4235    5.8648 H   0  0  0  1  0  0  0  0  0  0  0  0
    6.9393    2.6730    3.8877 H   0  0  0  1  0  0  0  0  0  0  0  0
    8.3371    4.2829    2.7298 H   0  0  0  1  0  0  0  0  0  0  0  0
    9.4930    1.3114   -0.0022 H   0  0  0  1  0  0  0  0  0  0  0  0
    8.0975   -0.2958    1.1537 H   0  0  0  1  0  0  0  0  0  0  0  0
   10.1453    5.8613    0.2792 H   0  0  0  1  0  0  0  0  0  0  0  0
   10.1754    5.3655    1.9542 H   0  0  0  1  0  0  0  0  0  0  0  0
    8.6474    5.5868    1.1356 H   0  0  0  1  0  0  0  0  0  0  0  0
    2.6636   -1.5292   -0.1643 H   0  0  0  1  0  0  0  0  0  0  0  0
    4.6241    0.5223   -0.6311 H   0  0  0  1  0  0  0  0  0  0  0  0
    2.4461   -0.5762   -2.1028 H   0  0  0  1  0  0  0  0  0  0  0  0
    3.4585    0.7603   -2.5954 H   0  0  0  1  0  0  0  0  0  0  0  0
    4.6800   -0.5542   -4.0333 H   0  0  0  1  0  0  0  0  0  0  0  0
    3.3490   -1.6796   -3.9064 H   0  0  0  1  0  0  0  0  0  0  0  0
    4.4522   -2.9880   -2.2653 H   0  0  0  1  0  0  0  0  0  0  0  0
    5.8463   -1.9372   -0.5901 H   0  0  0  1  0  0  0  0  0  0  0  0
    6.3670   -0.6833   -1.6905 H   0  0  0  1  0  0  0  0  0  0  0  0
    6.6094   -1.8176   -3.8135 H   0  0  0  1  0  0  0  0  0  0  0  0
    5.7673   -3.1175   -4.2153 H   0  0  0  1  0  0  0  0  0  0  0  0
  1  2  4  0  0  0  0
  1  6  4  0  0  0  0
  1 18  1  0  0  0  0
  2  3  4  0  0  0  0
  3  4  4  0  0  0  0
  3 25  1  0  0  0  0
  4  5  4  0  0  0  0
  4  7  4  0  0  0  0
  5  6  4  0  0  0  0
  5  9  4  0  0  0  0
  7  8  4  0  0  0  0
  7 26  1  0  0  0  0
  8  9  4  0  0  0  0
  9 10  1  0  0  0  0
 10 11  4  0  0  0  0
 10 15  4  0  0  0  0
 11 12  4  0  0  0  0
 11 27  1  0  0  0  0
 12 13  4  0  0  0  0
 12 28  1  0  0  0  0
 13 14  4  0  0  0  0
 13 16  1  0  0  0  0
 14 15  4  0  0  0  0
 14 29  1  0  0  0  0
 15 30  1  0  0  0  0
 16 17  1  0  0  0  0
 17 31  1  0  0  0  0
 17 32  1  0  0  0  0
 17 33  1  0  0  0  0
 18 19  1  0  0  0  0
 18 34  1  0  0  0  0
 19 20  1  0  0  0  0
 19 23  1  0  0  0  0
 19 35  1  0  0  0  0
 20 21  1  0  0  0  0
 20 36  1  0  0  0  0
 20 37  1  0  0  0  0
 21 22  1  0  0  0  0
 21 38  1  0  0  0  0
 21 39  1  0  0  0  0
 22 23  1  0  0  0  0
 22 24  1  0  0  0  0
 22 40  1  0  0  0  0
 23 41  1  0  0  0  0
 23 42  1  0  0  0  0
 24 43  1  0  0  0  0
 24 44  1  0  0  0  0
M  END
> <ConfClashScore>
0 

> <ConfOneFourInteractionScore>
-0.981848 

> <ConfScore>
-0.0277886 

> <ConfScorePBest>
0.00308676 

> <ConfTolerance>
0.371066 

$$$$
c22.sdf
 OpenBabel04162418103D

 44 47  0  0  0  0  0  0  0  0999 V2000
    3.4007   -1.6569    0.9755 C   0  0  0  1  0  0  0  0  0  0  0  0
    2.2804   -2.0543    1.5871 N   0  0  0  1  0  0  0  0  0  0  0  0
    2.3860   -2.5803    2.8239 C   0  0  0  1  0  0  0  0  0  0  0  0
    3.6789   -2.6803    3.4156 C   0  0  0  1  0  0  0  0  0  0  0  0
    4.7320   -2.2138    2.6385 C   0  0  0  1  0  0  0  0  0  0  0  0
    4.6574   -1.6881    1.3926 N   0  0  0  1  0  0  0  0  0  0  0  0
    4.2945   -3.1087    4.6090 C   0  0  0  1  0  0  0  0  0  0  0  0
    5.5956   -2.9343    4.5769 N   0  0  0  1  0  0  0  0  0  0  0  0
    5.8657   -2.3799    3.3565 N   0  0  0  1  0  0  0  0  0  0  0  0
    7.1687   -2.0246    2.9017 C   0  0  0  1  0  0  0  0  0  0  0  0
    7.8719   -1.0243    3.5460 C   0  0  0  1  0  0  0  0  0  0  0  0
    9.1760   -0.7419    3.1707 C   0  0  0  1  0  0  0  0  0  0  0  0
    9.7714   -1.4569    2.1486 C   0  0  0  1  0  0  0  0  0  0  0  0
    9.0660   -2.4601    1.5025 C   0  0  0  1  0  0  0  0  0  0  0  0
    7.7656   -2.7418    1.8767 C   0  0  0  1  0  0  0  0  0  0  0  0
   11.0326   -1.2681    1.6931 O   0  0  0  1  0  0  0  0  0  0  0  0
   11.8679   -0.3619    2.4304 C   0  0  0  1  0  0  0  0  0  0  0  0
    3.2240   -1.1455   -0.2561 N   0  0  0  1  0  0  0  0  0  0  0  0
    4.2746   -0.4661   -1.0158 C   0  0  0  1  0  0  0  0  0  0  0  0
    3.7721   -0.0610   -2.4421 C   0  0  0  1  0  0  0  0  0  0  0  0
    3.8771   -1.3812   -3.2278 C   0  0  0  1  0  0  0  0  0  0  0  0
    5.0328   -2.2180   -2.5766 C   0  0  0  1  0  0  0  0  0  0  0  0
    5.4315   -1.4192   -1.3398 C   0  0  0  1  0  0  0  0  0  0  0  0
    6.1740   -2.3446   -3.5068 N   0  0  0  1  0  0  0  0  0  0  0  0
    1.5414   -2.9063    3.3357 H   0  0  0  1  0  0  0  0  0  0  0  0
    3.7805   -3.5139    5.4172 H   0  0  0  1  0  0  0  0  0  0  0  0
    7.4226   -0.4835    4.3124 H   0  0  0  1  0  0  0  0  0  0  0  0
    9.7065    0.0081    3.6582 H   0  0  0  1  0  0  0  0  0  0  0  0
    9.5153   -3.0009    0.7362 H   0  0  0  1  0  0  0  0  0  0  0  0
    7.2351   -3.4918    1.3892 H   0  0  0  1  0  0  0  0  0  0  0  0
   11.3816    0.5879    2.5095 H   0  0  0  1  0  0  0  0  0  0  0  0
   12.8014   -0.2431    1.9211 H   0  0  0  1  0  0  0  0  0  0  0  0
   12.0430   -0.7554    3.4099 H   0  0  0  1  0  0  0  0  0  0  0  0
    2.3396   -1.2330   -0.6691 H   0  0  0  1  0  0  0  0  0  0  0  0
    4.6166    0.3871   -0.4681 H   0  0  0  1  0  0  0  0  0  0  0  0
    4.3976    0.6937   -2.8712 H   0  0  0  1  0  0  0  0  0  0  0  0
    2.7614    0.2889   -2.4097 H   0  0  0  1  0  0  0  0  0  0  0  0
    4.1037   -1.1799   -4.2539 H   0  0  0  1  0  0  0  0  0  0  0  0
    2.9545   -1.9195   -3.1647 H   0  0  0  1  0  0  0  0  0  0  0  0
    4.6860   -3.1923   -2.3020 H   0  0  0  1  0  0  0  0  0  0  0  0
    5.6012   -2.0811   -0.5164 H   0  0  0  1  0  0  0  0  0  0  0  0
    6.3217   -0.8595   -1.5375 H   0  0  0  1  0  0  0  0  0  0  0  0
    6.5763   -1.4630   -3.6530 H   0  0  0  1  0  0  0  0  0  0  0  0
    5.8597   -2.7059   -4.3618 H   0  0  0  1  0  0  0  0  0  0  0  0
  1  2  4  0  0  0  0
  1  6  4  0  0  0  0
  1 18  1  0  0  0  0
  2  3  4  0  0  0  0
  3  4  4  0  0  0  0
  3 25  1  0  0  0  0
  4  5  4  0  0  0  0
  4  7  4  0  0  0  0
  5  6  4  0  0  0  0
  5  9  4  0  0  0  0
  7  8  4  0  0  0  0
  7 26  1  0  0  0  0
  8  9  4  0  0  0  0
  9 10  1  0  0  0  0
 10 11  4  0  0  0  0
 10 15  4  0  0  0  0
 11 12  4  0  0  0  0
 11 27  1  0  0  0  0
 12 13  4  0  0  0  0
 12 28  1  0  0  0  0
 13 14  4  0  0  0  0
 13 16  1  0  0  0  0
 14 15  4  0  0  0  0
 14 29  1  0  0  0  0
 15 30  1  0  0  0  0
 16 17  1  0  0  0  0
 17 31  1  0  0  0  0
 17 32  1  0  0  0  0
 17 33  1  0  0  0  0
 18 19  1  0  0  0  0
 18 34  1  0  0  0  0
 19 20  1  0  0  0  0
 19 23  1  0  0  0  0
 19 35  1  0  0  0  0
 20 21  1  0  0  0  0
 20 36  1  0  0  0  0
 20 37  1  0  0  0  0
 21 22  1  0  0  0  0
 21 38  1  0  0  0  0
 21 39  1  0  0  0  0
 22 23  1  0  0  0  0
 22 24  1  0  0  0  0
 22 40  1  0  0  0  0
 23 41  1  0  0  0  0
 23 42  1  0  0  0  0
 24 43  1  0  0  0  0
 24 44  1  0  0  0  0
M  END
> <ConfClashScore>
0 

> <ConfOneFourInteractionScore>
-0.981848 

> <ConfScore>
-0.0277886 

> <ConfScorePBest>
0.00307343 

> <ConfTolerance>
0.366071 

$$$$
c22.sdf
 OpenBabel04162418103D

 44 47  0  0  0  0  0  0  0  0999 V2000
    2.1296   -1.0074    0.2386 C   0  0  0  1  0  0  0  0  0  0  0  0
    1.8414    0.2809    0.0280 N   0  0  0  1  0  0  0  0  0  0  0  0
    0.6495    0.7420    0.4571 C   0  0  0  1  0  0  0  0  0  0  0  0
   -0.2357   -0.1611    1.1150 C   0  0  0  1  0  0  0  0  0  0  0  0
    0.2290   -1.4632    1.2526 C   0  0  0  1  0  0  0  0  0  0  0  0
    1.4161   -1.9562    0.8260 N   0  0  0  1  0  0  0  0  0  0  0  0
   -1.5048   -0.1814    1.7281 C   0  0  0  1  0  0  0  0  0  0  0  0
   -1.8032   -1.3726    2.1930 N   0  0  0  1  0  0  0  0  0  0  0  0
   -0.7290   -2.1658    1.8983 N   0  0  0  1  0  0  0  0  0  0  0  0
   -0.6322   -3.5479    2.2277 C   0  0  0  1  0  0  0  0  0  0  0  0
   -1.6749   -4.4296    2.0143 C   0  0  0  1  0  0  0  0  0  0  0  0
   -1.4984   -5.7830    2.2565 C   0  0  0  1  0  0  0  0  0  0  0  0
   -0.2816   -6.2500    2.7164 C   0  0  0  1  0  0  0  0  0  0  0  0
    0.7641   -5.3655    2.9304 C   0  0  0  1  0  0  0  0  0  0  0  0
    0.5883   -4.0160    2.6889 C   0  0  0  1  0  0  0  0  0  0  0  0
    0.0064   -7.5442    2.9921 O   0  0  0  1  0  0  0  0  0  0  0  0
   -1.0597   -8.4969    2.8565 C   0  0  0  1  0  0  0  0  0  0  0  0
    3.3321   -1.4018   -0.2174 N   0  0  0  1  0  0  0  0  0  0  0  0
    4.2335   -0.5444   -0.9904 C   0  0  0  1  0  0  0  0  0  0  0  0
    3.5888   -0.1410   -2.3195 C   0  0  0  1  0  0  0  0  0  0  0  0
    4.0818   -1.1728   -3.3428 C   0  0  0  1  0  0  0  0  0  0  0  0
    5.0076   -2.1257   -2.5793 C   0  0  0  1  0  0  0  0  0  0  0  0
    5.4975   -1.3117   -1.3931 C   0  0  0  1  0  0  0  0  0  0  0  0
    6.1443   -2.5454   -3.4312 N   0  0  0  1  0  0  0  0  0  0  0  0
    0.3814    1.7362    0.3113 H   0  0  0  1  0  0  0  0  0  0  0  0
   -2.1292    0.6469    1.8032 H   0  0  0  1  0  0  0  0  0  0  0  0
   -2.5918   -4.0778    1.6721 H   0  0  0  1  0  0  0  0  0  0  0  0
   -2.2817   -6.4471    2.0921 H   0  0  0  1  0  0  0  0  0  0  0  0
    1.6810   -5.7173    3.2726 H   0  0  0  1  0  0  0  0  0  0  0  0
    1.3715   -3.3519    2.8533 H   0  0  0  1  0  0  0  0  0  0  0  0
   -0.7081   -9.4684    3.1349 H   0  0  0  1  0  0  0  0  0  0  0  0
   -1.3932   -8.5163    1.8400 H   0  0  0  1  0  0  0  0  0  0  0  0
   -1.8720   -8.2158    3.4937 H   0  0  0  1  0  0  0  0  0  0  0  0
    3.6222   -2.3170   -0.0208 H   0  0  0  1  0  0  0  0  0  0  0  0
    4.4845    0.3214   -0.4140 H   0  0  0  1  0  0  0  0  0  0  0  0
    2.5221   -0.1712   -2.2421 H   0  0  0  1  0  0  0  0  0  0  0  0
    3.8988    0.8434   -2.6019 H   0  0  0  1  0  0  0  0  0  0  0  0
    3.2538   -1.7112   -3.7545 H   0  0  0  1  0  0  0  0  0  0  0  0
    4.6186   -0.6864   -4.1303 H   0  0  0  1  0  0  0  0  0  0  0  0
    4.4708   -2.9903   -2.2487 H   0  0  0  1  0  0  0  0  0  0  0  0
    6.2836   -0.6439   -1.6779 H   0  0  0  1  0  0  0  0  0  0  0  0
    5.8368   -1.9453   -0.6004 H   0  0  0  1  0  0  0  0  0  0  0  0
    6.5992   -1.7522   -3.7838 H   0  0  0  1  0  0  0  0  0  0  0  0
    5.8111   -3.0886   -4.1757 H   0  0  0  1  0  0  0  0  0  0  0  0
  1  2  4  0  0  0  0
  1  6  4  0  0  0  0
  1 18  1  0  0  0  0
  2  3  4  0  0  0  0
  3  4  4  0  0  0  0
  3 25  1  0  0  0  0
  4  5  4  0  0  0  0
  4  7  4  0  0  0  0
  5  6  4  0  0  0  0
  5  9  4  0  0  0  0
  7  8  4  0  0  0  0
  7 26  1  0  0  0  0
  8  9  4  0  0  0  0
  9 10  1  0  0  0  0
 10 11  4  0  0  0  0
 10 15  4  0  0  0  0
 11 12  4  0  0  0  0
 11 27  1  0  0  0  0
 12 13  4  0  0  0  0
 12 28  1  0  0  0  0
 13 14  4  0  0  0  0
 13 16  1  0  0  0  0
 14 15  4  0  0  0  0
 14 29  1  0  0  0  0
 15 30  1  0  0  0  0
 16 17  1  0  0  0  0
 17 31  1  0  0  0  0
 17 32  1  0  0  0  0
 17 33  1  0  0  0  0
 18 19  1  0  0  0  0
 18 34  1  0  0  0  0
 19 20  1  0  0  0  0
 19 23  1  0  0  0  0
 19 35  1  0  0  0  0
 20 21  1  0  0  0  0
 20 36  1  0  0  0  0
 20 37  1  0  0  0  0
 21 22  1  0  0  0  0
 21 38  1  0  0  0  0
 21 39  1  0  0  0  0
 22 23  1  0  0  0  0
 22 24  1  0  0  0  0
 22 40  1  0  0  0  0
 23 41  1  0  0  0  0
 23 42  1  0  0  0  0
 24 43  1  0  0  0  0
 24 44  1  0  0  0  0
M  END
> <ConfClashScore>
0 

> <ConfOneFourInteractionScore>
-0.981848 

> <ConfScore>
-0.027621 

> <ConfScorePBest>
0.00306011 

> <ConfTolerance>
0.386061 

$$$$
c22.sdf
 OpenBabel04162418103D

 44 47  0  0  0  0  0  0  0  0999 V2000
    3.0526    0.7185    0.5327 C   0  0  0  1  0  0  0  0  0  0  0  0
    2.6765    0.6350    1.8128 N   0  0  0  1  0  0  0  0  0  0  0  0
    1.7764    1.5291    2.2684 C   0  0  0  1  0  0  0  0  0  0  0  0
    1.2699    2.5093    1.3659 C   0  0  0  1  0  0  0  0  0  0  0  0
    1.7675    2.4456    0.0701 C   0  0  0  1  0  0  0  0  0  0  0  0
    2.6757    1.5651   -0.4137 N   0  0  0  1  0  0  0  0  0  0  0  0
    0.3631    3.5879    1.3342 C   0  0  0  1  0  0  0  0  0  0  0  0
    0.3062    4.1430    0.1456 N   0  0  0  1  0  0  0  0  0  0  0  0
    1.1761    3.4350   -0.6366 N   0  0  0  1  0  0  0  0  0  0  0  0
    1.4258    3.7040   -2.0126 C   0  0  0  1  0  0  0  0  0  0  0  0
    2.6802    3.4737   -2.5451 C   0  0  0  1  0  0  0  0  0  0  0  0
    2.9218    3.7304   -3.8856 C   0  0  0  1  0  0  0  0  0  0  0  0
    1.9098    4.2217   -4.6887 C   0  0  0  1  0  0  0  0  0  0  0  0
    0.6517    4.4526   -4.1545 C   0  0  0  1  0  0  0  0  0  0  0  0
    0.4107    4.1967   -2.8178 C   0  0  0  1  0  0  0  0  0  0  0  0
    2.0292    4.5171   -6.0195 O   0  0  0  1  0  0  0  0  0  0  0  0
    3.3495    4.2717   -6.5286 C   0  0  0  1  0  0  0  0  0  0  0  0
    3.9548   -0.2009    0.1452 N   0  0  0  1  0  0  0  0  0  0  0  0
    4.4902   -0.2976   -1.2167 C   0  0  0  1  0  0  0  0  0  0  0  0
    3.3512   -0.3510   -2.2385 C   0  0  0  1  0  0  0  0  0  0  0  0
    4.0414   -1.0379   -3.4241 C   0  0  0  1  0  0  0  0  0  0  0  0
    4.8893   -2.1360   -2.7944 C   0  0  0  1  0  0  0  0  0  0  0  0
    5.2595   -1.6153   -1.4008 C   0  0  0  1  0  0  0  0  0  0  0  0
    6.1211   -2.3766   -3.6071 N   0  0  0  1  0  0  0  0  0  0  0  0
    1.4580    1.5043    3.2582 H   0  0  0  1  0  0  0  0  0  0  0  0
   -0.1937    3.9056    2.1532 H   0  0  0  1  0  0  0  0  0  0  0  0
    3.4429    3.1078   -1.9400 H   0  0  0  1  0  0  0  0  0  0  0  0
    3.8647    3.5534   -4.2873 H   0  0  0  1  0  0  0  0  0  0  0  0
   -0.1110    4.8185   -4.7596 H   0  0  0  1  0  0  0  0  0  0  0  0
   -0.5322    4.3737   -2.4161 H   0  0  0  1  0  0  0  0  0  0  0  0
    3.9579    5.1387   -6.3763 H   0  0  0  1  0  0  0  0  0  0  0  0
    3.2935    4.0549   -7.5749 H   0  0  0  1  0  0  0  0  0  0  0  0
    3.7809    3.4387   -6.0138 H   0  0  0  1  0  0  0  0  0  0  0  0
    4.2732   -0.8442    0.8124 H   0  0  0  1  0  0  0  0  0  0  0  0
    5.1283    0.5393   -1.4099 H   0  0  0  1  0  0  0  0  0  0  0  0
    3.0118    0.6300   -2.4979 H   0  0  0  1  0  0  0  0  0  0  0  0
    2.5274   -0.9299   -1.8763 H   0  0  0  1  0  0  0  0  0  0  0  0
    3.3172   -1.4563   -4.0914 H   0  0  0  1  0  0  0  0  0  0  0  0
    4.6578   -0.3434   -3.9558 H   0  0  0  1  0  0  0  0  0  0  0  0
    4.3288   -3.0443   -2.7179 H   0  0  0  1  0  0  0  0  0  0  0  0
    4.9689   -2.3219   -0.6517 H   0  0  0  1  0  0  0  0  0  0  0  0
    6.3133   -1.4412   -1.3379 H   0  0  0  1  0  0  0  0  0  0  0  0
    6.6307   -3.1174   -3.2173 H   0  0  0  1  0  0  0  0  0  0  0  0
    6.6732   -1.5669   -3.6107 H   0  0  0  1  0  0  0  0  0  0  0  0
  1  2  4  0  0  0  0
  1  6  4  0  0  0  0
  1 18  1  0  0  0  0
  2  3  4  0  0  0  0
  3  4  4  0  0  0  0
  3 25  1  0  0  0  0
  4  5  4  0  0  0  0
  4  7  4  0  0  0  0
  5  6  4  0  0  0  0
  5  9  4  0  0  0  0
  7  8  4  0  0  0  0
  7 26  1  0  0  0  0
  8  9  4  0  0  0  0
  9 10  1  0  0  0  0
 10 11  4  0  0  0  0
 10 15  4  0  0  0  0
 11 12  4  0  0  0  0
 11 27  1  0  0  0  0
 12 13  4  0  0  0  0
 12 28  1  0  0  0  0
 13 14  4  0  0  0  0
 13 16  1  0  0  0  0
 14 15  4  0  0  0  0
 14 29  1  0  0  0  0
 15 30  1  0  0  0  0
 16 17  1  0  0  0  0
 17 31  1  0  0  0  0
 17 32  1  0  0  0  0
 17 33  1  0  0  0  0
 18 19  1  0  0  0  0
 18 34  1  0  0  0  0
 19 20  1  0  0  0  0
 19 23  1  0  0  0  0
 19 35  1  0  0  0  0
 20 21  1  0  0  0  0
 20 36  1  0  0  0  0
 20 37  1  0  0  0  0
 21 22  1  0  0  0  0
 21 38  1  0  0  0  0
 21 39  1  0  0  0  0
 22 23  1  0  0  0  0
 22 24  1  0  0  0  0
 22 40  1  0  0  0  0
 23 41  1  0  0  0  0
 23 42  1  0  0  0  0
 24 43  1  0  0  0  0
 24 44  1  0  0  0  0
M  END
> <ConfClashScore>
0 

> <ConfOneFourInteractionScore>
-0.985399 

> <ConfScore>
-0.0273994 

> <ConfScorePBest>
0.00304678 

> <ConfTolerance>
0.370422 

$$$$
c22.sdf
 OpenBabel04162418103D

 44 47  0  0  0  0  0  0  0  0999 V2000
    2.7159   -0.8011    0.9515 C   0  0  0  1  0  0  0  0  0  0  0  0
    2.8356    0.5219    1.1011 N   0  0  0  1  0  0  0  0  0  0  0  0
    2.1758    1.1066    2.1210 C   0  0  0  1  0  0  0  0  0  0  0  0
    1.3930    0.2883    2.9867 C   0  0  0  1  0  0  0  0  0  0  0  0
    1.3861   -1.0682    2.6859 C   0  0  0  1  0  0  0  0  0  0  0  0
    2.0318   -1.6820    1.6659 N   0  0  0  1  0  0  0  0  0  0  0  0
    0.5774    0.3917    4.1316 C   0  0  0  1  0  0  0  0  0  0  0  0
    0.1057   -0.7764    4.5020 N   0  0  0  1  0  0  0  0  0  0  0  0
    0.6070   -1.6800    3.6064 N   0  0  0  1  0  0  0  0  0  0  0  0
    0.3432   -3.0819    3.6388 C   0  0  0  1  0  0  0  0  0  0  0  0
    1.2243   -3.9658    3.0450 C   0  0  0  1  0  0  0  0  0  0  0  0
    0.9243   -5.3184    3.0003 C   0  0  0  1  0  0  0  0  0  0  0  0
   -0.2584   -5.7824    3.5447 C   0  0  0  1  0  0  0  0  0  0  0  0
   -1.1420   -4.8958    4.1402 C   0  0  0  1  0  0  0  0  0  0  0  0
   -0.8430   -3.5471    4.1848 C   0  0  0  1  0  0  0  0  0  0  0  0
   -0.6582   -7.0689    3.5558 O   0  0  0  1  0  0  0  0  0  0  0  0
    0.2551   -7.9993    2.9290 C   0  0  0  1  0  0  0  0  0  0  0  0
    3.3992   -1.3206   -0.0907 N   0  0  0  1  0  0  0  0  0  0  0  0
    4.2595   -0.5327   -0.9778 C   0  0  0  1  0  0  0  0  0  0  0  0
    3.5112   -0.1634   -2.2490 C   0  0  0  1  0  0  0  0  0  0  0  0
    4.1687   -0.9101   -3.4212 C   0  0  0  1  0  0  0  0  0  0  0  0
    4.9788   -1.9936   -2.7313 C   0  0  0  1  0  0  0  0  0  0  0  0
    5.4723   -1.3688   -1.4291 C   0  0  0  1  0  0  0  0  0  0  0  0
    6.1260   -2.4003   -3.5777 N   0  0  0  1  0  0  0  0  0  0  0  0
    2.2368    2.1336    2.2731 H   0  0  0  1  0  0  0  0  0  0  0  0
    0.3739    1.2851    4.6236 H   0  0  0  1  0  0  0  0  0  0  0  0
    2.1123   -3.6161    2.6318 H   0  0  0  1  0  0  0  0  0  0  0  0
    1.5891   -5.9840    2.5571 H   0  0  0  1  0  0  0  0  0  0  0  0
   -2.0300   -5.2454    4.5534 H   0  0  0  1  0  0  0  0  0  0  0  0
   -1.5078   -2.8814    4.6281 H   0  0  0  1  0  0  0  0  0  0  0  0
   -0.1471   -8.9891    2.9880 H   0  0  0  1  0  0  0  0  0  0  0  0
    1.1983   -7.9672    3.4331 H   0  0  0  1  0  0  0  0  0  0  0  0
    0.3895   -7.7297    1.9023 H   0  0  0  1  0  0  0  0  0  0  0  0
    3.3149   -2.2814   -0.2643 H   0  0  0  1  0  0  0  0  0  0  0  0
    4.5852    0.3499   -0.4681 H   0  0  0  1  0  0  0  0  0  0  0  0
    3.5712    0.8924   -2.4118 H   0  0  0  1  0  0  0  0  0  0  0  0
    2.4849   -0.4539   -2.1635 H   0  0  0  1  0  0  0  0  0  0  0  0
    3.4299   -1.3362   -4.0674 H   0  0  0  1  0  0  0  0  0  0  0  0
    4.8023   -0.2574   -3.9847 H   0  0  0  1  0  0  0  0  0  0  0  0
    4.3653   -2.8462   -2.5276 H   0  0  0  1  0  0  0  0  0  0  0  0
    5.7134   -2.1207   -0.7070 H   0  0  0  1  0  0  0  0  0  0  0  0
    6.3277   -0.7486   -1.5982 H   0  0  0  1  0  0  0  0  0  0  0  0
    5.7941   -2.8063   -4.4056 H   0  0  0  1  0  0  0  0  0  0  0  0
    6.6753   -3.0508   -3.0924 H   0  0  0  1  0  0  0  0  0  0  0  0
  1  2  4  0  0  0  0
  1  6  4  0  0  0  0
  1 18  1  0  0  0  0
  2  3  4  0  0  0  0
  3  4  4  0  0  0  0
  3 25  1  0  0  0  0
  4  5  4  0  0  0  0
  4  7  4  0  0  0  0
  5  6  4  0  0  0  0
  5  9  4  0  0  0  0
  7  8  4  0  0  0  0
  7 26  1  0  0  0  0
  8  9  4  0  0  0  0
  9 10  1  0  0  0  0
 10 11  4  0  0  0  0
 10 15  4  0  0  0  0
 11 12  4  0  0  0  0
 11 27  1  0  0  0  0
 12 13  4  0  0  0  0
 12 28  1  0  0  0  0
 13 14  4  0  0  0  0
 13 16  1  0  0  0  0
 14 15  4  0  0  0  0
 14 29  1  0  0  0  0
 15 30  1  0  0  0  0
 16 17  1  0  0  0  0
 17 31  1  0  0  0  0
 17 32  1  0  0  0  0
 17 33  1  0  0  0  0
 18 19  1  0  0  0  0
 18 34  1  0  0  0  0
 19 20  1  0  0  0  0
 19 23  1  0  0  0  0
 19 35  1  0  0  0  0
 20 21  1  0  0  0  0
 20 36  1  0  0  0  0
 20 37  1  0  0  0  0
 21 22  1  0  0  0  0
 21 38  1  0  0  0  0
 21 39  1  0  0  0  0
 22 23  1  0  0  0  0
 22 24  1  0  0  0  0
 22 40  1  0  0  0  0
 23 41  1  0  0  0  0
 23 42  1  0  0  0  0
 24 43  1  0  0  0  0
 24 44  1  0  0  0  0
M  END
> <ConfClashScore>
0 

> <ConfOneFourInteractionScore>
-0.984337 

> <ConfScore>
-0.0273772 

> <ConfScorePBest>
0.00303345 

> <ConfTolerance>
0.306394 

$$$$
c22.sdf
 OpenBabel04162418103D

 44 47  0  0  0  0  0  0  0  0999 V2000
    4.3424    0.2181    1.1145 C   0  0  0  1  0  0  0  0  0  0  0  0
    3.4929    0.3309    2.1405 N   0  0  0  1  0  0  0  0  0  0  0  0
    3.9883    0.7144    3.3341 C   0  0  0  1  0  0  0  0  0  0  0  0
    5.3840    0.9842    3.4398 C   0  0  0  1  0  0  0  0  0  0  0  0
    6.1168    0.8204    2.2707 C   0  0  0  1  0  0  0  0  0  0  0  0
    5.6487    0.4301    1.0613 N   0  0  0  1  0  0  0  0  0  0  0  0
    6.3383    1.4026    4.3890 C   0  0  0  1  0  0  0  0  0  0  0  0
    7.5410    1.4844    3.8685 N   0  0  0  1  0  0  0  0  0  0  0  0
    7.4030    1.1239    2.5567 N   0  0  0  1  0  0  0  0  0  0  0  0
    8.4645    1.0750    1.6231 C   0  0  0  1  0  0  0  0  0  0  0  0
    9.1276    2.2349    1.2695 C   0  0  0  1  0  0  0  0  0  0  0  0
   10.1714    2.1861    0.3586 C   0  0  0  1  0  0  0  0  0  0  0  0
   10.5456    0.9785   -0.1999 C   0  0  0  1  0  0  0  0  0  0  0  0
    9.8804   -0.1847    0.1549 C   0  0  0  1  0  0  0  0  0  0  0  0
    8.8396   -0.1363    1.0631 C   0  0  0  1  0  0  0  0  0  0  0  0
   11.5424    0.8083   -1.1006 O   0  0  0  1  0  0  0  0  0  0  0  0
   12.1764    1.9923   -1.6093 C   0  0  0  1  0  0  0  0  0  0  0  0
    3.7751   -0.1771   -0.0615 N   0  0  0  1  0  0  0  0  0  0  0  0
    4.5706   -0.3511   -1.2801 C   0  0  0  1  0  0  0  0  0  0  0  0
    3.6766   -0.2304   -2.5197 C   0  0  0  1  0  0  0  0  0  0  0  0
    3.6779   -1.6151   -3.1552 C   0  0  0  1  0  0  0  0  0  0  0  0
    5.0396   -2.2142   -2.7802 C   0  0  0  1  0  0  0  0  0  0  0  0
    5.1762   -1.7629   -1.3235 C   0  0  0  1  0  0  0  0  0  0  0  0
    6.1282   -1.6599   -3.6250 N   0  0  0  1  0  0  0  0  0  0  0  0
    3.3650    0.8116    4.1610 H   0  0  0  1  0  0  0  0  0  0  0  0
    6.1167    1.6202    5.3815 H   0  0  0  1  0  0  0  0  0  0  0  0
    8.8435    3.1442    1.6867 H   0  0  0  1  0  0  0  0  0  0  0  0
   10.6730    3.0583    0.0955 H   0  0  0  1  0  0  0  0  0  0  0  0
   10.1645   -1.0941   -0.2623 H   0  0  0  1  0  0  0  0  0  0  0  0
    8.3380   -1.0084    1.3262 H   0  0  0  1  0  0  0  0  0  0  0  0
   12.6654    1.7665   -2.5338 H   0  0  0  1  0  0  0  0  0  0  0  0
   12.8976    2.3429   -0.9009 H   0  0  0  1  0  0  0  0  0  0  0  0
   11.4384    2.7498   -1.7722 H   0  0  0  1  0  0  0  0  0  0  0  0
    2.8108   -0.3491   -0.0923 H   0  0  0  1  0  0  0  0  0  0  0  0
    5.3457    0.3859   -1.3088 H   0  0  0  1  0  0  0  0  0  0  0  0
    4.0749    0.4938   -3.1994 H   0  0  0  1  0  0  0  0  0  0  0  0
    2.6834    0.0517   -2.2390 H   0  0  0  1  0  0  0  0  0  0  0  0
    3.5776   -1.5426   -4.2181 H   0  0  0  1  0  0  0  0  0  0  0  0
    2.8819   -2.2118   -2.7612 H   0  0  0  1  0  0  0  0  0  0  0  0
    5.0333   -3.2811   -2.8604 H   0  0  0  1  0  0  0  0  0  0  0  0
    6.2059   -1.7383   -1.0335 H   0  0  0  1  0  0  0  0  0  0  0  0
    4.6381   -2.4220   -0.6747 H   0  0  0  1  0  0  0  0  0  0  0  0
    6.9750   -2.0965   -3.3955 H   0  0  0  1  0  0  0  0  0  0  0  0
    6.2050   -0.6957   -3.4674 H   0  0  0  1  0  0  0  0  0  0  0  0
  1  2  4  0  0  0  0
  1  6  4  0  0  0  0
  1 18  1  0  0  0  0
  2  3  4  0  0  0  0
  3  4  4  0  0  0  0
  3 25  1  0  0  0  0
  4  5  4  0  0  0  0
  4  7  4  0  0  0  0
  5  6  4  0  0  0  0
  5  9  4  0  0  0  0
  7  8  4  0  0  0  0
  7 26  1  0  0  0  0
  8  9  4  0  0  0  0
  9 10  1  0  0  0  0
 10 11  4  0  0  0  0
 10 15  4  0  0  0  0
 11 12  4  0  0  0  0
 11 27  1  0  0  0  0
 12 13  4  0  0  0  0
 12 28  1  0  0  0  0
 13 14  4  0  0  0  0
 13 16  1  0  0  0  0
 14 15  4  0  0  0  0
 14 29  1  0  0  0  0
 15 30  1  0  0  0  0
 16 17  1  0  0  0  0
 17 31  1  0  0  0  0
 17 32  1  0  0  0  0
 17 33  1  0  0  0  0
 18 19  1  0  0  0  0
 18 34  1  0  0  0  0
 19 20  1  0  0  0  0
 19 23  1  0  0  0  0
 19 35  1  0  0  0  0
 20 21  1  0  0  0  0
 20 36  1  0  0  0  0
 20 37  1  0  0  0  0
 21 22  1  0  0  0  0
 21 38  1  0  0  0  0
 21 39  1  0  0  0  0
 22 23  1  0  0  0  0
 22 24  1  0  0  0  0
 22 40  1  0  0  0  0
 23 41  1  0  0  0  0
 23 42  1  0  0  0  0
 24 43  1  0  0  0  0
 24 44  1  0  0  0  0
M  END
> <ConfClashScore>
0 

> <ConfOneFourInteractionScore>
-0.984337 

> <ConfScore>
-0.0259153 

> <ConfScorePBest>
0.00302012 

> <ConfTolerance>
0.360156 

$$$$
c22.sdf
 OpenBabel04162418103D

 44 47  0  0  0  0  0  0  0  0999 V2000
    3.1019    0.9146    0.4582 C   0  0  0  1  0  0  0  0  0  0  0  0
    2.2025    0.7614    1.4352 N   0  0  0  1  0  0  0  0  0  0  0  0
    1.6308    1.8685    1.9497 C   0  0  0  1  0  0  0  0  0  0  0  0
    2.0082    3.1390    1.4250 C   0  0  0  1  0  0  0  0  0  0  0  0
    2.9541    3.1109    0.4076 C   0  0  0  1  0  0  0  0  0  0  0  0
    3.5500    2.0169   -0.1236 N   0  0  0  1  0  0  0  0  0  0  0  0
    1.7186    4.5088    1.5886 C   0  0  0  1  0  0  0  0  0  0  0  0
    2.4158    5.2568    0.7649 N   0  0  0  1  0  0  0  0  0  0  0  0
    3.1805    4.3905    0.0338 N   0  0  0  1  0  0  0  0  0  0  0  0
    4.0802    4.7778   -0.9706 C   0  0  0  1  0  0  0  0  0  0  0  0
    4.1209    4.2325   -2.2399 C   0  0  0  1  0  0  0  0  0  0  0  0
    5.0485    4.6917   -3.1619 C   0  0  0  1  0  0  0  0  0  0  0  0
    5.9361    5.6912   -2.8104 C   0  0  0  1  0  0  0  0  0  0  0  0
    5.8951    6.2380   -1.5372 C   0  0  0  1  0  0  0  0  0  0  0  0
    4.9703    5.7801   -0.6178 C   0  0  0  1  0  0  0  0  0  0  0  0
    6.7931    6.0517   -3.7853 O   0  0  0  1  0  0  0  0  0  0  0  0
    7.7055    7.1181   -3.4347 C   0  0  0  1  0  0  0  0  0  0  0  0
    3.6353   -0.2295   -0.0067 N   0  0  0  1  0  0  0  0  0  0  0  0
    4.5344   -0.3665   -1.1536 C   0  0  0  1  0  0  0  0  0  0  0  0
    3.7752   -0.0995   -2.4585 C   0  0  0  1  0  0  0  0  0  0  0  0
    3.7594   -1.4322   -3.1967 C   0  0  0  1  0  0  0  0  0  0  0  0
    5.0408   -2.1435   -2.7432 C   0  0  0  1  0  0  0  0  0  0  0  0
    5.0592   -1.8078   -1.2495 C   0  0  0  1  0  0  0  0  0  0  0  0
    6.2406   -1.6001   -3.4385 N   0  0  0  1  0  0  0  0  0  0  0  0
    0.9289    1.7972    2.7137 H   0  0  0  1  0  0  0  0  0  0  0  0
    1.0355    4.8818    2.2784 H   0  0  0  1  0  0  0  0  0  0  0  0
    3.4557    3.4776   -2.5032 H   0  0  0  1  0  0  0  0  0  0  0  0
    5.0765    4.2842   -4.1183 H   0  0  0  1  0  0  0  0  0  0  0  0
    6.5603    6.9928   -1.2739 H   0  0  0  1  0  0  0  0  0  0  0  0
    4.9422    6.1876    0.3387 H   0  0  0  1  0  0  0  0  0  0  0  0
    8.4543    7.2114   -4.1934 H   0  0  0  1  0  0  0  0  0  0  0  0
    8.1726    6.8942   -2.4985 H   0  0  0  1  0  0  0  0  0  0  0  0
    7.1644    8.0376   -3.3530 H   0  0  0  1  0  0  0  0  0  0  0  0
    3.3985   -1.0526    0.4696 H   0  0  0  1  0  0  0  0  0  0  0  0
    5.3497    0.3190   -1.0521 H   0  0  0  1  0  0  0  0  0  0  0  0
    4.2794    0.6443   -3.0395 H   0  0  0  1  0  0  0  0  0  0  0  0
    2.7770    0.2254   -2.2511 H   0  0  0  1  0  0  0  0  0  0  0  0
    2.8954   -2.0028   -2.9267 H   0  0  0  1  0  0  0  0  0  0  0  0
    3.7684   -1.2772   -4.2554 H   0  0  0  1  0  0  0  0  0  0  0  0
    4.9811   -3.1993   -2.9063 H   0  0  0  1  0  0  0  0  0  0  0  0
    4.4228   -2.4755   -0.7072 H   0  0  0  1  0  0  0  0  0  0  0  0
    6.0550   -1.8707   -0.8632 H   0  0  0  1  0  0  0  0  0  0  0  0
    6.0774   -1.5792   -4.4046 H   0  0  0  1  0  0  0  0  0  0  0  0
    7.0138   -2.1721   -3.2504 H   0  0  0  1  0  0  0  0  0  0  0  0
  1  2  4  0  0  0  0
  1  6  4  0  0  0  0
  1 18  1  0  0  0  0
  2  3  4  0  0  0  0
  3  4  4  0  0  0  0
  3 25  1  0  0  0  0
  4  5  4  0  0  0  0
  4  7  4  0  0  0  0
  5  6  4  0  0  0  0
  5  9  4  0  0  0  0
  7  8  4  0  0  0  0
  7 26  1  0  0  0  0
  8  9  4  0  0  0  0
  9 10  1  0  0  0  0
 10 11  4  0  0  0  0
 10 15  4  0  0  0  0
 11 12  4  0  0  0  0
 11 27  1  0  0  0  0
 12 13  4  0  0  0  0
 12 28  1  0  0  0  0
 13 14  4  0  0  0  0
 13 16  1  0  0  0  0
 14 15  4  0  0  0  0
 14 29  1  0  0  0  0
 15 30  1  0  0  0  0
 16 17  1  0  0  0  0
 17 31  1  0  0  0  0
 17 32  1  0  0  0  0
 17 33  1  0  0  0  0
 18 19  1  0  0  0  0
 18 34  1  0  0  0  0
 19 20  1  0  0  0  0
 19 23  1  0  0  0  0
 19 35  1  0  0  0  0
 20 21  1  0  0  0  0
 20 36  1  0  0  0  0
 20 37  1  0  0  0  0
 21 22  1  0  0  0  0
 21 38  1  0  0  0  0
 21 39  1  0  0  0  0
 22 23  1  0  0  0  0
 22 24  1  0  0  0  0
 22 40  1  0  0  0  0
 23 41  1  0  0  0  0
 23 42  1  0  0  0  0
 24 43  1  0  0  0  0
 24 44  1  0  0  0  0
M  END
> <ConfClashScore>
0 

> <ConfOneFourInteractionScore>
-0.984337 

> <ConfScore>
-0.0257867 

> <ConfScorePBest>
0.00300679 

> <ConfTolerance>
0.295622 

$$$$
c22.sdf
 OpenBabel04162418103D

 44 47  0  0  0  0  0  0  0  0999 V2000
    2.9573   -1.0487    1.0370 C   0  0  0  1  0  0  0  0  0  0  0  0
    3.6220   -0.0485    1.6242 N   0  0  0  1  0  0  0  0  0  0  0  0
    3.4264    0.1546    2.9425 C   0  0  0  1  0  0  0  0  0  0  0  0
    2.5300   -0.7061    3.6407 C   0  0  0  1  0  0  0  0  0  0  0  0
    1.9292   -1.6964    2.8733 C   0  0  0  1  0  0  0  0  0  0  0  0
    2.1004   -1.9196    1.5485 N   0  0  0  1  0  0  0  0  0  0  0  0
    2.0202   -0.9182    4.9376 C   0  0  0  1  0  0  0  0  0  0  0  0
    1.1839   -1.9299    4.9738 N   0  0  0  1  0  0  0  0  0  0  0  0
    1.1282   -2.4114    3.6952 N   0  0  0  1  0  0  0  0  0  0  0  0
    0.3406   -3.5072    3.2882 C   0  0  0  1  0  0  0  0  0  0  0  0
    0.5325   -4.7822    3.7860 C   0  0  0  1  0  0  0  0  0  0  0  0
   -0.2748   -5.8232    3.3548 C   0  0  0  1  0  0  0  0  0  0  0  0
   -1.2681   -5.5874    2.4231 C   0  0  0  1  0  0  0  0  0  0  0  0
   -1.4604   -4.3086    1.9239 C   0  0  0  1  0  0  0  0  0  0  0  0
   -0.6555   -3.2705    2.3537 C   0  0  0  1  0  0  0  0  0  0  0  0
   -2.1119   -6.5223    1.9252 O   0  0  0  1  0  0  0  0  0  0  0  0
   -1.9980   -7.8546    2.4490 C   0  0  0  1  0  0  0  0  0  0  0  0
    3.1967   -1.1937   -0.2838 N   0  0  0  1  0  0  0  0  0  0  0  0
    4.2543   -0.4802   -1.0057 C   0  0  0  1  0  0  0  0  0  0  0  0
    3.8002   -0.0808   -2.4157 C   0  0  0  1  0  0  0  0  0  0  0  0
    3.8962   -1.3646   -3.2306 C   0  0  0  1  0  0  0  0  0  0  0  0
    5.0210   -2.1770   -2.5786 C   0  0  0  1  0  0  0  0  0  0  0  0
    5.4371   -1.4003   -1.3194 C   0  0  0  1  0  0  0  0  0  0  0  0
    6.1833   -2.3037   -3.5191 N   0  0  0  1  0  0  0  0  0  0  0  0
    3.9194    0.9235    3.4399 H   0  0  0  1  0  0  0  0  0  0  0  0
    2.2754   -0.3430    5.7656 H   0  0  0  1  0  0  0  0  0  0  0  0
    1.2825   -4.9604    4.4841 H   0  0  0  1  0  0  0  0  0  0  0  0
   -0.1331   -6.7818    3.7325 H   0  0  0  1  0  0  0  0  0  0  0  0
   -2.2104   -4.1303    1.2258 H   0  0  0  1  0  0  0  0  0  0  0  0
   -0.7972   -2.3119    1.9761 H   0  0  0  1  0  0  0  0  0  0  0  0
   -2.9722   -8.2879    2.5382 H   0  0  0  1  0  0  0  0  0  0  0  0
   -1.5336   -7.8203    3.4124 H   0  0  0  1  0  0  0  0  0  0  0  0
   -1.4031   -8.4483    1.7868 H   0  0  0  1  0  0  0  0  0  0  0  0
    2.6299   -1.8126   -0.7898 H   0  0  0  1  0  0  0  0  0  0  0  0
    4.5619    0.3727   -0.4374 H   0  0  0  1  0  0  0  0  0  0  0  0
    4.4441    0.6719   -2.8203 H   0  0  0  1  0  0  0  0  0  0  0  0
    2.7935    0.2813   -2.3994 H   0  0  0  1  0  0  0  0  0  0  0  0
    2.9728   -1.9038   -3.1898 H   0  0  0  1  0  0  0  0  0  0  0  0
    4.1361   -1.1439   -4.2498 H   0  0  0  1  0  0  0  0  0  0  0  0
    4.6684   -3.1518   -2.3132 H   0  0  0  1  0  0  0  0  0  0  0  0
    6.3197   -0.8255   -1.5080 H   0  0  0  1  0  0  0  0  0  0  0  0
    5.6155   -2.0723   -0.5061 H   0  0  0  1  0  0  0  0  0  0  0  0
    6.4311   -1.4167   -3.8543 H   0  0  0  1  0  0  0  0  0  0  0  0
    5.9329   -2.8789   -4.2720 H   0  0  0  1  0  0  0  0  0  0  0  0
  1  2  4  0  0  0  0
  1  6  4  0  0  0  0
  1 18  1  0  0  0  0
  2  3  4  0  0  0  0
  3  4  4  0  0  0  0
  3 25  1  0  0  0  0
  4  5  4  0  0  0  0
  4  7  4  0  0  0  0
  5  6  4  0  0  0  0
  5  9  4  0  0  0  0
  7  8  4  0  0  0  0
  7 26  1  0  0  0  0
  8  9  4  0  0  0  0
  9 10  1  0  0  0  0
 10 11  4  0  0  0  0
 10 15  4  0  0  0  0
 11 12  4  0  0  0  0
 11 27  1  0  0  0  0
 12 13  4  0  0  0  0
 12 28  1  0  0  0  0
 13 14  4  0  0  0  0
 13 16  1  0  0  0  0
 14 15  4  0  0  0  0
 14 29  1  0  0  0  0
 15 30  1  0  0  0  0
 16 17  1  0  0  0  0
 17 31  1  0  0  0  0
 17 32  1  0  0  0  0
 17 33  1  0  0  0  0
 18 19  1  0  0  0  0
 18 34  1  0  0  0  0
 19 20  1  0  0  0  0
 19 23  1  0  0  0  0
 19 35  1  0  0  0  0
 20 21  1  0  0  0  0
 20 36  1  0  0  0  0
 20 37  1  0  0  0  0
 21 22  1  0  0  0  0
 21 38  1  0  0  0  0
 21 39  1  0  0  0  0
 22 23  1  0  0  0  0
 22 24  1  0  0  0  0
 22 40  1  0  0  0  0
 23 41  1  0  0  0  0
 23 42  1  0  0  0  0
 24 43  1  0  0  0  0
 24 44  1  0  0  0  0
M  END
> <ConfClashScore>
0 

> <ConfOneFourInteractionScore>
-0.984337 

> <ConfScore>
-0.0257348 

> <ConfScorePBest>
0.00299346 

> <ConfTolerance>
0.354168 

$$$$
c22.sdf
 OpenBabel04162418103D

 44 47  0  0  0  0  0  0  0  0999 V2000
    4.1612   -1.0578    1.3090 C   0  0  0  1  0  0  0  0  0  0  0  0
    5.1756   -0.2071    1.4943 N   0  0  0  1  0  0  0  0  0  0  0  0
    5.6814   -0.0852    2.7379 C   0  0  0  1  0  0  0  0  0  0  0  0
    5.1157   -0.8693    3.7854 C   0  0  0  1  0  0  0  0  0  0  0  0
    4.0700   -1.7045    3.4118 C   0  0  0  1  0  0  0  0  0  0  0  0
    3.5370   -1.8425    2.1745 N   0  0  0  1  0  0  0  0  0  0  0  0
    5.2758   -1.1131    5.1644 C   0  0  0  1  0  0  0  0  0  0  0  0
    4.4157   -2.0016    5.6060 N   0  0  0  1  0  0  0  0  0  0  0  0
    3.6695   -2.3675    4.5201 N   0  0  0  1  0  0  0  0  0  0  0  0
    2.6186   -3.3136    4.5521 C   0  0  0  1  0  0  0  0  0  0  0  0
    1.8421   -3.5198    5.6767 C   0  0  0  1  0  0  0  0  0  0  0  0
    0.8208   -4.4567    5.6513 C   0  0  0  1  0  0  0  0  0  0  0  0
    0.5824   -5.1884    4.5033 C   0  0  0  1  0  0  0  0  0  0  0  0
    1.3613   -4.9815    3.3754 C   0  0  0  1  0  0  0  0  0  0  0  0
    2.3796   -4.0474    3.4005 C   0  0  0  1  0  0  0  0  0  0  0  0
   -0.3951   -6.1214    4.4145 O   0  0  0  1  0  0  0  0  0  0  0  0
   -1.2384   -6.2997    5.5633 C   0  0  0  1  0  0  0  0  0  0  0  0
    3.6962   -1.1288    0.0285 N   0  0  0  1  0  0  0  0  0  0  0  0
    4.3468   -0.4209   -1.0599 C   0  0  0  1  0  0  0  0  0  0  0  0
    3.3898   -0.2850   -2.2461 C   0  0  0  1  0  0  0  0  0  0  0  0
    3.9639   -1.1611   -3.3511 C   0  0  0  1  0  0  0  0  0  0  0  0
    4.9233   -2.1328   -2.6776 C   0  0  0  1  0  0  0  0  0  0  0  0
    5.5821   -1.2324   -1.5668 C   0  0  0  1  0  0  0  0  0  0  0  0
    5.9453   -2.6391   -3.6405 N   0  0  0  1  0  0  0  0  0  0  0  0
    6.4681    0.5675    2.9292 H   0  0  0  1  0  0  0  0  0  0  0  0
    5.9888   -0.6458    5.7601 H   0  0  0  1  0  0  0  0  0  0  0  0
    2.0241   -2.9721    6.5418 H   0  0  0  1  0  0  0  0  0  0  0  0
    0.2339   -4.6090    6.4963 H   0  0  0  1  0  0  0  0  0  0  0  0
    1.1793   -5.5292    2.5102 H   0  0  0  1  0  0  0  0  0  0  0  0
    2.9665   -3.8950    2.5556 H   0  0  0  1  0  0  0  0  0  0  0  0
   -1.7818   -7.2166    5.4686 H   0  0  0  1  0  0  0  0  0  0  0  0
   -1.9264   -5.4829    5.6305 H   0  0  0  1  0  0  0  0  0  0  0  0
   -0.6353   -6.3323    6.4465 H   0  0  0  1  0  0  0  0  0  0  0  0
    2.9027   -1.6715   -0.1618 H   0  0  0  1  0  0  0  0  0  0  0  0
    4.6551    0.5467   -0.7229 H   0  0  0  1  0  0  0  0  0  0  0  0
    2.4114   -0.6225   -1.9747 H   0  0  0  1  0  0  0  0  0  0  0  0
    3.3395    0.7342   -2.5681 H   0  0  0  1  0  0  0  0  0  0  0  0
    4.4874   -0.5600   -4.0649 H   0  0  0  1  0  0  0  0  0  0  0  0
    3.1793   -1.6974   -3.8427 H   0  0  0  1  0  0  0  0  0  0  0  0
    4.3986   -2.9596   -2.2462 H   0  0  0  1  0  0  0  0  0  0  0  0
    6.0094   -1.8247   -0.7848 H   0  0  0  1  0  0  0  0  0  0  0  0
    6.3318   -0.5890   -1.9777 H   0  0  0  1  0  0  0  0  0  0  0  0
    6.5835   -3.2136   -3.1682 H   0  0  0  1  0  0  0  0  0  0  0  0
    6.4216   -1.8812   -4.0394 H   0  0  0  1  0  0  0  0  0  0  0  0
  1  2  4  0  0  0  0
  1  6  4  0  0  0  0
  1 18  1  0  0  0  0
  2  3  4  0  0  0  0
  3  4  4  0  0  0  0
  3 25  1  0  0  0  0
  4  5  4  0  0  0  0
  4  7  4  0  0  0  0
  5  6  4  0  0  0  0
  5  9  4  0  0  0  0
  7  8  4  0  0  0  0
  7 26  1  0  0  0  0
  8  9  4  0  0  0  0
  9 10  1  0  0  0  0
 10 11  4  0  0  0  0
 10 15  4  0  0  0  0
 11 12  4  0  0  0  0
 11 27  1  0  0  0  0
 12 13  4  0  0  0  0
 12 28  1  0  0  0  0
 13 14  4  0  0  0  0
 13 16  1  0  0  0  0
 14 15  4  0  0  0  0
 14 29  1  0  0  0  0
 15 30  1  0  0  0  0
 16 17  1  0  0  0  0
 17 31  1  0  0  0  0
 17 32  1  0  0  0  0
 17 33  1  0  0  0  0
 18 19  1  0  0  0  0
 18 34  1  0  0  0  0
 19 20  1  0  0  0  0
 19 23  1  0  0  0  0
 19 35  1  0  0  0  0
 20 21  1  0  0  0  0
 20 36  1  0  0  0  0
 20 37  1  0  0  0  0
 21 22  1  0  0  0  0
 21 38  1  0  0  0  0
 21 39  1  0  0  0  0
 22 23  1  0  0  0  0
 22 24  1  0  0  0  0
 22 40  1  0  0  0  0
 23 41  1  0  0  0  0
 23 42  1  0  0  0  0
 24 43  1  0  0  0  0
 24 44  1  0  0  0  0
M  END
> <ConfClashScore>
0 

> <ConfOneFourInteractionScore>
-0.984337 

> <ConfScore>
-0.0248945 

> <ConfScorePBest>
0.00298014 

> <ConfTolerance>
0.364877 

$$$$
c22.sdf
 OpenBabel04162418103D

 44 47  0  0  0  0  0  0  0  0999 V2000
    4.3459    0.2146    1.1116 C   0  0  0  1  0  0  0  0  0  0  0  0
    5.6704    0.3922    1.0783 N   0  0  0  1  0  0  0  0  0  0  0  0
    6.2932    0.7325    2.2244 C   0  0  0  1  0  0  0  0  0  0  0  0
    5.5130    0.8795    3.4083 C   0  0  0  1  0  0  0  0  0  0  0  0
    4.1503    0.6519    3.2607 C   0  0  0  1  0  0  0  0  0  0  0  0
    3.4967    0.3165    2.1230 N   0  0  0  1  0  0  0  0  0  0  0  0
    5.6654    1.1852    4.7758 C   0  0  0  1  0  0  0  0  0  0  0  0
    4.5175    1.1580    5.4128 N   0  0  0  1  0  0  0  0  0  0  0  0
    3.5798    0.8275    4.4740 N   0  0  0  1  0  0  0  0  0  0  0  0
    2.1970    0.6880    4.7370 C   0  0  0  1  0  0  0  0  0  0  0  0
    1.4221   -0.1352    3.9420 C   0  0  0  1  0  0  0  0  0  0  0  0
    0.0681   -0.2760    4.2032 C   0  0  0  1  0  0  0  0  0  0  0  0
   -0.5082    0.4107    5.2551 C   0  0  0  1  0  0  0  0  0  0  0  0
    0.2692    1.2363    6.0524 C   0  0  0  1  0  0  0  0  0  0  0  0
    1.6194    1.3768    5.7922 C   0  0  0  1  0  0  0  0  0  0  0  0
   -1.8320    0.2771    5.5069 O   0  0  0  1  0  0  0  0  0  0  0  0
   -2.5382   -0.7421    4.7823 C   0  0  0  1  0  0  0  0  0  0  0  0
    3.7805   -0.1246   -0.0827 N   0  0  0  1  0  0  0  0  0  0  0  0
    4.5929   -0.3445   -1.2863 C   0  0  0  1  0  0  0  0  0  0  0  0
    3.7309   -0.1891   -2.5446 C   0  0  0  1  0  0  0  0  0  0  0  0
    3.6787   -1.5763   -3.1725 C   0  0  0  1  0  0  0  0  0  0  0  0
    5.0023   -2.2373   -2.7665 C   0  0  0  1  0  0  0  0  0  0  0  0
    5.1310   -1.7839   -1.3098 C   0  0  0  1  0  0  0  0  0  0  0  0
    6.1393   -1.7382   -3.5965 N   0  0  0  1  0  0  0  0  0  0  0  0
    7.3218    0.8848    2.2444 H   0  0  0  1  0  0  0  0  0  0  0  0
    6.5767    1.4056    5.2258 H   0  0  0  1  0  0  0  0  0  0  0  0
    1.8548   -0.6488    3.1480 H   0  0  0  1  0  0  0  0  0  0  0  0
   -0.5143   -0.8986    3.6074 H   0  0  0  1  0  0  0  0  0  0  0  0
   -0.1634    1.7499    6.8465 H   0  0  0  1  0  0  0  0  0  0  0  0
    2.2018    1.9993    6.3879 H   0  0  0  1  0  0  0  0  0  0  0  0
   -2.3525   -0.6291    3.7346 H   0  0  0  1  0  0  0  0  0  0  0  0
   -3.5876   -0.6507    4.9701 H   0  0  0  1  0  0  0  0  0  0  0  0
   -2.2007   -1.7057    5.1022 H   0  0  0  1  0  0  0  0  0  0  0  0
    2.8072   -0.2241   -0.1389 H   0  0  0  1  0  0  0  0  0  0  0  0
    5.4029    0.3544   -1.3032 H   0  0  0  1  0  0  0  0  0  0  0  0
    4.1770    0.5109   -3.2198 H   0  0  0  1  0  0  0  0  0  0  0  0
    2.7468    0.1419   -2.2857 H   0  0  0  1  0  0  0  0  0  0  0  0
    2.8472   -2.1318   -2.7917 H   0  0  0  1  0  0  0  0  0  0  0  0
    3.6034   -1.5058   -4.2376 H   0  0  0  1  0  0  0  0  0  0  0  0
    4.9466   -3.3032   -2.8411 H   0  0  0  1  0  0  0  0  0  0  0  0
    4.5490   -2.4124   -0.6686 H   0  0  0  1  0  0  0  0  0  0  0  0
    6.1546   -1.8066   -0.9990 H   0  0  0  1  0  0  0  0  0  0  0  0
    6.9729   -2.1556   -3.2942 H   0  0  0  1  0  0  0  0  0  0  0  0
    6.2090   -0.7651   -3.5033 H   0  0  0  1  0  0  0  0  0  0  0  0
  1  2  4  0  0  0  0
  1  6  4  0  0  0  0
  1 18  1  0  0  0  0
  2  3  4  0  0  0  0
  3  4  4  0  0  0  0
  3 25  1  0  0  0  0
  4  5  4  0  0  0  0
  4  7  4  0  0  0  0
  5  6  4  0  0  0  0
  5  9  4  0  0  0  0
  7  8  4  0  0  0  0
  7 26  1  0  0  0  0
  8  9  4  0  0  0  0
  9 10  1  0  0  0  0
 10 11  4  0  0  0  0
 10 15  4  0  0  0  0
 11 12  4  0  0  0  0
 11 27  1  0  0  0  0
 12 13  4  0  0  0  0
 12 28  1  0  0  0  0
 13 14  4  0  0  0  0
 13 16  1  0  0  0  0
 14 15  4  0  0  0  0
 14 29  1  0  0  0  0
 15 30  1  0  0  0  0
 16 17  1  0  0  0  0
 17 31  1  0  0  0  0
 17 32  1  0  0  0  0
 17 33  1  0  0  0  0
 18 19  1  0  0  0  0
 18 34  1  0  0  0  0
 19 20  1  0  0  0  0
 19 23  1  0  0  0  0
 19 35  1  0  0  0  0
 20 21  1  0  0  0  0
 20 36  1  0  0  0  0
 20 37  1  0  0  0  0
 21 22  1  0  0  0  0
 21 38  1  0  0  0  0
 21 39  1  0  0  0  0
 22 23  1  0  0  0  0
 22 24  1  0  0  0  0
 22 40  1  0  0  0  0
 23 41  1  0  0  0  0
 23 42  1  0  0  0  0
 24 43  1  0  0  0  0
 24 44  1  0  0  0  0
M  END
> <ConfClashScore>
0 

> <ConfOneFourInteractionScore>
-0.984337 

> <ConfScore>
-0.0248945 

> <ConfScorePBest>
0.00296681 

> <ConfTolerance>
0.24553 

$$$$
c22.sdf
 OpenBabel04162418103D

 44 47  0  0  0  0  0  0  0  0999 V2000
    3.5784   -1.1039    1.3084 C   0  0  0  1  0  0  0  0  0  0  0  0
    2.6517   -1.8101    1.9639 N   0  0  0  1  0  0  0  0  0  0  0  0
    2.6639   -1.7750    3.3114 C   0  0  0  1  0  0  0  0  0  0  0  0
    3.6552   -0.9865    3.9653 C   0  0  0  1  0  0  0  0  0  0  0  0
    4.5357   -0.3138    3.1270 C   0  0  0  1  0  0  0  0  0  0  0  0
    4.5522   -0.3358    1.7730 N   0  0  0  1  0  0  0  0  0  0  0  0
    4.0669   -0.6205    5.2628 C   0  0  0  1  0  0  0  0  0  0  0  0
    5.0999    0.1897    5.2367 N   0  0  0  1  0  0  0  0  0  0  0  0
    5.3895    0.3793    3.9138 N   0  0  0  1  0  0  0  0  0  0  0  0
    6.4422    1.1922    3.4325 C   0  0  0  1  0  0  0  0  0  0  0  0
    7.5533    1.4228    4.2214 C   0  0  0  1  0  0  0  0  0  0  0  0
    8.5873    2.2151    3.7476 C   0  0  0  1  0  0  0  0  0  0  0  0
    8.5048    2.7789    2.4884 C   0  0  0  1  0  0  0  0  0  0  0  0
    7.3903    2.5476    1.6972 C   0  0  0  1  0  0  0  0  0  0  0  0
    6.3593    1.7576    2.1696 C   0  0  0  1  0  0  0  0  0  0  0  0
    9.5127    3.5572    2.0276 O   0  0  0  1  0  0  0  0  0  0  0  0
    9.3164    4.2025    0.7597 C   0  0  0  1  0  0  0  0  0  0  0  0
    3.5112   -1.1861   -0.0326 N   0  0  0  1  0  0  0  0  0  0  0  0
    4.3104   -0.4611   -1.0481 C   0  0  0  1  0  0  0  0  0  0  0  0
    3.4613   -0.1913   -2.2921 C   0  0  0  1  0  0  0  0  0  0  0  0
    4.0544   -1.0513   -3.3998 C   0  0  0  1  0  0  0  0  0  0  0  0
    4.8851   -2.1272   -2.7137 C   0  0  0  1  0  0  0  0  0  0  0  0
    5.5191   -1.3382   -1.5077 C   0  0  0  1  0  0  0  0  0  0  0  0
    5.9314   -2.6564   -3.6186 N   0  0  0  1  0  0  0  0  0  0  0  0
    1.9644   -2.3121    3.8626 H   0  0  0  1  0  0  0  0  0  0  0  0
    3.6080   -0.9520    6.1352 H   0  0  0  1  0  0  0  0  0  0  0  0
    7.6136    1.0018    5.1705 H   0  0  0  1  0  0  0  0  0  0  0  0
    9.4252    2.3853    4.3397 H   0  0  0  1  0  0  0  0  0  0  0  0
    7.3300    2.9686    0.7481 H   0  0  0  1  0  0  0  0  0  0  0  0
    5.5214    1.5874    1.5775 H   0  0  0  1  0  0  0  0  0  0  0  0
   10.2149    4.7082    0.4734 H   0  0  0  1  0  0  0  0  0  0  0  0
    8.5188    4.9112    0.8402 H   0  0  0  1  0  0  0  0  0  0  0  0
    9.0693    3.4690    0.0210 H   0  0  0  1  0  0  0  0  0  0  0  0
    2.8431   -1.8102   -0.3858 H   0  0  0  1  0  0  0  0  0  0  0  0
    4.6611    0.4614   -0.6347 H   0  0  0  1  0  0  0  0  0  0  0  0
    3.5106    0.8438   -2.5584 H   0  0  0  1  0  0  0  0  0  0  0  0
    2.4427   -0.4661   -2.1135 H   0  0  0  1  0  0  0  0  0  0  0  0
    3.2736   -1.4997   -3.9778 H   0  0  0  1  0  0  0  0  0  0  0  0
    4.6744   -0.4564   -4.0376 H   0  0  0  1  0  0  0  0  0  0  0  0
    4.2696   -2.9321   -2.3699 H   0  0  0  1  0  0  0  0  0  0  0  0
    6.3434   -0.7342   -1.8247 H   0  0  0  1  0  0  0  0  0  0  0  0
    5.8398   -2.0010   -0.7312 H   0  0  0  1  0  0  0  0  0  0  0  0
    6.4504   -3.3442   -3.1517 H   0  0  0  1  0  0  0  0  0  0  0  0
    6.5266   -1.9272   -3.8912 H   0  0  0  1  0  0  0  0  0  0  0  0
  1  2  4  0  0  0  0
  1  6  4  0  0  0  0
  1 18  1  0  0  0  0
  2  3  4  0  0  0  0
  3  4  4  0  0  0  0
  3 25  1  0  0  0  0
  4  5  4  0  0  0  0
  4  7  4  0  0  0  0
  5  6  4  0  0  0  0
  5  9  4  0  0  0  0
  7  8  4  0  0  0  0
  7 26  1  0  0  0  0
  8  9  4  0  0  0  0
  9 10  1  0  0  0  0
 10 11  4  0  0  0  0
 10 15  4  0  0  0  0
 11 12  4  0  0  0  0
 11 27  1  0  0  0  0
 12 13  4  0  0  0  0
 12 28  1  0  0  0  0
 13 14  4  0  0  0  0
 13 16  1  0  0  0  0
 14 15  4  0  0  0  0
 14 29  1  0  0  0  0
 15 30  1  0  0  0  0
 16 17  1  0  0  0  0
 17 31  1  0  0  0  0
 17 32  1  0  0  0  0
 17 33  1  0  0  0  0
 18 19  1  0  0  0  0
 18 34  1  0  0  0  0
 19 20  1  0  0  0  0
 19 23  1  0  0  0  0
 19 35  1  0  0  0  0
 20 21  1  0  0  0  0
 20 36  1  0  0  0  0
 20 37  1  0  0  0  0
 21 22  1  0  0  0  0
 21 38  1  0  0  0  0
 21 39  1  0  0  0  0
 22 23  1  0  0  0  0
 22 24  1  0  0  0  0
 22 40  1  0  0  0  0
 23 41  1  0  0  0  0
 23 42  1  0  0  0  0
 24 43  1  0  0  0  0
 24 44  1  0  0  0  0
M  END
> <ConfClashScore>
0 

> <ConfOneFourInteractionScore>
-0.984337 

> <ConfScore>
-0.0248945 

> <ConfScorePBest>
0.00295348 

> <ConfTolerance>
0.401585 

$$$$
c22.sdf
 OpenBabel04162418103D

 44 47  0  0  0  0  0  0  0  0999 V2000
    2.3025   -1.0788    0.5445 C   0  0  0  1  0  0  0  0  0  0  0  0
    1.9278    0.1948    0.3877 N   0  0  0  1  0  0  0  0  0  0  0  0
    0.7857    0.5969    0.9802 C   0  0  0  1  0  0  0  0  0  0  0  0
    0.0425   -0.3495    1.7443 C   0  0  0  1  0  0  0  0  0  0  0  0
    0.5825   -1.6283    1.8046 C   0  0  0  1  0  0  0  0  0  0  0  0
    1.7218   -2.0625    1.2150 N   0  0  0  1  0  0  0  0  0  0  0  0
   -1.1281   -0.4324    2.5251 C   0  0  0  1  0  0  0  0  0  0  0  0
   -1.3035   -1.6380    3.0151 N   0  0  0  1  0  0  0  0  0  0  0  0
   -0.2438   -2.3779    2.5687 N   0  0  0  1  0  0  0  0  0  0  0  0
   -0.0399   -3.7407    2.8654 C   0  0  0  1  0  0  0  0  0  0  0  0
   -0.0631   -4.6358    1.8126 C   0  0  0  1  0  0  0  0  0  0  0  0
    0.1371   -5.9872    2.0475 C   0  0  0  1  0  0  0  0  0  0  0  0
    0.3546   -6.4402    3.3351 C   0  0  0  1  0  0  0  0  0  0  0  0
    0.3778   -5.5422    4.3909 C   0  0  0  1  0  0  0  0  0  0  0  0
    0.1782   -4.1948    4.1568 C   0  0  0  1  0  0  0  0  0  0  0  0
    0.5543   -7.7169    3.6822 O   0  0  0  1  0  0  0  0  0  0  0  0
    0.9655   -8.0914    5.0399 C   0  0  0  1  0  0  0  0  0  0  0  0
    3.4483   -1.4138   -0.0755 N   0  0  0  1  0  0  0  0  0  0  0  0
    4.2347   -0.5614   -0.9700 C   0  0  0  1  0  0  0  0  0  0  0  0
    3.4336   -0.2270   -2.2338 C   0  0  0  1  0  0  0  0  0  0  0  0
    4.1626   -0.9151   -3.3987 C   0  0  0  1  0  0  0  0  0  0  0  0
    5.0217   -2.0030   -2.7486 C   0  0  0  1  0  0  0  0  0  0  0  0
    5.4725   -1.3021   -1.4605 C   0  0  0  1  0  0  0  0  0  0  0  0
    6.1679   -2.3603   -3.5954 N   0  0  0  1  0  0  0  0  0  0  0  0
    0.4536    1.5776    0.8819 H   0  0  0  1  0  0  0  0  0  0  0  0
   -1.7746    0.3647    2.6929 H   0  0  0  1  0  0  0  0  0  0  0  0
   -0.2307   -4.2955    0.8443 H   0  0  0  1  0  0  0  0  0  0  0  0
    0.1237   -6.6603    1.2548 H   0  0  0  1  0  0  0  0  0  0  0  0
    0.5454   -5.8825    5.3593 H   0  0  0  1  0  0  0  0  0  0  0  0
    0.1916   -3.5216    4.9495 H   0  0  0  1  0  0  0  0  0  0  0  0
    0.1937   -7.8275    5.7324 H   0  0  0  1  0  0  0  0  0  0  0  0
    1.8661   -7.5731    5.2953 H   0  0  0  1  0  0  0  0  0  0  0  0
    1.1366   -9.1468    5.0821 H   0  0  0  1  0  0  0  0  0  0  0  0
    3.7908   -2.3174    0.0875 H   0  0  0  1  0  0  0  0  0  0  0  0
    4.5138    0.3345   -0.4558 H   0  0  0  1  0  0  0  0  0  0  0  0
    2.4346   -0.6007   -2.1491 H   0  0  0  1  0  0  0  0  0  0  0  0
    3.4072    0.8317   -2.3866 H   0  0  0  1  0  0  0  0  0  0  0  0
    3.4587   -1.3490   -4.0777 H   0  0  0  1  0  0  0  0  0  0  0  0
    4.7784   -0.2140   -3.9222 H   0  0  0  1  0  0  0  0  0  0  0  0
    4.4473   -2.8805   -2.5362 H   0  0  0  1  0  0  0  0  0  0  0  0
    6.2676   -0.6153   -1.6631 H   0  0  0  1  0  0  0  0  0  0  0  0
    5.7958   -2.0185   -0.7344 H   0  0  0  1  0  0  0  0  0  0  0  0
    5.8495   -2.8222   -4.3989 H   0  0  0  1  0  0  0  0  0  0  0  0
    6.7707   -2.9505   -3.0968 H   0  0  0  1  0  0  0  0  0  0  0  0
  1  2  4  0  0  0  0
  1  6  4  0  0  0  0
  1 18  1  0  0  0  0
  2  3  4  0  0  0  0
  3  4  4  0  0  0  0
  3 25  1  0  0  0  0
  4  5  4  0  0  0  0
  4  7  4  0  0  0  0
  5  6  4  0  0  0  0
  5  9  4  0  0  0  0
  7  8  4  0  0  0  0
  7 26  1  0  0  0  0
  8  9  4  0  0  0  0
  9 10  1  0  0  0  0
 10 11  4  0  0  0  0
 10 15  4  0  0  0  0
 11 12  4  0  0  0  0
 11 27  1  0  0  0  0
 12 13  4  0  0  0  0
 12 28  1  0  0  0  0
 13 14  4  0  0  0  0
 13 16  1  0  0  0  0
 14 15  4  0  0  0  0
 14 29  1  0  0  0  0
 15 30  1  0  0  0  0
 16 17  1  0  0  0  0
 17 31  1  0  0  0  0
 17 32  1  0  0  0  0
 17 33  1  0  0  0  0
 18 19  1  0  0  0  0
 18 34  1  0  0  0  0
 19 20  1  0  0  0  0
 19 23  1  0  0  0  0
 19 35  1  0  0  0  0
 20 21  1  0  0  0  0
 20 36  1  0  0  0  0
 20 37  1  0  0  0  0
 21 22  1  0  0  0  0
 21 38  1  0  0  0  0
 21 39  1  0  0  0  0
 22 23  1  0  0  0  0
 22 24  1  0  0  0  0
 22 40  1  0  0  0  0
 23 41  1  0  0  0  0
 23 42  1  0  0  0  0
 24 43  1  0  0  0  0
 24 44  1  0  0  0  0
M  END
> <ConfClashScore>
0 

> <ConfOneFourInteractionScore>
-0.985399 

> <ConfScore>
-0.0247416 

> <ConfScorePBest>
0.00294015 

> <ConfTolerance>
0.472441 

$$$$
c22.sdf
 OpenBabel04162418103D

 44 47  0  0  0  0  0  0  0  0999 V2000
    3.8390   -1.2104    1.3134 C   0  0  0  1  0  0  0  0  0  0  0  0
    4.9762   -0.5841    1.6321 N   0  0  0  1  0  0  0  0  0  0  0  0
    5.3559   -0.5791    2.9256 C   0  0  0  1  0  0  0  0  0  0  0  0
    4.5329   -1.2427    3.8817 C   0  0  0  1  0  0  0  0  0  0  0  0
    3.3891   -1.8455    3.3731 C   0  0  0  1  0  0  0  0  0  0  0  0
    2.9790   -1.8609    2.0824 N   0  0  0  1  0  0  0  0  0  0  0  0
    4.4879   -1.5271    5.2615 C   0  0  0  1  0  0  0  0  0  0  0  0
    3.4243   -2.2276    5.5811 N   0  0  0  1  0  0  0  0  0  0  0  0
    2.7444   -2.4245    4.4111 N   0  0  0  1  0  0  0  0  0  0  0  0
    1.5203   -3.1438    4.3006 C   0  0  0  1  0  0  0  0  0  0  0  0
    0.6769   -3.2438    5.3909 C   0  0  0  1  0  0  0  0  0  0  0  0
   -0.5172   -3.9394    5.2818 C   0  0  0  1  0  0  0  0  0  0  0  0
   -0.8619   -4.5374    4.0844 C   0  0  0  1  0  0  0  0  0  0  0  0
   -0.0158   -4.4370    2.9909 C   0  0  0  1  0  0  0  0  0  0  0  0
    1.1748   -3.7434    3.0996 C   0  0  0  1  0  0  0  0  0  0  0  0
   -1.9774   -5.3008    4.0038 O   0  0  0  1  0  0  0  0  0  0  0  0
   -2.2628   -5.9141    2.7370 C   0  0  0  1  0  0  0  0  0  0  0  0
    3.5166   -1.1739    0.0028 N   0  0  0  1  0  0  0  0  0  0  0  0
    4.2907   -0.4519   -1.0081 C   0  0  0  1  0  0  0  0  0  0  0  0
    3.4577   -0.2703   -2.2787 C   0  0  0  1  0  0  0  0  0  0  0  0
    4.1203   -1.1352   -3.3422 C   0  0  0  1  0  0  0  0  0  0  0  0
    4.9898   -2.1415   -2.6007 C   0  0  0  1  0  0  0  0  0  0  0  0
    5.5538   -1.2792   -1.4103 C   0  0  0  1  0  0  0  0  0  0  0  0
    6.0920   -2.6498   -3.4710 N   0  0  0  1  0  0  0  0  0  0  0  0
    6.2312   -0.1008    3.2198 H   0  0  0  1  0  0  0  0  0  0  0  0
    5.2099   -1.2193    5.9440 H   0  0  0  1  0  0  0  0  0  0  0  0
    0.9380   -2.7973    6.2932 H   0  0  0  1  0  0  0  0  0  0  0  0
   -1.1538   -4.0113    6.1011 H   0  0  0  1  0  0  0  0  0  0  0  0
   -0.2769   -4.8835    2.0887 H   0  0  0  1  0  0  0  0  0  0  0  0
    1.8114   -3.6715    2.2803 H   0  0  0  1  0  0  0  0  0  0  0  0
   -1.4149   -6.4825    2.4162 H   0  0  0  1  0  0  0  0  0  0  0  0
   -2.4774   -5.1552    2.0139 H   0  0  0  1  0  0  0  0  0  0  0  0
   -3.1088   -6.5616    2.8370 H   0  0  0  1  0  0  0  0  0  0  0  0
    2.7170   -1.6597   -0.2890 H   0  0  0  1  0  0  0  0  0  0  0  0
    4.5832    0.5015   -0.6203 H   0  0  0  1  0  0  0  0  0  0  0  0
    2.4509   -0.5922   -2.1122 H   0  0  0  1  0  0  0  0  0  0  0  0
    3.4592    0.7562   -2.5805 H   0  0  0  1  0  0  0  0  0  0  0  0
    4.7230   -0.5307   -3.9874 H   0  0  0  1  0  0  0  0  0  0  0  0
    3.3775   -1.6439   -3.9204 H   0  0  0  1  0  0  0  0  0  0  0  0
    4.4092   -2.9656   -2.2418 H   0  0  0  1  0  0  0  0  0  0  0  0
    6.3526   -0.6436   -1.7310 H   0  0  0  1  0  0  0  0  0  0  0  0
    5.8905   -1.8970   -0.6042 H   0  0  0  1  0  0  0  0  0  0  0  0
    6.6864   -1.9089   -3.7123 H   0  0  0  1  0  0  0  0  0  0  0  0
    5.7114   -3.0412   -4.2848 H   0  0  0  1  0  0  0  0  0  0  0  0
  1  2  4  0  0  0  0
  1  6  4  0  0  0  0
  1 18  1  0  0  0  0
  2  3  4  0  0  0  0
  3  4  4  0  0  0  0
  3 25  1  0  0  0  0
  4  5  4  0  0  0  0
  4  7  4  0  0  0  0
  5  6  4  0  0  0  0
  5  9  4  0  0  0  0
  7  8  4  0  0  0  0
  7 26  1  0  0  0  0
  8  9  4  0  0  0  0
  9 10  1  0  0  0  0
 10 11  4  0  0  0  0
 10 15  4  0  0  0  0
 11 12  4  0  0  0  0
 11 27  1  0  0  0  0
 12 13  4  0  0  0  0
 12 28  1  0  0  0  0
 13 14  4  0  0  0  0
 13 16  1  0  0  0  0
 14 15  4  0  0  0  0
 14 29  1  0  0  0  0
 15 30  1  0  0  0  0
 16 17  1  0  0  0  0
 17 31  1  0  0  0  0
 17 32  1  0  0  0  0
 17 33  1  0  0  0  0
 18 19  1  0  0  0  0
 18 34  1  0  0  0  0
 19 20  1  0  0  0  0
 19 23  1  0  0  0  0
 19 35  1  0  0  0  0
 20 21  1  0  0  0  0
 20 36  1  0  0  0  0
 20 37  1  0  0  0  0
 21 22  1  0  0  0  0
 21 38  1  0  0  0  0
 21 39  1  0  0  0  0
 22 23  1  0  0  0  0
 22 24  1  0  0  0  0
 22 40  1  0  0  0  0
 23 41  1  0  0  0  0
 23 42  1  0  0  0  0
 24 43  1  0  0  0  0
 24 44  1  0  0  0  0
M  END
> <ConfClashScore>
0 

> <ConfOneFourInteractionScore>
-0.984337 

> <ConfScore>
-0.0218921 

> <ConfScorePBest>
0.00292682 

> <ConfTolerance>
0.249557 

$$$$
c22.sdf
 OpenBabel04162418103D

 44 47  0  0  0  0  0  0  0  0999 V2000
    4.6689    0.4417    1.1719 C   0  0  0  1  0  0  0  0  0  0  0  0
    4.0167    0.5137    2.3366 N   0  0  0  1  0  0  0  0  0  0  0  0
    4.6542    1.0692    3.3865 C   0  0  0  1  0  0  0  0  0  0  0  0
    5.9817    1.5541    3.2011 C   0  0  0  1  0  0  0  0  0  0  0  0
    6.5028    1.4019    1.9221 C   0  0  0  1  0  0  0  0  0  0  0  0
    5.8900    0.8425    0.8517 N   0  0  0  1  0  0  0  0  0  0  0  0
    7.0130    2.1919    3.9198 C   0  0  0  1  0  0  0  0  0  0  0  0
    8.0688    2.4085    3.1698 N   0  0  0  1  0  0  0  0  0  0  0  0
    7.7520    1.9192    1.9328 N   0  0  0  1  0  0  0  0  0  0  0  0
    8.6133    1.9499    0.8174 C   0  0  0  1  0  0  0  0  0  0  0  0
    8.1469    1.8602   -0.4805 C   0  0  0  1  0  0  0  0  0  0  0  0
    9.0381    1.9010   -1.5414 C   0  0  0  1  0  0  0  0  0  0  0  0
   10.3935    2.0261   -1.3012 C   0  0  0  1  0  0  0  0  0  0  0  0
   10.8611    2.1160    0.0006 C   0  0  0  1  0  0  0  0  0  0  0  0
    9.9725    2.0753    1.0586 C   0  0  0  1  0  0  0  0  0  0  0  0
   11.2106    2.0544   -2.3807 O   0  0  0  1  0  0  0  0  0  0  0  0
   10.6518    1.6418   -3.6377 C   0  0  0  1  0  0  0  0  0  0  0  0
    3.9767   -0.1266    0.1681 N   0  0  0  1  0  0  0  0  0  0  0  0
    4.4804   -0.2590   -1.1930 C   0  0  0  1  0  0  0  0  0  0  0  0
    3.3270   -0.4978   -2.1712 C   0  0  0  1  0  0  0  0  0  0  0  0
    4.0539   -1.1889   -3.3321 C   0  0  0  1  0  0  0  0  0  0  0  0
    5.0280   -2.1493   -2.6611 C   0  0  0  1  0  0  0  0  0  0  0  0
    5.3780   -1.5003   -1.3169 C   0  0  0  1  0  0  0  0  0  0  0  0
    6.2381   -2.3143   -3.4841 N   0  0  0  1  0  0  0  0  0  0  0  0
    4.1869    1.1426    4.3127 H   0  0  0  1  0  0  0  0  0  0  0  0
    6.9458    2.4587    4.9227 H   0  0  0  1  0  0  0  0  0  0  0  0
    7.1274    1.7621   -0.6612 H   0  0  0  1  0  0  0  0  0  0  0  0
    8.6869    1.8376   -2.5183 H   0  0  0  1  0  0  0  0  0  0  0  0
   11.8805    2.2141    0.1814 H   0  0  0  1  0  0  0  0  0  0  0  0
   10.3237    2.1388    2.0354 H   0  0  0  1  0  0  0  0  0  0  0  0
    9.7404    2.1736   -3.8152 H   0  0  0  1  0  0  0  0  0  0  0  0
   10.4520    0.5910   -3.6112 H   0  0  0  1  0  0  0  0  0  0  0  0
   11.3468    1.8536   -4.4233 H   0  0  0  1  0  0  0  0  0  0  0  0
    3.0807   -0.4721    0.3637 H   0  0  0  1  0  0  0  0  0  0  0  0
    5.0224    0.6239   -1.4607 H   0  0  0  1  0  0  0  0  0  0  0  0
    2.5778   -1.1321   -1.7454 H   0  0  0  1  0  0  0  0  0  0  0  0
    2.8804    0.4235   -2.4821 H   0  0  0  1  0  0  0  0  0  0  0  0
    4.5804   -0.4724   -3.9275 H   0  0  0  1  0  0  0  0  0  0  0  0
    3.3602   -1.7234   -3.9468 H   0  0  0  1  0  0  0  0  0  0  0  0
    4.5676   -3.1029   -2.5078 H   0  0  0  1  0  0  0  0  0  0  0  0
    6.4092   -1.2154   -1.3002 H   0  0  0  1  0  0  0  0  0  0  0  0
    5.1824   -2.1808   -0.5147 H   0  0  0  1  0  0  0  0  0  0  0  0
    6.5871   -1.4331   -3.7331 H   0  0  0  1  0  0  0  0  0  0  0  0
    6.0154   -2.8181   -4.2947 H   0  0  0  1  0  0  0  0  0  0  0  0
  1  2  4  0  0  0  0
  1  6  4  0  0  0  0
  1 18  1  0  0  0  0
  2  3  4  0  0  0  0
  3  4  4  0  0  0  0
  3 25  1  0  0  0  0
  4  5  4  0  0  0  0
  4  7  4  0  0  0  0
  5  6  4  0  0  0  0
  5  9  4  0  0  0  0
  7  8  4  0  0  0  0
  7 26  1  0  0  0  0
  8  9  4  0  0  0  0
  9 10  1  0  0  0  0
 10 11  4  0  0  0  0
 10 15  4  0  0  0  0
 11 12  4  0  0  0  0
 11 27  1  0  0  0  0
 12 13  4  0  0  0  0
 12 28  1  0  0  0  0
 13 14  4  0  0  0  0
 13 16  1  0  0  0  0
 14 15  4  0  0  0  0
 14 29  1  0  0  0  0
 15 30  1  0  0  0  0
 16 17  1  0  0  0  0
 17 31  1  0  0  0  0
 17 32  1  0  0  0  0
 17 33  1  0  0  0  0
 18 19  1  0  0  0  0
 18 34  1  0  0  0  0
 19 20  1  0  0  0  0
 19 23  1  0  0  0  0
 19 35  1  0  0  0  0
 20 21  1  0  0  0  0
 20 36  1  0  0  0  0
 20 37  1  0  0  0  0
 21 22  1  0  0  0  0
 21 38  1  0  0  0  0
 21 39  1  0  0  0  0
 22 23  1  0  0  0  0
 22 24  1  0  0  0  0
 22 40  1  0  0  0  0
 23 41  1  0  0  0  0
 23 42  1  0  0  0  0
 24 43  1  0  0  0  0
 24 44  1  0  0  0  0
M  END
> <ConfClashScore>
1.70277e-06 

> <ConfOneFourInteractionScore>
-0.984337 

> <ConfScore>
-0.0217218 

> <ConfScorePBest>
0.0029135 

> <ConfTolerance>
0.299616 

$$$$
c22.sdf
 OpenBabel04162418103D

 44 47  0  0  0  0  0  0  0  0999 V2000
    2.7439    0.8533    0.0982 C   0  0  0  1  0  0  0  0  0  0  0  0
    3.0662    1.8967   -0.6728 N   0  0  0  1  0  0  0  0  0  0  0  0
    2.3762    3.0431   -0.5086 C   0  0  0  1  0  0  0  0  0  0  0  0
    1.3475    3.0861    0.4772 C   0  0  0  1  0  0  0  0  0  0  0  0
    1.1512    1.9103    1.1911 C   0  0  0  1  0  0  0  0  0  0  0  0
    1.8226    0.7435    1.0434 N   0  0  0  1  0  0  0  0  0  0  0  0
    0.4049    3.9815    1.0219 C   0  0  0  1  0  0  0  0  0  0  0  0
   -0.3090    3.4210    1.9708 N   0  0  0  1  0  0  0  0  0  0  0  0
    0.1538    2.1386    2.0751 N   0  0  0  1  0  0  0  0  0  0  0  0
   -0.3479    1.1719    2.9926 C   0  0  0  1  0  0  0  0  0  0  0  0
   -0.2284   -0.1758    2.7106 C   0  0  0  1  0  0  0  0  0  0  0  0
   -0.7119   -1.1167    3.6062 C   0  0  0  1  0  0  0  0  0  0  0  0
   -1.3183   -0.7073    4.7788 C   0  0  0  1  0  0  0  0  0  0  0  0
   -1.4381    0.6445    5.0616 C   0  0  0  1  0  0  0  0  0  0  0  0
   -0.9560    1.5828    4.1686 C   0  0  0  1  0  0  0  0  0  0  0  0
   -1.8312   -1.5308    5.7235 O   0  0  0  1  0  0  0  0  0  0  0  0
   -1.7323   -2.9437    5.4861 C   0  0  0  1  0  0  0  0  0  0  0  0
    3.4787   -0.2745   -0.1230 N   0  0  0  1  0  0  0  0  0  0  0  0
    4.5044   -0.3319   -1.1657 C   0  0  0  1  0  0  0  0  0  0  0  0
    3.8787   -0.1671   -2.5470 C   0  0  0  1  0  0  0  0  0  0  0  0
    3.7563   -1.5650   -3.1657 C   0  0  0  1  0  0  0  0  0  0  0  0
    5.0568   -2.2684   -2.6507 C   0  0  0  1  0  0  0  0  0  0  0  0
    5.1754   -1.7490   -1.2059 C   0  0  0  1  0  0  0  0  0  0  0  0
    6.2445   -1.8681   -3.4661 N   0  0  0  1  0  0  0  0  0  0  0  0
    2.5900    3.8791   -1.0892 H   0  0  0  1  0  0  0  0  0  0  0  0
    0.2889    4.9668    0.7100 H   0  0  0  1  0  0  0  0  0  0  0  0
    0.2243   -0.4839    1.8264 H   0  0  0  1  0  0  0  0  0  0  0  0
   -0.6184   -2.1309    3.3959 H   0  0  0  1  0  0  0  0  0  0  0  0
   -1.8908    0.9527    5.9457 H   0  0  0  1  0  0  0  0  0  0  0  0
   -1.0495    2.5971    4.3789 H   0  0  0  1  0  0  0  0  0  0  0  0
   -1.9485   -3.1493    4.4585 H   0  0  0  1  0  0  0  0  0  0  0  0
   -2.4339   -3.4596    6.1080 H   0  0  0  1  0  0  0  0  0  0  0  0
   -0.7410   -3.2751    5.7150 H   0  0  0  1  0  0  0  0  0  0  0  0
    3.3158   -1.0667    0.4304 H   0  0  0  1  0  0  0  0  0  0  0  0
    5.2364    0.4283   -0.9889 H   0  0  0  1  0  0  0  0  0  0  0  0
    2.9104    0.2795   -2.4587 H   0  0  0  1  0  0  0  0  0  0  0  0
    4.5023    0.4502   -3.1594 H   0  0  0  1  0  0  0  0  0  0  0  0
    3.7388   -1.5162   -4.2344 H   0  0  0  1  0  0  0  0  0  0  0  0
    2.8789   -2.0683   -2.8167 H   0  0  0  1  0  0  0  0  0  0  0  0
    4.9526   -3.3331   -2.6702 H   0  0  0  1  0  0  0  0  0  0  0  0
    4.6705   -2.4126   -0.5354 H   0  0  0  1  0  0  0  0  0  0  0  0
    6.2056   -1.6747   -0.9267 H   0  0  0  1  0  0  0  0  0  0  0  0
    6.3886   -0.9024   -3.3820 H   0  0  0  1  0  0  0  0  0  0  0  0
    6.0860   -2.0939   -4.4065 H   0  0  0  1  0  0  0  0  0  0  0  0
  1  2  4  0  0  0  0
  1  6  4  0  0  0  0
  1 18  1  0  0  0  0
  2  3  4  0  0  0  0
  3  4  4  0  0  0  0
  3 25  1  0  0  0  0
  4  5  4  0  0  0  0
  4  7  4  0  0  0  0
  5  6  4  0  0  0  0
  5  9  4  0  0  0  0
  7  8  4  0  0  0  0
  7 26  1  0  0  0  0
  8  9  4  0  0  0  0
  9 10  1  0  0  0  0
 10 11  4  0  0  0  0
 10 15  4  0  0  0  0
 11 12  4  0  0  0  0
 11 27  1  0  0  0  0
 12 13  4  0  0  0  0
 12 28  1  0  0  0  0
 13 14  4  0  0  0  0
 13 16  1  0  0  0  0
 14 15  4  0  0  0  0
 14 29  1  0  0  0  0
 15 30  1  0  0  0  0
 16 17  1  0  0  0  0
 17 31  1  0  0  0  0
 17 32  1  0  0  0  0
 17 33  1  0  0  0  0
 18 19  1  0  0  0  0
 18 34  1  0  0  0  0
 19 20  1  0  0  0  0
 19 23  1  0  0  0  0
 19 35  1  0  0  0  0
 20 21  1  0  0  0  0
 20 36  1  0  0  0  0
 20 37  1  0  0  0  0
 21 22  1  0  0  0  0
 21 38  1  0  0  0  0
 21 39  1  0  0  0  0
 22 23  1  0  0  0  0
 22 24  1  0  0  0  0
 22 40  1  0  0  0  0
 23 41  1  0  0  0  0
 23 42  1  0  0  0  0
 24 43  1  0  0  0  0
 24 44  1  0  0  0  0
M  END
> <ConfClashScore>
0 

> <ConfOneFourInteractionScore>
-0.981848 

> <ConfScore>
-0.0215749 

> <ConfScorePBest>
0.00290017 

> <ConfTolerance>
0.430108 

$$$$
c22.sdf
 OpenBabel04162418103D

 44 47  0  0  0  0  0  0  0  0999 V2000
    3.7830   -0.8754    1.2318 C   0  0  0  1  0  0  0  0  0  0  0  0
    5.0598   -1.2289    1.4096 N   0  0  0  1  0  0  0  0  0  0  0  0
    5.4310   -1.6717    2.6276 C   0  0  0  1  0  0  0  0  0  0  0  0
    4.4475   -1.7454    3.6567 C   0  0  0  1  0  0  0  0  0  0  0  0
    3.1683   -1.3422    3.2939 C   0  0  0  1  0  0  0  0  0  0  0  0
    2.7681   -0.8870    2.0828 N   0  0  0  1  0  0  0  0  0  0  0  0
    4.3184   -2.1272    5.0074 C   0  0  0  1  0  0  0  0  0  0  0  0
    3.0896   -1.9719    5.4432 N   0  0  0  1  0  0  0  0  0  0  0  0
    2.3779   -1.4859    4.3816 N   0  0  0  1  0  0  0  0  0  0  0  0
    1.0099   -1.1775    4.4162 C   0  0  0  1  0  0  0  0  0  0  0  0
    0.1626   -2.2570    4.5807 C   0  0  0  1  0  0  0  0  0  0  0  0
   -1.2084   -2.0599    4.6335 C   0  0  0  1  0  0  0  0  0  0  0  0
   -1.7285   -0.7847    4.5163 C   0  0  0  1  0  0  0  0  0  0  0  0
   -0.8785    0.2978    4.3513 C   0  0  0  1  0  0  0  0  0  0  0  0
    0.4886    0.1015    4.2986 C   0  0  0  1  0  0  0  0  0  0  0  0
   -3.0797   -0.7166    4.5771 O   0  0  0  1  0  0  0  0  0  0  0  0
   -3.6841    0.5621    4.3283 C   0  0  0  1  0  0  0  0  0  0  0  0
    3.4801   -0.4376   -0.0112 N   0  0  0  1  0  0  0  0  0  0  0  0
    4.4550   -0.3447   -1.1074 C   0  0  0  1  0  0  0  0  0  0  0  0
    3.7469   -0.1404   -2.4428 C   0  0  0  1  0  0  0  0  0  0  0  0
    3.6989   -1.5002   -3.1502 C   0  0  0  1  0  0  0  0  0  0  0  0
    5.0744   -2.1300   -2.7472 C   0  0  0  1  0  0  0  0  0  0  0  0
    5.2289   -1.6983   -1.2772 C   0  0  0  1  0  0  0  0  0  0  0  0
    6.1706   -1.5907   -3.5784 N   0  0  0  1  0  0  0  0  0  0  0  0
    6.4148   -1.9538    2.8126 H   0  0  0  1  0  0  0  0  0  0  0  0
    5.1017   -2.4882    5.5885 H   0  0  0  1  0  0  0  0  0  0  0  0
    0.5537   -3.2170    4.6649 H   0  0  0  1  0  0  0  0  0  0  0  0
   -1.8459   -2.8717    4.7613 H   0  0  0  1  0  0  0  0  0  0  0  0
   -1.2696    1.2578    4.2671 H   0  0  0  1  0  0  0  0  0  0  0  0
    1.1260    0.9132    4.1708 H   0  0  0  1  0  0  0  0  0  0  0  0
   -3.2647    0.9889    3.4412 H   0  0  0  1  0  0  0  0  0  0  0  0
   -3.4988    1.2115    5.1583 H   0  0  0  1  0  0  0  0  0  0  0  0
   -4.7392    0.4387    4.1999 H   0  0  0  1  0  0  0  0  0  0  0  0
    2.5560   -0.1662   -0.1919 H   0  0  0  1  0  0  0  0  0  0  0  0
    5.1353    0.4581   -0.9133 H   0  0  0  1  0  0  0  0  0  0  0  0
    4.2886    0.5632   -3.0398 H   0  0  0  1  0  0  0  0  0  0  0  0
    2.7534    0.2212   -2.2781 H   0  0  0  1  0  0  0  0  0  0  0  0
    2.8819   -2.0933   -2.7957 H   0  0  0  1  0  0  0  0  0  0  0  0
    3.6215   -1.3832   -4.2109 H   0  0  0  1  0  0  0  0  0  0  0  0
    5.0507   -3.1961   -2.8353 H   0  0  0  1  0  0  0  0  0  0  0  0
    6.2637   -1.5607   -1.0426 H   0  0  0  1  0  0  0  0  0  0  0  0
    4.8120   -2.4423   -0.6310 H   0  0  0  1  0  0  0  0  0  0  0  0
    5.9877   -1.7780   -4.5228 H   0  0  0  1  0  0  0  0  0  0  0  0
    7.0155   -2.0142   -3.3193 H   0  0  0  1  0  0  0  0  0  0  0  0
  1  2  4  0  0  0  0
  1  6  4  0  0  0  0
  1 18  1  0  0  0  0
  2  3  4  0  0  0  0
  3  4  4  0  0  0  0
  3 25  1  0  0  0  0
  4  5  4  0  0  0  0
  4  7  4  0  0  0  0
  5  6  4  0  0  0  0
  5  9  4  0  0  0  0
  7  8  4  0  0  0  0
  7 26  1  0  0  0  0
  8  9  4  0  0  0  0
  9 10  1  0  0  0  0
 10 11  4  0  0  0  0
 10 15  4  0  0  0  0
 11 12  4  0  0  0  0
 11 27  1  0  0  0  0
 12 13  4  0  0  0  0
 12 28  1  0  0  0  0
 13 14  4  0  0  0  0
 13 16  1  0  0  0  0
 14 15  4  0  0  0  0
 14 29  1  0  0  0  0
 15 30  1  0  0  0  0
 16 17  1  0  0  0  0
 17 31  1  0  0  0  0
 17 32  1  0  0  0  0
 17 33  1  0  0  0  0
 18 19  1  0  0  0  0
 18 34  1  0  0  0  0
 19 20  1  0  0  0  0
 19 23  1  0  0  0  0
 19 35  1  0  0  0  0
 20 21  1  0  0  0  0
 20 36  1  0  0  0  0
 20 37  1  0  0  0  0
 21 22  1  0  0  0  0
 21 38  1  0  0  0  0
 21 39  1  0  0  0  0
 22 23  1  0  0  0  0
 22 24  1  0  0  0  0
 22 40  1  0  0  0  0
 23 41  1  0  0  0  0
 23 42  1  0  0  0  0
 24 43  1  0  0  0  0
 24 44  1  0  0  0  0
M  END
> <ConfClashScore>
0 

> <ConfOneFourInteractionScore>
-0.985399 

> <ConfScore>
-0.0215244 

> <ConfScorePBest>
0.00288684 

> <ConfTolerance>
0.353032 

$$$$
c22.sdf
 OpenBabel04162418103D

 44 47  0  0  0  0  0  0  0  0999 V2000
    2.9399   -0.7344    0.9944 C   0  0  0  1  0  0  0  0  0  0  0  0
    2.1621   -1.5714    1.6884 N   0  0  0  1  0  0  0  0  0  0  0  0
    1.7532   -1.1871    2.9141 C   0  0  0  1  0  0  0  0  0  0  0  0
    2.1639    0.0874    3.4030 C   0  0  0  1  0  0  0  0  0  0  0  0
    2.9676    0.8283    2.5452 C   0  0  0  1  0  0  0  0  0  0  0  0
    3.3995    0.4660    1.3138 N   0  0  0  1  0  0  0  0  0  0  0  0
    2.0109    0.9155    4.5333 C   0  0  0  1  0  0  0  0  0  0  0  0
    2.6569    2.0506    4.3978 N   0  0  0  1  0  0  0  0  0  0  0  0
    3.2490    1.9959    3.1664 N   0  0  0  1  0  0  0  0  0  0  0  0
    4.0492    3.0240    2.6157 C   0  0  0  1  0  0  0  0  0  0  0  0
    5.0131    2.7195    1.6732 C   0  0  0  1  0  0  0  0  0  0  0  0
    5.7937    3.7278    1.1295 C   0  0  0  1  0  0  0  0  0  0  0  0
    5.6118    5.0369    1.5339 C   0  0  0  1  0  0  0  0  0  0  0  0
    4.6450    5.3422    2.4793 C   0  0  0  1  0  0  0  0  0  0  0  0
    3.8666    4.3369    3.0214 C   0  0  0  1  0  0  0  0  0  0  0  0
    6.3149    6.1012    1.0792 O   0  0  0  1  0  0  0  0  0  0  0  0
    7.2492    5.8641    0.0146 C   0  0  0  1  0  0  0  0  0  0  0  0
    3.3203   -1.1885   -0.2376 N   0  0  0  1  0  0  0  0  0  0  0  0
    4.2933   -0.4706   -1.0515 C   0  0  0  1  0  0  0  0  0  0  0  0
    3.7098   -0.0900   -2.4184 C   0  0  0  1  0  0  0  0  0  0  0  0
    3.7517   -1.3794   -3.2291 C   0  0  0  1  0  0  0  0  0  0  0  0
    4.9420   -2.1703   -2.6737 C   0  0  0  1  0  0  0  0  0  0  0  0
    5.4570   -1.3768   -1.4625 C   0  0  0  1  0  0  0  0  0  0  0  0
    6.0178   -2.2889   -3.7131 N   0  0  0  1  0  0  0  0  0  0  0  0
    1.1504   -1.8077    3.4913 H   0  0  0  1  0  0  0  0  0  0  0  0
    1.4537    0.6585    5.3730 H   0  0  0  1  0  0  0  0  0  0  0  0
    5.1527    1.7340    1.3718 H   0  0  0  1  0  0  0  0  0  0  0  0
    6.5162    3.4992    0.4173 H   0  0  0  1  0  0  0  0  0  0  0  0
    4.5053    6.3277    2.7806 H   0  0  0  1  0  0  0  0  0  0  0  0
    3.1440    4.5654    3.7336 H   0  0  0  1  0  0  0  0  0  0  0  0
    8.0843    6.5250    0.1185 H   0  0  0  1  0  0  0  0  0  0  0  0
    6.7702    6.0402   -0.9258 H   0  0  0  1  0  0  0  0  0  0  0  0
    7.5893    4.8505    0.0580 H   0  0  0  1  0  0  0  0  0  0  0  0
    2.9286   -2.0180   -0.5825 H   0  0  0  1  0  0  0  0  0  0  0  0
    4.6377    0.3914   -0.5192 H   0  0  0  1  0  0  0  0  0  0  0  0
    4.3040    0.6681   -2.8844 H   0  0  0  1  0  0  0  0  0  0  0  0
    2.7033    0.2582   -2.3152 H   0  0  0  1  0  0  0  0  0  0  0  0
    2.8438   -1.9311   -3.1021 H   0  0  0  1  0  0  0  0  0  0  0  0
    3.8968   -1.1644   -4.2671 H   0  0  0  1  0  0  0  0  0  0  0  0
    4.6288   -3.1475   -2.3708 H   0  0  0  1  0  0  0  0  0  0  0  0
    6.3107   -0.7914   -1.7332 H   0  0  0  1  0  0  0  0  0  0  0  0
    5.7169   -2.0391   -0.6633 H   0  0  0  1  0  0  0  0  0  0  0  0
    6.6931   -2.9325   -3.4129 H   0  0  0  1  0  0  0  0  0  0  0  0
    6.4382   -1.4141   -3.8491 H   0  0  0  1  0  0  0  0  0  0  0  0
  1  2  4  0  0  0  0
  1  6  4  0  0  0  0
  1 18  1  0  0  0  0
  2  3  4  0  0  0  0
  3  4  4  0  0  0  0
  3 25  1  0  0  0  0
  4  5  4  0  0  0  0
  4  7  4  0  0  0  0
  5  6  4  0  0  0  0
  5  9  4  0  0  0  0
  7  8  4  0  0  0  0
  7 26  1  0  0  0  0
  8  9  4  0  0  0  0
  9 10  1  0  0  0  0
 10 11  4  0  0  0  0
 10 15  4  0  0  0  0
 11 12  4  0  0  0  0
 11 27  1  0  0  0  0
 12 13  4  0  0  0  0
 12 28  1  0  0  0  0
 13 14  4  0  0  0  0
 13 16  1  0  0  0  0
 14 15  4  0  0  0  0
 14 29  1  0  0  0  0
 15 30  1  0  0  0  0
 16 17  1  0  0  0  0
 17 31  1  0  0  0  0
 17 32  1  0  0  0  0
 17 33  1  0  0  0  0
 18 19  1  0  0  0  0
 18 34  1  0  0  0  0
 19 20  1  0  0  0  0
 19 23  1  0  0  0  0
 19 35  1  0  0  0  0
 20 21  1  0  0  0  0
 20 36  1  0  0  0  0
 20 37  1  0  0  0  0
 21 22  1  0  0  0  0
 21 38  1  0  0  0  0
 21 39  1  0  0  0  0
 22 23  1  0  0  0  0
 22 24  1  0  0  0  0
 22 40  1  0  0  0  0
 23 41  1  0  0  0  0
 23 42  1  0  0  0  0
 24 43  1  0  0  0  0
 24 44  1  0  0  0  0
M  END
> <ConfClashScore>
0 

> <ConfOneFourInteractionScore>
-0.984337 

> <ConfScore>
-0.0210216 

> <ConfScorePBest>
0.00287351 

> <ConfTolerance>
0.437235 

$$$$
c22.sdf
 OpenBabel04162418103D

 44 47  0  0  0  0  0  0  0  0999 V2000
    3.6478   -1.7447    0.9551 C   0  0  0  1  0  0  0  0  0  0  0  0
    2.6225   -2.3338    1.5786 N   0  0  0  1  0  0  0  0  0  0  0  0
    2.8602   -2.9321    2.7630 C   0  0  0  1  0  0  0  0  0  0  0  0
    4.1842   -2.9015    3.2903 C   0  0  0  1  0  0  0  0  0  0  0  0
    5.1253   -2.2408    2.5104 C   0  0  0  1  0  0  0  0  0  0  0  0
    4.9178   -1.6379    1.3156 N   0  0  0  1  0  0  0  0  0  0  0  0
    4.9119   -3.3316    4.4183 C   0  0  0  1  0  0  0  0  0  0  0  0
    6.1755   -2.9820    4.3463 N   0  0  0  1  0  0  0  0  0  0  0  0
    6.3069   -2.3064    3.1647 N   0  0  0  1  0  0  0  0  0  0  0  0
    7.5259   -1.7464    2.6867 C   0  0  0  1  0  0  0  0  0  0  0  0
    8.5239   -2.5726    2.2054 C   0  0  0  1  0  0  0  0  0  0  0  0
    9.7083   -2.0272    1.7353 C   0  0  0  1  0  0  0  0  0  0  0  0
    9.8935   -0.6576    1.7527 C   0  0  0  1  0  0  0  0  0  0  0  0
    8.8924    0.1709    2.2355 C   0  0  0  1  0  0  0  0  0  0  0  0
    7.7114   -0.3728    2.7043 C   0  0  0  1  0  0  0  0  0  0  0  0
   10.9996   -0.0161    1.3284 O   0  0  0  1  0  0  0  0  0  0  0  0
   12.0921   -0.8770    0.9312 C   0  0  0  1  0  0  0  0  0  0  0  0
    3.3419   -1.1708   -0.2224 N   0  0  0  1  0  0  0  0  0  0  0  0
    4.3095   -0.4629   -1.0600 C   0  0  0  1  0  0  0  0  0  0  0  0
    3.7138   -0.1093   -2.4289 C   0  0  0  1  0  0  0  0  0  0  0  0
    3.7532   -1.4133   -3.2160 C   0  0  0  1  0  0  0  0  0  0  0  0
    4.9503   -2.1903   -2.6558 C   0  0  0  1  0  0  0  0  0  0  0  0
    5.4725   -1.3731   -1.4636 C   0  0  0  1  0  0  0  0  0  0  0  0
    5.9983   -2.3224   -3.6821 N   0  0  0  1  0  0  0  0  0  0  0  0
    2.0933   -3.4061    3.2815 H   0  0  0  1  0  0  0  0  0  0  0  0
    4.4980   -3.8617    5.2116 H   0  0  0  1  0  0  0  0  0  0  0  0
    8.3862   -3.6034    2.1960 H   0  0  0  1  0  0  0  0  0  0  0  0
   10.4577   -2.6485    1.3694 H   0  0  0  1  0  0  0  0  0  0  0  0
    9.0301    1.2017    2.2449 H   0  0  0  1  0  0  0  0  0  0  0  0
    6.9620    0.2485    3.0702 H   0  0  0  1  0  0  0  0  0  0  0  0
   12.7270   -1.0598    1.7728 H   0  0  0  1  0  0  0  0  0  0  0  0
   12.6561   -0.4024    0.1556 H   0  0  0  1  0  0  0  0  0  0  0  0
   11.7012   -1.8058    0.5713 H   0  0  0  1  0  0  0  0  0  0  0  0
    2.4160   -1.2305   -0.5376 H   0  0  0  1  0  0  0  0  0  0  0  0
    4.6554    0.4098   -0.5465 H   0  0  0  1  0  0  0  0  0  0  0  0
    2.7071    0.2378   -2.3240 H   0  0  0  1  0  0  0  0  0  0  0  0
    4.3019    0.6418   -2.9136 H   0  0  0  1  0  0  0  0  0  0  0  0
    2.8480   -1.9652   -3.0715 H   0  0  0  1  0  0  0  0  0  0  0  0
    3.8893   -1.2170   -4.2590 H   0  0  0  1  0  0  0  0  0  0  0  0
    4.6425   -3.1627   -2.3323 H   0  0  0  1  0  0  0  0  0  0  0  0
    6.3223   -0.7903   -1.7519 H   0  0  0  1  0  0  0  0  0  0  0  0
    5.7408   -2.0198   -0.6544 H   0  0  0  1  0  0  0  0  0  0  0  0
    6.7987   -2.7227   -3.2826 H   0  0  0  1  0  0  0  0  0  0  0  0
    6.2194   -1.4368   -4.0387 H   0  0  0  1  0  0  0  0  0  0  0  0
  1  2  4  0  0  0  0
  1  6  4  0  0  0  0
  1 18  1  0  0  0  0
  2  3  4  0  0  0  0
  3  4  4  0  0  0  0
  3 25  1  0  0  0  0
  4  5  4  0  0  0  0
  4  7  4  0  0  0  0
  5  6  4  0  0  0  0
  5  9  4  0  0  0  0
  7  8  4  0  0  0  0
  7 26  1  0  0  0  0
  8  9  4  0  0  0  0
  9 10  1  0  0  0  0
 10 11  4  0  0  0  0
 10 15  4  0  0  0  0
 11 12  4  0  0  0  0
 11 27  1  0  0  0  0
 12 13  4  0  0  0  0
 12 28  1  0  0  0  0
 13 14  4  0  0  0  0
 13 16  1  0  0  0  0
 14 15  4  0  0  0  0
 14 29  1  0  0  0  0
 15 30  1  0  0  0  0
 16 17  1  0  0  0  0
 17 31  1  0  0  0  0
 17 32  1  0  0  0  0
 17 33  1  0  0  0  0
 18 19  1  0  0  0  0
 18 34  1  0  0  0  0
 19 20  1  0  0  0  0
 19 23  1  0  0  0  0
 19 35  1  0  0  0  0
 20 21  1  0  0  0  0
 20 36  1  0  0  0  0
 20 37  1  0  0  0  0
 21 22  1  0  0  0  0
 21 38  1  0  0  0  0
 21 39  1  0  0  0  0
 22 23  1  0  0  0  0
 22 24  1  0  0  0  0
 22 40  1  0  0  0  0
 23 41  1  0  0  0  0
 23 42  1  0  0  0  0
 24 43  1  0  0  0  0
 24 44  1  0  0  0  0
M  END
> <ConfClashScore>
0 

> <ConfOneFourInteractionScore>
-0.985399 

> <ConfScore>
-0.0207434 

> <ConfScorePBest>
0.00286018 

> <ConfTolerance>
0.379393 

$$$$
c22.sdf
 OpenBabel04162418103D

 44 47  0  0  0  0  0  0  0  0999 V2000
    2.9958    1.0543    0.0461 C   0  0  0  1  0  0  0  0  0  0  0  0
    2.2548    1.1055    1.1576 N   0  0  0  1  0  0  0  0  0  0  0  0
    1.4812    2.1920    1.3540 C   0  0  0  1  0  0  0  0  0  0  0  0
    1.4884    3.2227    0.3694 C   0  0  0  1  0  0  0  0  0  0  0  0
    2.3146    3.0008   -0.7254 C   0  0  0  1  0  0  0  0  0  0  0  0
    3.1068    1.9247   -0.9460 N   0  0  0  1  0  0  0  0  0  0  0  0
    0.8910    4.4713    0.1030 C   0  0  0  1  0  0  0  0  0  0  0  0
    1.3062    4.9781   -1.0349 N   0  0  0  1  0  0  0  0  0  0  0  0
    2.1876    4.0669   -1.5474 N   0  0  0  1  0  0  0  0  0  0  0  0
    2.8797    4.2203   -2.7825 C   0  0  0  1  0  0  0  0  0  0  0  0
    4.1771    4.6966   -2.7930 C   0  0  0  1  0  0  0  0  0  0  0  0
    4.8526    4.8408   -3.9949 C   0  0  0  1  0  0  0  0  0  0  0  0
    4.2270    4.5134   -5.1830 C   0  0  0  1  0  0  0  0  0  0  0  0
    2.9257    4.0357   -5.1723 C   0  0  0  1  0  0  0  0  0  0  0  0
    2.2521    3.8919   -3.9740 C   0  0  0  1  0  0  0  0  0  0  0  0
    4.8478    4.7478   -6.3635 O   0  0  0  1  0  0  0  0  0  0  0  0
    6.1062    5.4383   -6.3173 C   0  0  0  1  0  0  0  0  0  0  0  0
    3.7487   -0.0587   -0.0857 N   0  0  0  1  0  0  0  0  0  0  0  0
    4.6159   -0.3258   -1.2342 C   0  0  0  1  0  0  0  0  0  0  0  0
    3.8280   -0.1764   -2.5409 C   0  0  0  1  0  0  0  0  0  0  0  0
    3.7721   -1.5756   -3.1414 C   0  0  0  1  0  0  0  0  0  0  0  0
    5.0533   -2.2615   -2.6496 C   0  0  0  1  0  0  0  0  0  0  0  0
    5.1151   -1.7789   -1.1979 C   0  0  0  1  0  0  0  0  0  0  0  0
    6.2362   -1.8150   -3.4194 N   0  0  0  1  0  0  0  0  0  0  0  0
    0.8914    2.2764    2.2064 H   0  0  0  1  0  0  0  0  0  0  0  0
    0.2044    4.9350    0.7316 H   0  0  0  1  0  0  0  0  0  0  0  0
    4.6465    4.9467   -1.8993 H   0  0  0  1  0  0  0  0  0  0  0  0
    5.8302    5.1954   -4.0025 H   0  0  0  1  0  0  0  0  0  0  0  0
    2.4563    3.7855   -6.0660 H   0  0  0  1  0  0  0  0  0  0  0  0
    1.2744    3.5373   -3.9664 H   0  0  0  1  0  0  0  0  0  0  0  0
    6.5317    5.4712   -7.2985 H   0  0  0  1  0  0  0  0  0  0  0  0
    6.7718    4.9224   -5.6572 H   0  0  0  1  0  0  0  0  0  0  0  0
    5.9526    6.4358   -5.9619 H   0  0  0  1  0  0  0  0  0  0  0  0
    3.7124   -0.7273    0.6299 H   0  0  0  1  0  0  0  0  0  0  0  0
    5.4443    0.3512   -1.2213 H   0  0  0  1  0  0  0  0  0  0  0  0
    2.8407    0.1859   -2.3433 H   0  0  0  1  0  0  0  0  0  0  0  0
    4.3290    0.4964   -3.2052 H   0  0  0  1  0  0  0  0  0  0  0  0
    2.9064   -2.1004   -2.7950 H   0  0  0  1  0  0  0  0  0  0  0  0
    3.7566   -1.5270   -4.2101 H   0  0  0  1  0  0  0  0  0  0  0  0
    4.9726   -3.3270   -2.7047 H   0  0  0  1  0  0  0  0  0  0  0  0
    4.4823   -2.3774   -0.5764 H   0  0  0  1  0  0  0  0  0  0  0  0
    6.1194   -1.8214   -0.8310 H   0  0  0  1  0  0  0  0  0  0  0  0
    6.2892   -0.8367   -3.3995 H   0  0  0  1  0  0  0  0  0  0  0  0
    6.1552   -2.1187   -4.3476 H   0  0  0  1  0  0  0  0  0  0  0  0
  1  2  4  0  0  0  0
  1  6  4  0  0  0  0
  1 18  1  0  0  0  0
  2  3  4  0  0  0  0
  3  4  4  0  0  0  0
  3 25  1  0  0  0  0
  4  5  4  0  0  0  0
  4  7  4  0  0  0  0
  5  6  4  0  0  0  0
  5  9  4  0  0  0  0
  7  8  4  0  0  0  0
  7 26  1  0  0  0  0
  8  9  4  0  0  0  0
  9 10  1  0  0  0  0
 10 11  4  0  0  0  0
 10 15  4  0  0  0  0
 11 12  4  0  0  0  0
 11 27  1  0  0  0  0
 12 13  4  0  0  0  0
 12 28  1  0  0  0  0
 13 14  4  0  0  0  0
 13 16  1  0  0  0  0
 14 15  4  0  0  0  0
 14 29  1  0  0  0  0
 15 30  1  0  0  0  0
 16 17  1  0  0  0  0
 17 31  1  0  0  0  0
 17 32  1  0  0  0  0
 17 33  1  0  0  0  0
 18 19  1  0  0  0  0
 18 34  1  0  0  0  0
 19 20  1  0  0  0  0
 19 23  1  0  0  0  0
 19 35  1  0  0  0  0
 20 21  1  0  0  0  0
 20 36  1  0  0  0  0
 20 37  1  0  0  0  0
 21 22  1  0  0  0  0
 21 38  1  0  0  0  0
 21 39  1  0  0  0  0
 22 23  1  0  0  0  0
 22 24  1  0  0  0  0
 22 40  1  0  0  0  0
 23 41  1  0  0  0  0
 23 42  1  0  0  0  0
 24 43  1  0  0  0  0
 24 44  1  0  0  0  0
M  END
> <ConfClashScore>
0 

> <ConfOneFourInteractionScore>
-0.985399 

> <ConfScore>
-0.0203966 

> <ConfScorePBest>
0.00284685 

> <ConfTolerance>
0.415901 

$$$$
c22.sdf
 OpenBabel04162418103D

 44 47  0  0  0  0  0  0  0  0999 V2000
    3.7608    1.2773    0.5593 C   0  0  0  1  0  0  0  0  0  0  0  0
    3.4534    1.3459    1.8584 N   0  0  0  1  0  0  0  0  0  0  0  0
    3.1510    2.5537    2.3752 C   0  0  0  1  0  0  0  0  0  0  0  0
    3.1688    3.6893    1.5137 C   0  0  0  1  0  0  0  0  0  0  0  0
    3.5057    3.4330    0.1903 C   0  0  0  1  0  0  0  0  0  0  0  0
    3.8207    2.2340   -0.3548 N   0  0  0  1  0  0  0  0  0  0  0  0
    2.9315    5.0783    1.5462 C   0  0  0  1  0  0  0  0  0  0  0  0
    3.1086    5.6314    0.3686 N   0  0  0  1  0  0  0  0  0  0  0  0
    3.4640    4.6119   -0.4705 N   0  0  0  1  0  0  0  0  0  0  0  0
    3.7500    4.7696   -1.8468 C   0  0  0  1  0  0  0  0  0  0  0  0
    5.0781    4.8587   -2.2189 C   0  0  0  1  0  0  0  0  0  0  0  0
    5.4148    5.0086   -3.5551 C   0  0  0  1  0  0  0  0  0  0  0  0
    4.4224    5.0743   -4.5149 C   0  0  0  1  0  0  0  0  0  0  0  0
    3.0904    4.9850   -4.1415 C   0  0  0  1  0  0  0  0  0  0  0  0
    2.7545    4.8355   -2.8092 C   0  0  0  1  0  0  0  0  0  0  0  0
    4.8710    5.2265   -5.7835 O   0  0  0  1  0  0  0  0  0  0  0  0
    3.8872    5.2449   -6.8296 C   0  0  0  1  0  0  0  0  0  0  0  0
    4.0565    0.0394    0.1085 N   0  0  0  1  0  0  0  0  0  0  0  0
    4.5547   -0.2408   -1.2390 C   0  0  0  1  0  0  0  0  0  0  0  0
    3.3912   -0.4097   -2.2220 C   0  0  0  1  0  0  0  0  0  0  0  0
    4.0447   -1.1861   -3.3534 C   0  0  0  1  0  0  0  0  0  0  0  0
    4.9655   -2.1885   -2.6495 C   0  0  0  1  0  0  0  0  0  0  0  0
    5.2875   -1.5848   -1.2759 C   0  0  0  1  0  0  0  0  0  0  0  0
    6.2099   -2.3784   -3.4309 N   0  0  0  1  0  0  0  0  0  0  0  0
    2.9096    2.6550    3.3817 H   0  0  0  1  0  0  0  0  0  0  0  0
    2.6502    5.6018    2.3997 H   0  0  0  1  0  0  0  0  0  0  0  0
    5.8247    4.8133   -1.4963 H   0  0  0  1  0  0  0  0  0  0  0  0
    6.4143    5.0715   -3.8356 H   0  0  0  1  0  0  0  0  0  0  0  0
    2.3437    5.0304   -4.8640 H   0  0  0  1  0  0  0  0  0  0  0  0
    1.7550    4.7725   -2.5287 H   0  0  0  1  0  0  0  0  0  0  0  0
    3.6588    4.2416   -7.1228 H   0  0  0  1  0  0  0  0  0  0  0  0
    4.2714    5.7833   -7.6707 H   0  0  0  1  0  0  0  0  0  0  0  0
    2.9985    5.7236   -6.4747 H   0  0  0  1  0  0  0  0  0  0  0  0
    3.9300   -0.7161    0.7196 H   0  0  0  1  0  0  0  0  0  0  0  0
    5.2022    0.5513   -1.5523 H   0  0  0  1  0  0  0  0  0  0  0  0
    3.0273    0.5379   -2.5603 H   0  0  0  1  0  0  0  0  0  0  0  0
    2.5885   -0.9644   -1.7828 H   0  0  0  1  0  0  0  0  0  0  0  0
    4.6098   -0.5318   -3.9838 H   0  0  0  1  0  0  0  0  0  0  0  0
    3.3072   -1.6959   -3.9375 H   0  0  0  1  0  0  0  0  0  0  0  0
    4.4694   -3.1294   -2.5337 H   0  0  0  1  0  0  0  0  0  0  0  0
    6.3421   -1.4389   -1.1694 H   0  0  0  1  0  0  0  0  0  0  0  0
    4.9347   -2.2247   -0.4942 H   0  0  0  1  0  0  0  0  0  0  0  0
    6.6883   -1.5256   -3.4967 H   0  0  0  1  0  0  0  0  0  0  0  0
    5.9854   -2.6969   -4.3301 H   0  0  0  1  0  0  0  0  0  0  0  0
  1  2  4  0  0  0  0
  1  6  4  0  0  0  0
  1 18  1  0  0  0  0
  2  3  4  0  0  0  0
  3  4  4  0  0  0  0
  3 25  1  0  0  0  0
  4  5  4  0  0  0  0
  4  7  4  0  0  0  0
  5  6  4  0  0  0  0
  5  9  4  0  0  0  0
  7  8  4  0  0  0  0
  7 26  1  0  0  0  0
  8  9  4  0  0  0  0
  9 10  1  0  0  0  0
 10 11  4  0  0  0  0
 10 15  4  0  0  0  0
 11 12  4  0  0  0  0
 11 27  1  0  0  0  0
 12 13  4  0  0  0  0
 12 28  1  0  0  0  0
 13 14  4  0  0  0  0
 13 16  1  0  0  0  0
 14 15  4  0  0  0  0
 14 29  1  0  0  0  0
 15 30  1  0  0  0  0
 16 17  1  0  0  0  0
 17 31  1  0  0  0  0
 17 32  1  0  0  0  0
 17 33  1  0  0  0  0
 18 19  1  0  0  0  0
 18 34  1  0  0  0  0
 19 20  1  0  0  0  0
 19 23  1  0  0  0  0
 19 35  1  0  0  0  0
 20 21  1  0  0  0  0
 20 36  1  0  0  0  0
 20 37  1  0  0  0  0
 21 22  1  0  0  0  0
 21 38  1  0  0  0  0
 21 39  1  0  0  0  0
 22 23  1  0  0  0  0
 22 24  1  0  0  0  0
 22 40  1  0  0  0  0
 23 41  1  0  0  0  0
 23 42  1  0  0  0  0
 24 43  1  0  0  0  0
 24 44  1  0  0  0  0
M  END
> <ConfClashScore>
0 

> <ConfOneFourInteractionScore>
-0.984337 

> <ConfScore>
-0.0187791 

> <ConfScorePBest>
0.00283353 

> <ConfTolerance>
0.376188 

$$$$
c22.sdf
 OpenBabel04162418103D

 44 47  0  0  0  0  0  0  0  0999 V2000
    3.7053    1.0476    0.6273 C   0  0  0  1  0  0  0  0  0  0  0  0
    2.8131    1.0791    1.6223 N   0  0  0  1  0  0  0  0  0  0  0  0
    2.7186    2.2079    2.3532 C   0  0  0  1  0  0  0  0  0  0  0  0
    3.5662    3.3064    2.0263 C   0  0  0  1  0  0  0  0  0  0  0  0
    4.4303    3.1001    0.9579 C   0  0  0  1  0  0  0  0  0  0  0  0
    4.5523    1.9769    0.2112 N   0  0  0  1  0  0  0  0  0  0  0  0
    3.8359    4.6273    2.4377 C   0  0  0  1  0  0  0  0  0  0  0  0
    4.7744    5.1840    1.7073 N   0  0  0  1  0  0  0  0  0  0  0  0
    5.1418    4.2378    0.7911 N   0  0  0  1  0  0  0  0  0  0  0  0
    6.1308    4.4236   -0.1960 C   0  0  0  1  0  0  0  0  0  0  0  0
    7.3885    3.9074    0.0524 C   0  0  0  1  0  0  0  0  0  0  0  0
    8.3968    4.0570   -0.8869 C   0  0  0  1  0  0  0  0  0  0  0  0
    8.1461    4.7270   -2.0695 C   0  0  0  1  0  0  0  0  0  0  0  0
    6.8845    5.2448   -2.3185 C   0  0  0  1  0  0  0  0  0  0  0  0
    5.8790    5.0957   -1.3820 C   0  0  0  1  0  0  0  0  0  0  0  0
    9.0735    4.8076   -3.0530 O   0  0  0  1  0  0  0  0  0  0  0  0
    8.7138    5.5383   -4.2358 C   0  0  0  1  0  0  0  0  0  0  0  0
    3.7498   -0.1088   -0.0585 N   0  0  0  1  0  0  0  0  0  0  0  0
    4.5973   -0.3295   -1.2349 C   0  0  0  1  0  0  0  0  0  0  0  0
    3.7628   -0.2294   -2.5171 C   0  0  0  1  0  0  0  0  0  0  0  0
    3.7693   -1.6312   -3.1140 C   0  0  0  1  0  0  0  0  0  0  0  0
    5.1021   -2.2410   -2.6606 C   0  0  0  1  0  0  0  0  0  0  0  0
    5.1801   -1.7514   -1.2121 C   0  0  0  1  0  0  0  0  0  0  0  0
    6.2333   -1.7298   -3.4665 N   0  0  0  1  0  0  0  0  0  0  0  0
    2.0413    2.2759    3.1394 H   0  0  0  1  0  0  0  0  0  0  0  0
    3.3503    5.1034    3.2246 H   0  0  0  1  0  0  0  0  0  0  0  0
    7.5784    3.4067    0.9439 H   0  0  0  1  0  0  0  0  0  0  0  0
    9.3422    3.6650   -0.7018 H   0  0  0  1  0  0  0  0  0  0  0  0
    6.6946    5.7455   -3.2100 H   0  0  0  1  0  0  0  0  0  0  0  0
    4.9336    5.4876   -1.5670 H   0  0  0  1  0  0  0  0  0  0  0  0
    9.5997    5.8947   -4.7187 H   0  0  0  1  0  0  0  0  0  0  0  0
    8.0954    6.3692   -3.9672 H   0  0  0  1  0  0  0  0  0  0  0  0
    8.1784    4.8955   -4.9029 H   0  0  0  1  0  0  0  0  0  0  0  0
    3.1823   -0.8475    0.2460 H   0  0  0  1  0  0  0  0  0  0  0  0
    5.3855    0.3940   -1.2481 H   0  0  0  1  0  0  0  0  0  0  0  0
    2.7629    0.0762   -2.2900 H   0  0  0  1  0  0  0  0  0  0  0  0
    4.2040    0.4691   -3.1972 H   0  0  0  1  0  0  0  0  0  0  0  0
    3.7186   -1.5868   -4.1818 H   0  0  0  1  0  0  0  0  0  0  0  0
    2.9461   -2.2039   -2.7408 H   0  0  0  1  0  0  0  0  0  0  0  0
    5.0812   -3.3096   -2.7120 H   0  0  0  1  0  0  0  0  0  0  0  0
    6.1958   -1.7351   -0.8759 H   0  0  0  1  0  0  0  0  0  0  0  0
    4.6019   -2.3835   -0.5709 H   0  0  0  1  0  0  0  0  0  0  0  0
    6.2482   -0.7507   -3.4251 H   0  0  0  1  0  0  0  0  0  0  0  0
    6.1261   -2.0155   -4.3977 H   0  0  0  1  0  0  0  0  0  0  0  0
  1  2  4  0  0  0  0
  1  6  4  0  0  0  0
  1 18  1  0  0  0  0
  2  3  4  0  0  0  0
  3  4  4  0  0  0  0
  3 25  1  0  0  0  0
  4  5  4  0  0  0  0
  4  7  4  0  0  0  0
  5  6  4  0  0  0  0
  5  9  4  0  0  0  0
  7  8  4  0  0  0  0
  7 26  1  0  0  0  0
  8  9  4  0  0  0  0
  9 10  1  0  0  0  0
 10 11  4  0  0  0  0
 10 15  4  0  0  0  0
 11 12  4  0  0  0  0
 11 27  1  0  0  0  0
 12 13  4  0  0  0  0
 12 28  1  0  0  0  0
 13 14  4  0  0  0  0
 13 16  1  0  0  0  0
 14 15  4  0  0  0  0
 14 29  1  0  0  0  0
 15 30  1  0  0  0  0
 16 17  1  0  0  0  0
 17 31  1  0  0  0  0
 17 32  1  0  0  0  0
 17 33  1  0  0  0  0
 18 19  1  0  0  0  0
 18 34  1  0  0  0  0
 19 20  1  0  0  0  0
 19 23  1  0  0  0  0
 19 35  1  0  0  0  0
 20 21  1  0  0  0  0
 20 36  1  0  0  0  0
 20 37  1  0  0  0  0
 21 22  1  0  0  0  0
 21 38  1  0  0  0  0
 21 39  1  0  0  0  0
 22 23  1  0  0  0  0
 22 24  1  0  0  0  0
 22 40  1  0  0  0  0
 23 41  1  0  0  0  0
 23 42  1  0  0  0  0
 24 43  1  0  0  0  0
 24 44  1  0  0  0  0
M  END
> <ConfClashScore>
0 

> <ConfOneFourInteractionScore>
-0.984337 

> <ConfScore>
-0.0187791 

> <ConfScorePBest>
0.0028202 

> <ConfTolerance>
0.329567 

$$$$
c22.sdf
 OpenBabel04162418103D

 44 47  0  0  0  0  0  0  0  0999 V2000
    2.6979   -0.9070    0.1972 C   0  0  0  1  0  0  0  0  0  0  0  0
    2.4740   -1.9001   -0.6692 N   0  0  0  1  0  0  0  0  0  0  0  0
    1.4066   -2.6961   -0.4588 C   0  0  0  1  0  0  0  0  0  0  0  0
    0.5723   -2.4366    0.6675 C   0  0  0  1  0  0  0  0  0  0  0  0
    0.9516   -1.3598    1.4595 C   0  0  0  1  0  0  0  0  0  0  0  0
    2.0205   -0.5484    1.2773 N   0  0  0  1  0  0  0  0  0  0  0  0
   -0.5954   -2.9258    1.2871 C   0  0  0  1  0  0  0  0  0  0  0  0
   -0.9077   -2.2316    2.3570 N   0  0  0  1  0  0  0  0  0  0  0  0
    0.0506   -1.2620    2.4630 N   0  0  0  1  0  0  0  0  0  0  0  0
    0.0937   -0.2864    3.4863 C   0  0  0  1  0  0  0  0  0  0  0  0
    0.2715    1.0457    3.1639 C   0  0  0  1  0  0  0  0  0  0  0  0
    0.3083    2.0023    4.1664 C   0  0  0  1  0  0  0  0  0  0  0  0
    0.1727    1.6235    5.4887 C   0  0  0  1  0  0  0  0  0  0  0  0
   -0.0056    0.2873    5.8119 C   0  0  0  1  0  0  0  0  0  0  0  0
   -0.0423   -0.6666    4.8124 C   0  0  0  1  0  0  0  0  0  0  0  0
    0.2302    2.6429    6.3783 O   0  0  0  1  0  0  0  0  0  0  0  0
    0.1539    2.3030    7.7716 C   0  0  0  1  0  0  0  0  0  0  0  0
    3.7956   -0.1436   -0.0736 N   0  0  0  1  0  0  0  0  0  0  0  0
    4.5985   -0.3507   -1.2816 C   0  0  0  1  0  0  0  0  0  0  0  0
    3.7267   -0.1913   -2.5326 C   0  0  0  1  0  0  0  0  0  0  0  0
    3.6771   -1.5746   -3.1695 C   0  0  0  1  0  0  0  0  0  0  0  0
    5.0070   -2.2314   -2.7774 C   0  0  0  1  0  0  0  0  0  0  0  0
    5.1438   -1.7871   -1.3186 C   0  0  0  1  0  0  0  0  0  0  0  0
    6.1197   -1.7280   -3.6004 N   0  0  0  1  0  0  0  0  0  0  0  0
    1.1962   -3.4835   -1.1048 H   0  0  0  1  0  0  0  0  0  0  0  0
   -1.1434   -3.7383    0.9389 H   0  0  0  1  0  0  0  0  0  0  0  0
    0.3776    1.3304    2.1693 H   0  0  0  1  0  0  0  0  0  0  0  0
    0.4381    3.0052    3.9236 H   0  0  0  1  0  0  0  0  0  0  0  0
   -0.1117    0.0026    6.8065 H   0  0  0  1  0  0  0  0  0  0  0  0
   -0.1721   -1.6695    5.0552 H   0  0  0  1  0  0  0  0  0  0  0  0
    0.2669    3.1882    8.3619 H   0  0  0  1  0  0  0  0  0  0  0  0
    0.9341    1.6116    8.0130 H   0  0  0  1  0  0  0  0  0  0  0  0
   -0.7960    1.8558    7.9779 H   0  0  0  1  0  0  0  0  0  0  0  0
    4.0538    0.5615    0.5562 H   0  0  0  1  0  0  0  0  0  0  0  0
    5.4048    0.3525   -1.2995 H   0  0  0  1  0  0  0  0  0  0  0  0
    2.7429    0.1328   -2.2645 H   0  0  0  1  0  0  0  0  0  0  0  0
    4.1644    0.5154   -3.2063 H   0  0  0  1  0  0  0  0  0  0  0  0
    3.5938   -1.4973   -4.2334 H   0  0  0  1  0  0  0  0  0  0  0  0
    2.8513   -2.1369   -2.7864 H   0  0  0  1  0  0  0  0  0  0  0  0
    4.9562   -3.2971   -2.8588 H   0  0  0  1  0  0  0  0  0  0  0  0
    4.5697   -2.4229   -0.6775 H   0  0  0  1  0  0  0  0  0  0  0  0
    6.1698   -1.8067   -1.0153 H   0  0  0  1  0  0  0  0  0  0  0  0
    6.9573   -2.1447   -3.3083 H   0  0  0  1  0  0  0  0  0  0  0  0
    6.1864   -0.7555   -3.4996 H   0  0  0  1  0  0  0  0  0  0  0  0
  1  2  4  0  0  0  0
  1  6  4  0  0  0  0
  1 18  1  0  0  0  0
  2  3  4  0  0  0  0
  3  4  4  0  0  0  0
  3 25  1  0  0  0  0
  4  5  4  0  0  0  0
  4  7  4  0  0  0  0
  5  6  4  0  0  0  0
  5  9  4  0  0  0  0
  7  8  4  0  0  0  0
  7 26  1  0  0  0  0
  8  9  4  0  0  0  0
  9 10  1  0  0  0  0
 10 11  4  0  0  0  0
 10 15  4  0  0  0  0
 11 12  4  0  0  0  0
 11 27  1  0  0  0  0
 12 13  4  0  0  0  0
 12 28  1  0  0  0  0
 13 14  4  0  0  0  0
 13 16  1  0  0  0  0
 14 15  4  0  0  0  0
 14 29  1  0  0  0  0
 15 30  1  0  0  0  0
 16 17  1  0  0  0  0
 17 31  1  0  0  0  0
 17 32  1  0  0  0  0
 17 33  1  0  0  0  0
 18 19  1  0  0  0  0
 18 34  1  0  0  0  0
 19 20  1  0  0  0  0
 19 23  1  0  0  0  0
 19 35  1  0  0  0  0
 20 21  1  0  0  0  0
 20 36  1  0  0  0  0
 20 37  1  0  0  0  0
 21 22  1  0  0  0  0
 21 38  1  0  0  0  0
 21 39  1  0  0  0  0
 22 23  1  0  0  0  0
 22 24  1  0  0  0  0
 22 40  1  0  0  0  0
 23 41  1  0  0  0  0
 23 42  1  0  0  0  0
 24 43  1  0  0  0  0
 24 44  1  0  0  0  0
M  END
> <ConfClashScore>
2.06604e-06 

> <ConfOneFourInteractionScore>
-0.980204 

> <ConfScore>
-0.0178305 

> <ConfScorePBest>
0.00280687 

> <ConfTolerance>
0.201061 

$$$$
c22.sdf
 OpenBabel04162418103D

 44 47  0  0  0  0  0  0  0  0999 V2000
    3.9739    0.4201    1.2063 C   0  0  0  1  0  0  0  0  0  0  0  0
    3.4863    0.0683    2.4003 N   0  0  0  1  0  0  0  0  0  0  0  0
    3.6083    0.9442    3.4177 C   0  0  0  1  0  0  0  0  0  0  0  0
    4.2426    2.1963    3.1689 C   0  0  0  1  0  0  0  0  0  0  0  0
    4.6852    2.3964    1.8672 C   0  0  0  1  0  0  0  0  0  0  0  0
    4.5832    1.5337    0.8281 N   0  0  0  1  0  0  0  0  0  0  0  0
    4.5856    3.3892    3.8368 C   0  0  0  1  0  0  0  0  0  0  0  0
    5.1854    4.2410    3.0375 N   0  0  0  1  0  0  0  0  0  0  0  0
    5.2465    3.6255    1.8179 N   0  0  0  1  0  0  0  0  0  0  0  0
    5.8159    4.1937    0.6687 C   0  0  0  1  0  0  0  0  0  0  0  0
    4.9416    4.4161   -0.3784 C   0  0  0  1  0  0  0  0  0  0  0  0
    5.4025    4.9791   -1.5582 C   0  0  0  1  0  0  0  0  0  0  0  0
    6.7372    5.3132   -1.6896 C   0  0  0  1  0  0  0  0  0  0  0  0
    7.6139    5.0900   -0.6393 C   0  0  0  1  0  0  0  0  0  0  0  0
    7.1546    4.5286    0.5372 C   0  0  0  1  0  0  0  0  0  0  0  0
    7.1884    5.8584   -2.8442 O   0  0  0  1  0  0  0  0  0  0  0  0
    8.5901    6.1604   -2.9234 C   0  0  0  1  0  0  0  0  0  0  0  0
    3.8200   -0.5138    0.2239 N   0  0  0  1  0  0  0  0  0  0  0  0
    4.4228   -0.3442   -1.1011 C   0  0  0  1  0  0  0  0  0  0  0  0
    3.3486   -0.3815   -2.1769 C   0  0  0  1  0  0  0  0  0  0  0  0
    4.0606   -1.0099   -3.3877 C   0  0  0  1  0  0  0  0  0  0  0  0
    5.0150   -2.0179   -2.7666 C   0  0  0  1  0  0  0  0  0  0  0  0
    5.3588   -1.4872   -1.3987 C   0  0  0  1  0  0  0  0  0  0  0  0
    6.2196   -2.1389   -3.5784 N   0  0  0  1  0  0  0  0  0  0  0  0
    3.2472    0.7112    4.3647 H   0  0  0  1  0  0  0  0  0  0  0  0
    4.3876    3.5726    4.8412 H   0  0  0  1  0  0  0  0  0  0  0  0
    3.9381    4.1611   -0.2810 H   0  0  0  1  0  0  0  0  0  0  0  0
    4.7438    5.1502   -2.3447 H   0  0  0  1  0  0  0  0  0  0  0  0
    8.6175    5.3450   -0.7366 H   0  0  0  1  0  0  0  0  0  0  0  0
    7.8132    4.3575    1.3237 H   0  0  0  1  0  0  0  0  0  0  0  0
    8.8006    7.0343   -2.3430 H   0  0  0  1  0  0  0  0  0  0  0  0
    8.8596    6.3368   -3.9438 H   0  0  0  1  0  0  0  0  0  0  0  0
    9.1546    5.3351   -2.5425 H   0  0  0  1  0  0  0  0  0  0  0  0
    3.2927   -1.3188    0.4089 H   0  0  0  1  0  0  0  0  0  0  0  0
    4.9507    0.5858   -1.1369 H   0  0  0  1  0  0  0  0  0  0  0  0
    2.5204   -0.9842   -1.8673 H   0  0  0  1  0  0  0  0  0  0  0  0
    3.0057    0.6056   -2.4070 H   0  0  0  1  0  0  0  0  0  0  0  0
    4.5977   -0.2679   -3.9409 H   0  0  0  1  0  0  0  0  0  0  0  0
    3.3586   -1.4969   -4.0317 H   0  0  0  1  0  0  0  0  0  0  0  0
    4.5419   -2.9742   -2.6848 H   0  0  0  1  0  0  0  0  0  0  0  0
    5.2357   -2.2585   -0.6674 H   0  0  0  1  0  0  0  0  0  0  0  0
    6.3713   -1.1415   -1.3862 H   0  0  0  1  0  0  0  0  0  0  0  0
    5.9857   -2.4990   -4.4593 H   0  0  0  1  0  0  0  0  0  0  0  0
    6.8519   -2.7431   -3.1362 H   0  0  0  1  0  0  0  0  0  0  0  0
  1  2  4  0  0  0  0
  1  6  4  0  0  0  0
  1 18  1  0  0  0  0
  2  3  4  0  0  0  0
  3  4  4  0  0  0  0
  3 25  1  0  0  0  0
  4  5  4  0  0  0  0
  4  7  4  0  0  0  0
  5  6  4  0  0  0  0
  5  9  4  0  0  0  0
  7  8  4  0  0  0  0
  7 26  1  0  0  0  0
  8  9  4  0  0  0  0
  9 10  1  0  0  0  0
 10 11  4  0  0  0  0
 10 15  4  0  0  0  0
 11 12  4  0  0  0  0
 11 27  1  0  0  0  0
 12 13  4  0  0  0  0
 12 28  1  0  0  0  0
 13 14  4  0  0  0  0
 13 16  1  0  0  0  0
 14 15  4  0  0  0  0
 14 29  1  0  0  0  0
 15 30  1  0  0  0  0
 16 17  1  0  0  0  0
 17 31  1  0  0  0  0
 17 32  1  0  0  0  0
 17 33  1  0  0  0  0
 18 19  1  0  0  0  0
 18 34  1  0  0  0  0
 19 20  1  0  0  0  0
 19 23  1  0  0  0  0
 19 35  1  0  0  0  0
 20 21  1  0  0  0  0
 20 36  1  0  0  0  0
 20 37  1  0  0  0  0
 21 22  1  0  0  0  0
 21 38  1  0  0  0  0
 21 39  1  0  0  0  0
 22 23  1  0  0  0  0
 22 24  1  0  0  0  0
 22 40  1  0  0  0  0
 23 41  1  0  0  0  0
 23 42  1  0  0  0  0
 24 43  1  0  0  0  0
 24 44  1  0  0  0  0
M  END
> <ConfClashScore>
0 

> <ConfOneFourInteractionScore>
-0.984337 

> <ConfScore>
-0.0173826 

> <ConfScorePBest>
0.00279354 

> <ConfTolerance>
0.431321 

$$$$
c22.sdf
 OpenBabel04162418103D

 44 47  0  0  0  0  0  0  0  0999 V2000
    2.6287   -0.6612    0.1811 C   0  0  0  1  0  0  0  0  0  0  0  0
    1.9893   -0.2549    1.2825 N   0  0  0  1  0  0  0  0  0  0  0  0
    0.8272   -0.8599    1.6002 C   0  0  0  1  0  0  0  0  0  0  0  0
    0.3448   -1.9002    0.7534 C   0  0  0  1  0  0  0  0  0  0  0  0
    1.1408   -2.1961   -0.3463 C   0  0  0  1  0  0  0  0  0  0  0  0
    2.3068   -1.6016   -0.6943 N   0  0  0  1  0  0  0  0  0  0  0  0
   -0.7329   -2.8029    0.6518 C   0  0  0  1  0  0  0  0  0  0  0  0
   -0.6242   -3.5759   -0.4041 N   0  0  0  1  0  0  0  0  0  0  0  0
    0.5363   -3.1996   -1.0216 N   0  0  0  1  0  0  0  0  0  0  0  0
    1.0407   -3.7860   -2.2154 C   0  0  0  1  0  0  0  0  0  0  0  0
    2.3299   -4.2829   -2.2500 C   0  0  0  1  0  0  0  0  0  0  0  0
    2.8195   -4.8591   -3.4118 C   0  0  0  1  0  0  0  0  0  0  0  0
    2.0204   -4.9318   -4.5372 C   0  0  0  1  0  0  0  0  0  0  0  0
    0.7274   -4.4334   -4.5023 C   0  0  0  1  0  0  0  0  0  0  0  0
    0.2391   -3.8588   -3.3440 C   0  0  0  1  0  0  0  0  0  0  0  0
    2.5290   -5.4021   -5.7009 O   0  0  0  1  0  0  0  0  0  0  0  0
    1.6159   -5.5661   -6.7972 C   0  0  0  1  0  0  0  0  0  0  0  0
    3.7950   -0.0044   -0.0826 N   0  0  0  1  0  0  0  0  0  0  0  0
    4.6237   -0.3435   -1.2405 C   0  0  0  1  0  0  0  0  0  0  0  0
    3.8223   -0.1827   -2.5392 C   0  0  0  1  0  0  0  0  0  0  0  0
    3.8087   -1.5612   -3.2083 C   0  0  0  1  0  0  0  0  0  0  0  0
    5.0400   -2.2631   -2.6596 C   0  0  0  1  0  0  0  0  0  0  0  0
    5.0320   -1.8185   -1.1929 C   0  0  0  1  0  0  0  0  0  0  0  0
    6.2745   -1.8108   -3.3545 N   0  0  0  1  0  0  0  0  0  0  0  0
    0.2937   -0.5736    2.4457 H   0  0  0  1  0  0  0  0  0  0  0  0
   -1.5191   -2.8510    1.3310 H   0  0  0  1  0  0  0  0  0  0  0  0
    2.9326   -4.2246   -1.4044 H   0  0  0  1  0  0  0  0  0  0  0  0
    3.7882   -5.2366   -3.4366 H   0  0  0  1  0  0  0  0  0  0  0  0
    0.1247   -4.4917   -5.3479 H   0  0  0  1  0  0  0  0  0  0  0  0
   -0.7296   -3.4812   -3.3191 H   0  0  0  1  0  0  0  0  0  0  0  0
    0.9801   -6.4061   -6.6098 H   0  0  0  1  0  0  0  0  0  0  0  0
    2.1677   -5.7310   -7.6990 H   0  0  0  1  0  0  0  0  0  0  0  0
    1.0197   -4.6836   -6.8996 H   0  0  0  1  0  0  0  0  0  0  0  0
    4.0854    0.7128    0.5187 H   0  0  0  1  0  0  0  0  0  0  0  0
    5.4902    0.2841   -1.2556 H   0  0  0  1  0  0  0  0  0  0  0  0
    4.2927    0.5349   -3.1785 H   0  0  0  1  0  0  0  0  0  0  0  0
    2.8235    0.1334   -2.3216 H   0  0  0  1  0  0  0  0  0  0  0  0
    3.8708   -1.4656   -4.2722 H   0  0  0  1  0  0  0  0  0  0  0  0
    2.9204   -2.0984   -2.9492 H   0  0  0  1  0  0  0  0  0  0  0  0
    4.9516   -3.3261   -2.7441 H   0  0  0  1  0  0  0  0  0  0  0  0
    4.3236   -2.3887   -0.6290 H   0  0  0  1  0  0  0  0  0  0  0  0
    6.0043   -1.9277   -0.7596 H   0  0  0  1  0  0  0  0  0  0  0  0
    6.4045   -0.8519   -3.1995 H   0  0  0  1  0  0  0  0  0  0  0  0
    6.1872   -1.9770   -4.3164 H   0  0  0  1  0  0  0  0  0  0  0  0
  1  2  4  0  0  0  0
  1  6  4  0  0  0  0
  1 18  1  0  0  0  0
  2  3  4  0  0  0  0
  3  4  4  0  0  0  0
  3 25  1  0  0  0  0
  4  5  4  0  0  0  0
  4  7  4  0  0  0  0
  5  6  4  0  0  0  0
  5  9  4  0  0  0  0
  7  8  4  0  0  0  0
  7 26  1  0  0  0  0
  8  9  4  0  0  0  0
  9 10  1  0  0  0  0
 10 11  4  0  0  0  0
 10 15  4  0  0  0  0
 11 12  4  0  0  0  0
 11 27  1  0  0  0  0
 12 13  4  0  0  0  0
 12 28  1  0  0  0  0
 13 14  4  0  0  0  0
 13 16  1  0  0  0  0
 14 15  4  0  0  0  0
 14 29  1  0  0  0  0
 15 30  1  0  0  0  0
 16 17  1  0  0  0  0
 17 31  1  0  0  0  0
 17 32  1  0  0  0  0
 17 33  1  0  0  0  0
 18 19  1  0  0  0  0
 18 34  1  0  0  0  0
 19 20  1  0  0  0  0
 19 23  1  0  0  0  0
 19 35  1  0  0  0  0
 20 21  1  0  0  0  0
 20 36  1  0  0  0  0
 20 37  1  0  0  0  0
 21 22  1  0  0  0  0
 21 38  1  0  0  0  0
 21 39  1  0  0  0  0
 22 23  1  0  0  0  0
 22 24  1  0  0  0  0
 22 40  1  0  0  0  0
 23 41  1  0  0  0  0
 23 42  1  0  0  0  0
 24 43  1  0  0  0  0
 24 44  1  0  0  0  0
M  END
> <ConfClashScore>
0 

> <ConfOneFourInteractionScore>
-0.980204 

> <ConfScore>
-0.0150347 

> <ConfScorePBest>
0.00278021 

> <ConfTolerance>
0.242937 

$$$$
c22.sdf
 OpenBabel04162418103D

 44 47  0  0  0  0  0  0  0  0999 V2000
    3.1710    0.3128    0.9594 C   0  0  0  1  0  0  0  0  0  0  0  0
    3.3089    1.5508    0.4741 N   0  0  0  1  0  0  0  0  0  0  0  0
    2.8884    2.5805    1.2358 C   0  0  0  1  0  0  0  0  0  0  0  0
    2.3263    2.2991    2.5152 C   0  0  0  1  0  0  0  0  0  0  0  0
    2.2649    0.9547    2.8607 C   0  0  0  1  0  0  0  0  0  0  0  0
    2.6720   -0.0998    2.1148 N   0  0  0  1  0  0  0  0  0  0  0  0
    1.7863    2.9672    3.6326 C   0  0  0  1  0  0  0  0  0  0  0  0
    1.4201    2.1276    4.5733 N   0  0  0  1  0  0  0  0  0  0  0  0
    1.7169    0.8815    4.0947 N   0  0  0  1  0  0  0  0  0  0  0  0
    1.4803   -0.3318    4.8018 C   0  0  0  1  0  0  0  0  0  0  0  0
    1.3078   -1.5140    4.1070 C   0  0  0  1  0  0  0  0  0  0  0  0
    1.0829   -2.6959    4.7955 C   0  0  0  1  0  0  0  0  0  0  0  0
    1.0257   -2.6912    6.1765 C   0  0  0  1  0  0  0  0  0  0  0  0
    1.1987   -1.5054    6.8732 C   0  0  0  1  0  0  0  0  0  0  0  0
    1.4230   -0.3269    6.1868 C   0  0  0  1  0  0  0  0  0  0  0  0
    0.7957   -3.9021    6.7376 O   0  0  0  1  0  0  0  0  0  0  0  0
    0.4250   -3.9227    8.1249 C   0  0  0  1  0  0  0  0  0  0  0  0
    3.6088   -0.6705    0.1443 N   0  0  0  1  0  0  0  0  0  0  0  0
    4.3275   -0.4326   -1.1078 C   0  0  0  1  0  0  0  0  0  0  0  0
    3.3062   -0.2982   -2.2535 C   0  0  0  1  0  0  0  0  0  0  0  0
    4.3076   -0.7517   -3.3280 C   0  0  0  1  0  0  0  0  0  0  0  0
    4.9969   -2.0309   -2.7893 C   0  0  0  1  0  0  0  0  0  0  0  0
    5.3028   -1.6010   -1.3557 C   0  0  0  1  0  0  0  0  0  0  0  0
    6.2269   -2.3413   -3.5375 N   0  0  0  1  0  0  0  0  0  0  0  0
    2.9724    3.5602    0.8970 H   0  0  0  1  0  0  0  0  0  0  0  0
    1.6897    4.0003    3.7035 H   0  0  0  1  0  0  0  0  0  0  0  0
    1.3468   -1.5169    3.0678 H   0  0  0  1  0  0  0  0  0  0  0  0
    0.9571   -3.5862    4.2729 H   0  0  0  1  0  0  0  0  0  0  0  0
    1.1597   -1.5024    7.9125 H   0  0  0  1  0  0  0  0  0  0  0  0
    1.5488    0.5635    6.7094 H   0  0  0  1  0  0  0  0  0  0  0  0
   -0.5291   -3.4540    8.2467 H   0  0  0  1  0  0  0  0  0  0  0  0
    1.1578   -3.3934    8.6975 H   0  0  0  1  0  0  0  0  0  0  0  0
    0.3703   -4.9360    8.4642 H   0  0  0  1  0  0  0  0  0  0  0  0
    3.4350   -1.5985    0.4069 H   0  0  0  1  0  0  0  0  0  0  0  0
    4.8863    0.4767   -1.0316 H   0  0  0  1  0  0  0  0  0  0  0  0
    2.9590    0.7040   -2.3952 H   0  0  0  1  0  0  0  0  0  0  0  0
    2.4681   -0.9556   -2.1522 H   0  0  0  1  0  0  0  0  0  0  0  0
    3.7942   -0.9675   -4.2417 H   0  0  0  1  0  0  0  0  0  0  0  0
    5.0352    0.0139   -3.4993 H   0  0  0  1  0  0  0  0  0  0  0  0
    4.3397   -2.8748   -2.8167 H   0  0  0  1  0  0  0  0  0  0  0  0
    5.1202   -2.4021   -0.6703 H   0  0  0  1  0  0  0  0  0  0  0  0
    6.3181   -1.2764   -1.2634 H   0  0  0  1  0  0  0  0  0  0  0  0
    6.0011   -2.5400   -4.4702 H   0  0  0  1  0  0  0  0  0  0  0  0
    6.6662   -3.1194   -3.1351 H   0  0  0  1  0  0  0  0  0  0  0  0
  1  2  4  0  0  0  0
  1  6  4  0  0  0  0
  1 18  1  0  0  0  0
  2  3  4  0  0  0  0
  3  4  4  0  0  0  0
  3 25  1  0  0  0  0
  4  5  4  0  0  0  0
  4  7  4  0  0  0  0
  5  6  4  0  0  0  0
  5  9  4  0  0  0  0
  7  8  4  0  0  0  0
  7 26  1  0  0  0  0
  8  9  4  0  0  0  0
  9 10  1  0  0  0  0
 10 11  4  0  0  0  0
 10 15  4  0  0  0  0
 11 12  4  0  0  0  0
 11 27  1  0  0  0  0
 12 13  4  0  0  0  0
 12 28  1  0  0  0  0
 13 14  4  0  0  0  0
 13 16  1  0  0  0  0
 14 15  4  0  0  0  0
 14 29  1  0  0  0  0
 15 30  1  0  0  0  0
 16 17  1  0  0  0  0
 17 31  1  0  0  0  0
 17 32  1  0  0  0  0
 17 33  1  0  0  0  0
 18 19  1  0  0  0  0
 18 34  1  0  0  0  0
 19 20  1  0  0  0  0
 19 23  1  0  0  0  0
 19 35  1  0  0  0  0
 20 21  1  0  0  0  0
 20 36  1  0  0  0  0
 20 37  1  0  0  0  0
 21 22  1  0  0  0  0
 21 38  1  0  0  0  0
 21 39  1  0  0  0  0
 22 23  1  0  0  0  0
 22 24  1  0  0  0  0
 22 40  1  0  0  0  0
 23 41  1  0  0  0  0
 23 42  1  0  0  0  0
 24 43  1  0  0  0  0
 24 44  1  0  0  0  0
M  END
> <ConfClashScore>
0 

> <ConfOneFourInteractionScore>
-0.984337 

> <ConfScore>
-0.0149435 

> <ConfScorePBest>
0.00276689 

> <ConfTolerance>
0.379537 

$$$$
c22.sdf
 OpenBabel04162418103D

 44 47  0  0  0  0  0  0  0  0999 V2000
    3.5364    1.3435    0.1519 C   0  0  0  1  0  0  0  0  0  0  0  0
    3.0934    1.9593   -0.9489 N   0  0  0  1  0  0  0  0  0  0  0  0
    2.2608    3.0084   -0.7964 C   0  0  0  1  0  0  0  0  0  0  0  0
    1.9015    3.4094    0.5234 C   0  0  0  1  0  0  0  0  0  0  0  0
    2.4593    2.6588    1.5511 C   0  0  0  1  0  0  0  0  0  0  0  0
    3.2914    1.5973    1.4285 N   0  0  0  1  0  0  0  0  0  0  0  0
    1.1300    4.3840    1.1880 C   0  0  0  1  0  0  0  0  0  0  0  0
    1.1943    4.2511    2.4927 N   0  0  0  1  0  0  0  0  0  0  0  0
    2.0177    3.1827    2.7168 N   0  0  0  1  0  0  0  0  0  0  0  0
    2.3607    2.6926    3.9932 C   0  0  0  1  0  0  0  0  0  0  0  0
    1.6536    1.6787    4.6113 C   0  0  0  1  0  0  0  0  0  0  0  0
    2.0377    1.2310    5.8657 C   0  0  0  1  0  0  0  0  0  0  0  0
    3.1244    1.8022    6.5006 C   0  0  0  1  0  0  0  0  0  0  0  0
    3.8335    2.8192    5.8805 C   0  0  0  1  0  0  0  0  0  0  0  0
    3.4506    3.2656    4.6298 C   0  0  0  1  0  0  0  0  0  0  0  0
    3.3998    1.2901    7.7159 O   0  0  0  1  0  0  0  0  0  0  0  0
    4.6697    1.6954    8.2776 C   0  0  0  1  0  0  0  0  0  0  0  0
    4.3598    0.3036   -0.0721 N   0  0  0  1  0  0  0  0  0  0  0  0
    4.6699   -0.2207   -1.4054 C   0  0  0  1  0  0  0  0  0  0  0  0
    3.4029   -0.4386   -2.2213 C   0  0  0  1  0  0  0  0  0  0  0  0
    3.7412   -1.4861   -3.2732 C   0  0  0  1  0  0  0  0  0  0  0  0
    4.9995   -2.1972   -2.7710 C   0  0  0  1  0  0  0  0  0  0  0  0
    5.2654   -1.6759   -1.3222 C   0  0  0  1  0  0  0  0  0  0  0  0
    6.1491   -1.8770   -3.6464 N   0  0  0  1  0  0  0  0  0  0  0  0
    1.8882    3.5150   -1.6248 H   0  0  0  1  0  0  0  0  0  0  0  0
    0.5769    5.1195    0.7036 H   0  0  0  1  0  0  0  0  0  0  0  0
    0.8334    1.2516    4.1354 H   0  0  0  1  0  0  0  0  0  0  0  0
    1.5081    0.4653    6.3292 H   0  0  0  1  0  0  0  0  0  0  0  0
    4.6537    3.2462    6.3564 H   0  0  0  1  0  0  0  0  0  0  0  0
    3.9802    4.0313    4.1663 H   0  0  0  1  0  0  0  0  0  0  0  0
    5.4646    1.2124    7.7487 H   0  0  0  1  0  0  0  0  0  0  0  0
    4.7078    1.4172    9.3101 H   0  0  0  1  0  0  0  0  0  0  0  0
    4.7760    2.7565    8.1894 H   0  0  0  1  0  0  0  0  0  0  0  0
    4.7771   -0.1290    0.7019 H   0  0  0  1  0  0  0  0  0  0  0  0
    5.3425    0.4457   -1.9038 H   0  0  0  1  0  0  0  0  0  0  0  0
    2.6131   -0.7898   -1.5906 H   0  0  0  1  0  0  0  0  0  0  0  0
    3.1048    0.4749   -2.6919 H   0  0  0  1  0  0  0  0  0  0  0  0
    3.9304   -1.0178   -4.2165 H   0  0  0  1  0  0  0  0  0  0  0  0
    2.9361   -2.1834   -3.3757 H   0  0  0  1  0  0  0  0  0  0  0  0
    4.8440   -3.2558   -2.7586 H   0  0  0  1  0  0  0  0  0  0  0  0
    6.3114   -1.6589   -1.0977 H   0  0  0  1  0  0  0  0  0  0  0  0
    4.7530   -2.2677   -0.5927 H   0  0  0  1  0  0  0  0  0  0  0  0
    6.9549   -2.3156   -3.3017 H   0  0  0  1  0  0  0  0  0  0  0  0
    6.2869   -0.9069   -3.6624 H   0  0  0  1  0  0  0  0  0  0  0  0
  1  2  4  0  0  0  0
  1  6  4  0  0  0  0
  1 18  1  0  0  0  0
  2  3  4  0  0  0  0
  3  4  4  0  0  0  0
  3 25  1  0  0  0  0
  4  5  4  0  0  0  0
  4  7  4  0  0  0  0
  5  6  4  0  0  0  0
  5  9  4  0  0  0  0
  7  8  4  0  0  0  0
  7 26  1  0  0  0  0
  8  9  4  0  0  0  0
  9 10  1  0  0  0  0
 10 11  4  0  0  0  0
 10 15  4  0  0  0  0
 11 12  4  0  0  0  0
 11 27  1  0  0  0  0
 12 13  4  0  0  0  0
 12 28  1  0  0  0  0
 13 14  4  0  0  0  0
 13 16  1  0  0  0  0
 14 15  4  0  0  0  0
 14 29  1  0  0  0  0
 15 30  1  0  0  0  0
 16 17  1  0  0  0  0
 17 31  1  0  0  0  0
 17 32  1  0  0  0  0
 17 33  1  0  0  0  0
 18 19  1  0  0  0  0
 18 34  1  0  0  0  0
 19 20  1  0  0  0  0
 19 23  1  0  0  0  0
 19 35  1  0  0  0  0
 20 21  1  0  0  0  0
 20 36  1  0  0  0  0
 20 37  1  0  0  0  0
 21 22  1  0  0  0  0
 21 38  1  0  0  0  0
 21 39  1  0  0  0  0
 22 23  1  0  0  0  0
 22 24  1  0  0  0  0
 22 40  1  0  0  0  0
 23 41  1  0  0  0  0
 23 42  1  0  0  0  0
 24 43  1  0  0  0  0
 24 44  1  0  0  0  0
M  END
> <ConfClashScore>
0 

> <ConfOneFourInteractionScore>
-0.985399 

> <ConfScore>
-0.0147234 

> <ConfScorePBest>
0.00275356 

> <ConfTolerance>
0.285998 

$$$$
c22.sdf
 OpenBabel04162418103D

 44 47  0  0  0  0  0  0  0  0999 V2000
    2.6451   -0.8367    0.1979 C   0  0  0  1  0  0  0  0  0  0  0  0
    2.3016   -1.7481   -0.7177 N   0  0  0  1  0  0  0  0  0  0  0  0
    1.1807   -2.4669   -0.5069 C   0  0  0  1  0  0  0  0  0  0  0  0
    0.4200   -2.2162    0.6722 C   0  0  0  1  0  0  0  0  0  0  0  0
    0.9222   -1.2292    1.5115 C   0  0  0  1  0  0  0  0  0  0  0  0
    2.0470   -0.4972    1.3298 N   0  0  0  1  0  0  0  0  0  0  0  0
   -0.7574   -2.6490    1.3150 C   0  0  0  1  0  0  0  0  0  0  0  0
   -0.9641   -2.0048    2.4403 N   0  0  0  1  0  0  0  0  0  0  0  0
    0.0762   -1.1257    2.5613 N   0  0  0  1  0  0  0  0  0  0  0  0
    0.2462   -0.2214    3.6482 C   0  0  0  1  0  0  0  0  0  0  0  0
   -0.8319    0.5047    4.1179 C   0  0  0  1  0  0  0  0  0  0  0  0
   -0.6676    1.3809    5.1794 C   0  0  0  1  0  0  0  0  0  0  0  0
    0.5753    1.5324    5.7646 C   0  0  0  1  0  0  0  0  0  0  0  0
    1.6565    0.8041    5.2933 C   0  0  0  1  0  0  0  0  0  0  0  0
    1.4928   -0.0696    4.2349 C   0  0  0  1  0  0  0  0  0  0  0  0
    0.7369    2.3923    6.7982 O   0  0  0  1  0  0  0  0  0  0  0  0
    2.0736    2.5896    7.2849 C   0  0  0  1  0  0  0  0  0  0  0  0
    3.7790   -0.1559   -0.0736 N   0  0  0  1  0  0  0  0  0  0  0  0
    4.5767   -0.3482   -1.2889 C   0  0  0  1  0  0  0  0  0  0  0  0
    3.6856   -0.2402   -2.5318 C   0  0  0  1  0  0  0  0  0  0  0  0
    3.6835   -1.6330   -3.1496 C   0  0  0  1  0  0  0  0  0  0  0  0
    5.0424   -2.2317   -2.7642 C   0  0  0  1  0  0  0  0  0  0  0  0
    5.1777   -1.7624   -1.3131 C   0  0  0  1  0  0  0  0  0  0  0  0
    6.1419   -1.6883   -3.6195 N   0  0  0  1  0  0  0  0  0  0  0  0
    0.8773   -3.1895   -1.1906 H   0  0  0  1  0  0  0  0  0  0  0  0
   -1.3863   -3.3891    0.9429 H   0  0  0  1  0  0  0  0  0  0  0  0
   -1.7664    0.3937    3.6751 H   0  0  0  1  0  0  0  0  0  0  0  0
   -1.4797    1.9243    5.5355 H   0  0  0  1  0  0  0  0  0  0  0  0
    2.5910    0.9151    5.7362 H   0  0  0  1  0  0  0  0  0  0  0  0
    2.3049   -0.6130    3.8788 H   0  0  0  1  0  0  0  0  0  0  0  0
    2.7117    2.8695    6.4729 H   0  0  0  1  0  0  0  0  0  0  0  0
    2.4312    1.6809    7.7224 H   0  0  0  1  0  0  0  0  0  0  0  0
    2.0736    3.3651    8.0221 H   0  0  0  1  0  0  0  0  0  0  0  0
    4.0872    0.5059    0.5802 H   0  0  0  1  0  0  0  0  0  0  0  0
    5.3545    0.3858   -1.3254 H   0  0  0  1  0  0  0  0  0  0  0  0
    4.0877    0.4738   -3.2198 H   0  0  0  1  0  0  0  0  0  0  0  0
    2.6928    0.0487   -2.2566 H   0  0  0  1  0  0  0  0  0  0  0  0
    3.5855   -1.5736   -4.2134 H   0  0  0  1  0  0  0  0  0  0  0  0
    2.8847   -2.2219   -2.7496 H   0  0  0  1  0  0  0  0  0  0  0  0
    5.0327   -3.2996   -2.8308 H   0  0  0  1  0  0  0  0  0  0  0  0
    6.2069   -1.7376   -1.0214 H   0  0  0  1  0  0  0  0  0  0  0  0
    4.6361   -2.4114   -0.6571 H   0  0  0  1  0  0  0  0  0  0  0  0
    7.0081   -1.9620   -3.2518 H   0  0  0  1  0  0  0  0  0  0  0  0
    6.0890   -0.7099   -3.6366 H   0  0  0  1  0  0  0  0  0  0  0  0
  1  2  4  0  0  0  0
  1  6  4  0  0  0  0
  1 18  1  0  0  0  0
  2  3  4  0  0  0  0
  3  4  4  0  0  0  0
  3 25  1  0  0  0  0
  4  5  4  0  0  0  0
  4  7  4  0  0  0  0
  5  6  4  0  0  0  0
  5  9  4  0  0  0  0
  7  8  4  0  0  0  0
  7 26  1  0  0  0  0
  8  9  4  0  0  0  0
  9 10  1  0  0  0  0
 10 11  4  0  0  0  0
 10 15  4  0  0  0  0
 11 12  4  0  0  0  0
 11 27  1  0  0  0  0
 12 13  4  0  0  0  0
 12 28  1  0  0  0  0
 13 14  4  0  0  0  0
 13 16  1  0  0  0  0
 14 15  4  0  0  0  0
 14 29  1  0  0  0  0
 15 30  1  0  0  0  0
 16 17  1  0  0  0  0
 17 31  1  0  0  0  0
 17 32  1  0  0  0  0
 17 33  1  0  0  0  0
 18 19  1  0  0  0  0
 18 34  1  0  0  0  0
 19 20  1  0  0  0  0
 19 23  1  0  0  0  0
 19 35  1  0  0  0  0
 20 21  1  0  0  0  0
 20 36  1  0  0  0  0
 20 37  1  0  0  0  0
 21 22  1  0  0  0  0
 21 38  1  0  0  0  0
 21 39  1  0  0  0  0
 22 23  1  0  0  0  0
 22 24  1  0  0  0  0
 22 40  1  0  0  0  0
 23 41  1  0  0  0  0
 23 42  1  0  0  0  0
 24 43  1  0  0  0  0
 24 44  1  0  0  0  0
M  END
> <ConfClashScore>
0 

> <ConfOneFourInteractionScore>
-0.980204 

> <ConfScore>
-0.01338 

> <ConfScorePBest>
0.00274023 

> <ConfTolerance>
0.196526 

$$$$
c22.sdf
 OpenBabel04162418103D

 44 47  0  0  0  0  0  0  0  0999 V2000
    4.4314   -0.2077    1.1714 C   0  0  0  1  0  0  0  0  0  0  0  0
    5.6307   -0.7977    1.1954 N   0  0  0  1  0  0  0  0  0  0  0  0
    6.2273   -0.9720    2.3917 C   0  0  0  1  0  0  0  0  0  0  0  0
    5.5503   -0.5261    3.5642 C   0  0  0  1  0  0  0  0  0  0  0  0
    4.3087    0.0608    3.3533 C   0  0  0  1  0  0  0  0  0  0  0  0
    3.6885    0.2556    2.1652 N   0  0  0  1  0  0  0  0  0  0  0  0
    5.7168   -0.4872    4.9633 C   0  0  0  1  0  0  0  0  0  0  0  0
    4.6902    0.0716    5.5616 N   0  0  0  1  0  0  0  0  0  0  0  0
    3.8186    0.4105    4.5641 N   0  0  0  1  0  0  0  0  0  0  0  0
    2.5704    1.0428    4.7711 C   0  0  0  1  0  0  0  0  0  0  0  0
    1.9096    0.8897    5.9753 C   0  0  0  1  0  0  0  0  0  0  0  0
    0.6889    1.5138    6.1801 C   0  0  0  1  0  0  0  0  0  0  0  0
    0.1300    2.2847    5.1783 C   0  0  0  1  0  0  0  0  0  0  0  0
    0.7929    2.4382    3.9706 C   0  0  0  1  0  0  0  0  0  0  0  0
    2.0100    1.8160    3.7662 C   0  0  0  1  0  0  0  0  0  0  0  0
   -1.0602    2.8595    5.4388 O   0  0  0  1  0  0  0  0  0  0  0  0
   -1.4663    3.8801    4.4975 C   0  0  0  1  0  0  0  0  0  0  0  0
    3.8931   -0.0615   -0.0582 N   0  0  0  1  0  0  0  0  0  0  0  0
    4.6161   -0.3386   -1.3071 C   0  0  0  1  0  0  0  0  0  0  0  0
    3.6642   -0.2546   -2.5078 C   0  0  0  1  0  0  0  0  0  0  0  0
    3.6925   -1.6339   -3.1749 C   0  0  0  1  0  0  0  0  0  0  0  0
    5.0320   -2.2260   -2.7688 C   0  0  0  1  0  0  0  0  0  0  0  0
    5.1501   -1.7737   -1.3092 C   0  0  0  1  0  0  0  0  0  0  0  0
    6.1449   -1.6732   -3.6005 N   0  0  0  1  0  0  0  0  0  0  0  0
    7.1622   -1.4226    2.4578 H   0  0  0  1  0  0  0  0  0  0  0  0
    6.5518   -0.8563    5.4614 H   0  0  0  1  0  0  0  0  0  0  0  0
    2.3282    0.3064    6.7277 H   0  0  0  1  0  0  0  0  0  0  0  0
    0.1935    1.4018    7.0877 H   0  0  0  1  0  0  0  0  0  0  0  0
    0.3743    3.0215    3.2182 H   0  0  0  1  0  0  0  0  0  0  0  0
    2.5054    1.9279    2.8587 H   0  0  0  1  0  0  0  0  0  0  0  0
   -1.8395    3.4174    3.6079 H   0  0  0  1  0  0  0  0  0  0  0  0
   -0.6251    4.4949    4.2536 H   0  0  0  1  0  0  0  0  0  0  0  0
   -2.2344    4.4831    4.9349 H   0  0  0  1  0  0  0  0  0  0  0  0
    2.9654    0.2479   -0.1216 H   0  0  0  1  0  0  0  0  0  0  0  0
    5.4195    0.3596   -1.4172 H   0  0  0  1  0  0  0  0  0  0  0  0
    3.9983    0.4956   -3.1937 H   0  0  0  1  0  0  0  0  0  0  0  0
    2.6728   -0.0221   -2.1792 H   0  0  0  1  0  0  0  0  0  0  0  0
    3.6273   -1.5407   -4.2388 H   0  0  0  1  0  0  0  0  0  0  0  0
    2.8870   -2.2422   -2.8196 H   0  0  0  1  0  0  0  0  0  0  0  0
    5.0247   -3.2932   -2.8457 H   0  0  0  1  0  0  0  0  0  0  0  0
    6.1702   -1.7978   -0.9875 H   0  0  0  1  0  0  0  0  0  0  0  0
    4.5595   -2.3976   -0.6713 H   0  0  0  1  0  0  0  0  0  0  0  0
    7.0044   -1.9735   -3.2381 H   0  0  0  1  0  0  0  0  0  0  0  0
    6.1084   -0.6940   -3.5854 H   0  0  0  1  0  0  0  0  0  0  0  0
  1  2  4  0  0  0  0
  1  6  4  0  0  0  0
  1 18  1  0  0  0  0
  2  3  4  0  0  0  0
  3  4  4  0  0  0  0
  3 25  1  0  0  0  0
  4  5  4  0  0  0  0
  4  7  4  0  0  0  0
  5  6  4  0  0  0  0
  5  9  4  0  0  0  0
  7  8  4  0  0  0  0
  7 26  1  0  0  0  0
  8  9  4  0  0  0  0
  9 10  1  0  0  0  0
 10 11  4  0  0  0  0
 10 15  4  0  0  0  0
 11 12  4  0  0  0  0
 11 27  1  0  0  0  0
 12 13  4  0  0  0  0
 12 28  1  0  0  0  0
 13 14  4  0  0  0  0
 13 16  1  0  0  0  0
 14 15  4  0  0  0  0
 14 29  1  0  0  0  0
 15 30  1  0  0  0  0
 16 17  1  0  0  0  0
 17 31  1  0  0  0  0
 17 32  1  0  0  0  0
 17 33  1  0  0  0  0
 18 19  1  0  0  0  0
 18 34  1  0  0  0  0
 19 20  1  0  0  0  0
 19 23  1  0  0  0  0
 19 35  1  0  0  0  0
 20 21  1  0  0  0  0
 20 36  1  0  0  0  0
 20 37  1  0  0  0  0
 21 22  1  0  0  0  0
 21 38  1  0  0  0  0
 21 39  1  0  0  0  0
 22 23  1  0  0  0  0
 22 24  1  0  0  0  0
 22 40  1  0  0  0  0
 23 41  1  0  0  0  0
 23 42  1  0  0  0  0
 24 43  1  0  0  0  0
 24 44  1  0  0  0  0
M  END
> <ConfClashScore>
0 

> <ConfOneFourInteractionScore>
-0.985399 

> <ConfScore>
-0.0132643 

> <ConfScorePBest>
0.0027269 

> <ConfTolerance>
0.353586 

$$$$
c22.sdf
 OpenBabel04162418103D

 44 47  0  0  0  0  0  0  0  0999 V2000
    2.0084   -0.7486    0.0103 C   0  0  0  1  0  0  0  0  0  0  0  0
    1.1846   -1.5767    0.6603 N   0  0  0  1  0  0  0  0  0  0  0  0
   -0.0434   -1.1243    0.9838 C   0  0  0  1  0  0  0  0  0  0  0  0
   -0.4012    0.2049    0.6134 C   0  0  0  1  0  0  0  0  0  0  0  0
    0.5774    0.9233   -0.0624 C   0  0  0  1  0  0  0  0  0  0  0  0
    1.8199    0.4985   -0.3941 N   0  0  0  1  0  0  0  0  0  0  0  0
   -1.4901    1.0963    0.6929 C   0  0  0  1  0  0  0  0  0  0  0  0
   -1.2170    2.2516    0.1318 N   0  0  0  1  0  0  0  0  0  0  0  0
    0.0634    2.1437   -0.3358 N   0  0  0  1  0  0  0  0  0  0  0  0
    0.7625    3.1789   -1.0197 C   0  0  0  1  0  0  0  0  0  0  0  0
    1.3653    4.1926   -0.2992 C   0  0  0  1  0  0  0  0  0  0  0  0
    2.1289    5.1475   -0.9524 C   0  0  0  1  0  0  0  0  0  0  0  0
    2.2830    5.0890   -2.3247 C   0  0  0  1  0  0  0  0  0  0  0  0
    1.6782    4.0722   -3.0472 C   0  0  0  1  0  0  0  0  0  0  0  0
    0.9169    3.1200   -2.3960 C   0  0  0  1  0  0  0  0  0  0  0  0
    3.0449    6.0769   -2.8513 O   0  0  0  1  0  0  0  0  0  0  0  0
    3.3510    5.9936   -4.2520 C   0  0  0  1  0  0  0  0  0  0  0  0
    3.2349   -1.2693   -0.2823 N   0  0  0  1  0  0  0  0  0  0  0  0
    4.2497   -0.4932   -1.0026 C   0  0  0  1  0  0  0  0  0  0  0  0
    3.7538   -0.0778   -2.3779 C   0  0  0  1  0  0  0  0  0  0  0  0
    3.9273   -1.3305   -3.2432 C   0  0  0  1  0  0  0  0  0  0  0  0
    5.0272   -2.1657   -2.5743 C   0  0  0  1  0  0  0  0  0  0  0  0
    5.4672   -1.3563   -1.3511 C   0  0  0  1  0  0  0  0  0  0  0  0
    6.1746   -2.3631   -3.5098 N   0  0  0  1  0  0  0  0  0  0  0  0
   -0.7159   -1.7325    1.4931 H   0  0  0  1  0  0  0  0  0  0  0  0
   -2.3998    0.8668    1.1416 H   0  0  0  1  0  0  0  0  0  0  0  0
    1.2461    4.2389    0.7329 H   0  0  0  1  0  0  0  0  0  0  0  0
    2.5858    5.9080   -0.4098 H   0  0  0  1  0  0  0  0  0  0  0  0
    1.7974    4.0258   -4.0793 H   0  0  0  1  0  0  0  0  0  0  0  0
    0.4599    2.3595   -2.9386 H   0  0  0  1  0  0  0  0  0  0  0  0
    3.9923    6.8051   -4.5263 H   0  0  0  1  0  0  0  0  0  0  0  0
    2.4450    6.0480   -4.8187 H   0  0  0  1  0  0  0  0  0  0  0  0
    3.8438    5.0657   -4.4545 H   0  0  0  1  0  0  0  0  0  0  0  0
    3.4433   -2.1855   -0.0039 H   0  0  0  1  0  0  0  0  0  0  0  0
    4.5308    0.3574   -0.4175 H   0  0  0  1  0  0  0  0  0  0  0  0
    2.7250    0.2136   -2.3367 H   0  0  0  1  0  0  0  0  0  0  0  0
    4.3391    0.7312   -2.7624 H   0  0  0  1  0  0  0  0  0  0  0  0
    4.2208   -1.0578   -4.2354 H   0  0  0  1  0  0  0  0  0  0  0  0
    3.0126   -1.8845   -3.2809 H   0  0  0  1  0  0  0  0  0  0  0  0
    4.6432   -3.1182   -2.2740 H   0  0  0  1  0  0  0  0  0  0  0  0
    5.7154   -2.0056   -0.5377 H   0  0  0  1  0  0  0  0  0  0  0  0
    6.3106   -0.7420   -1.5880 H   0  0  0  1  0  0  0  0  0  0  0  0
    6.4137   -1.5057   -3.9197 H   0  0  0  1  0  0  0  0  0  0  0  0
    5.9192   -2.9997   -4.2098 H   0  0  0  1  0  0  0  0  0  0  0  0
  1  2  4  0  0  0  0
  1  6  4  0  0  0  0
  1 18  1  0  0  0  0
  2  3  4  0  0  0  0
  3  4  4  0  0  0  0
  3 25  1  0  0  0  0
  4  5  4  0  0  0  0
  4  7  4  0  0  0  0
  5  6  4  0  0  0  0
  5  9  4  0  0  0  0
  7  8  4  0  0  0  0
  7 26  1  0  0  0  0
  8  9  4  0  0  0  0
  9 10  1  0  0  0  0
 10 11  4  0  0  0  0
 10 15  4  0  0  0  0
 11 12  4  0  0  0  0
 11 27  1  0  0  0  0
 12 13  4  0  0  0  0
 12 28  1  0  0  0  0
 13 14  4  0  0  0  0
 13 16  1  0  0  0  0
 14 15  4  0  0  0  0
 14 29  1  0  0  0  0
 15 30  1  0  0  0  0
 16 17  1  0  0  0  0
 17 31  1  0  0  0  0
 17 32  1  0  0  0  0
 17 33  1  0  0  0  0
 18 19  1  0  0  0  0
 18 34  1  0  0  0  0
 19 20  1  0  0  0  0
 19 23  1  0  0  0  0
 19 35  1  0  0  0  0
 20 21  1  0  0  0  0
 20 36  1  0  0  0  0
 20 37  1  0  0  0  0
 21 22  1  0  0  0  0
 21 38  1  0  0  0  0
 21 39  1  0  0  0  0
 22 23  1  0  0  0  0
 22 24  1  0  0  0  0
 22 40  1  0  0  0  0
 23 41  1  0  0  0  0
 23 42  1  0  0  0  0
 24 43  1  0  0  0  0
 24 44  1  0  0  0  0
M  END
> <ConfClashScore>
0 

> <ConfOneFourInteractionScore>
-0.981848 

> <ConfScore>
-0.0123006 

> <ConfScorePBest>
0.00271357 

> <ConfTolerance>
0.399126 

$$$$
c22.sdf
 OpenBabel04162418103D

 44 47  0  0  0  0  0  0  0  0999 V2000
    4.2430   -1.5351    1.1861 C   0  0  0  1  0  0  0  0  0  0  0  0
    5.5496   -1.2588    1.2459 N   0  0  0  1  0  0  0  0  0  0  0  0
    6.2216   -1.6117    2.3600 C   0  0  0  1  0  0  0  0  0  0  0  0
    5.5101   -2.2630    3.4095 C   0  0  0  1  0  0  0  0  0  0  0  0
    4.1571   -2.4753    3.1752 C   0  0  0  1  0  0  0  0  0  0  0  0
    3.4547   -2.1261    2.0712 N   0  0  0  1  0  0  0  0  0  0  0  0
    5.7294   -2.8154    4.6876 C   0  0  0  1  0  0  0  0  0  0  0  0
    4.6277   -3.3137    5.1995 N   0  0  0  1  0  0  0  0  0  0  0  0
    3.6545   -3.1029    4.2624 N   0  0  0  1  0  0  0  0  0  0  0  0
    2.2937   -3.4922    4.4114 C   0  0  0  1  0  0  0  0  0  0  0  0
    1.3916   -2.6348    5.0124 C   0  0  0  1  0  0  0  0  0  0  0  0
    0.0651   -3.0118    5.1528 C   0  0  0  1  0  0  0  0  0  0  0  0
   -0.3543   -4.2473    4.6966 C   0  0  0  1  0  0  0  0  0  0  0  0
    0.5506   -5.1071    4.0938 C   0  0  0  1  0  0  0  0  0  0  0  0
    1.8733   -4.7313    3.9538 C   0  0  0  1  0  0  0  0  0  0  0  0
   -1.6614   -4.5566    4.8689 O   0  0  0  1  0  0  0  0  0  0  0  0
   -2.4158   -3.7366    5.7749 C   0  0  0  1  0  0  0  0  0  0  0  0
    3.6337   -1.1531    0.0492 N   0  0  0  1  0  0  0  0  0  0  0  0
    4.3162   -0.4711   -1.0543 C   0  0  0  1  0  0  0  0  0  0  0  0
    3.3671   -0.3135   -2.2498 C   0  0  0  1  0  0  0  0  0  0  0  0
    4.0407   -1.0575   -3.4063 C   0  0  0  1  0  0  0  0  0  0  0  0
    4.9344   -2.0995   -2.7250 C   0  0  0  1  0  0  0  0  0  0  0  0
    5.4955   -1.3142   -1.5510 C   0  0  0  1  0  0  0  0  0  0  0  0
    6.0044   -2.5542   -3.6232 N   0  0  0  1  0  0  0  0  0  0  0  0
    7.2383   -1.4130    2.4519 H   0  0  0  1  0  0  0  0  0  0  0  0
    6.6522   -2.8270    5.1671 H   0  0  0  1  0  0  0  0  0  0  0  0
    1.7080   -1.7068    5.3593 H   0  0  0  1  0  0  0  0  0  0  0  0
   -0.6146   -2.3650    5.6014 H   0  0  0  1  0  0  0  0  0  0  0  0
    0.2343   -6.0351    3.7469 H   0  0  0  1  0  0  0  0  0  0  0  0
    2.5530   -5.3781    3.5052 H   0  0  0  1  0  0  0  0  0  0  0  0
   -2.0057   -3.8217    6.7595 H   0  0  0  1  0  0  0  0  0  0  0  0
   -3.4355   -4.0609    5.7843 H   0  0  0  1  0  0  0  0  0  0  0  0
   -2.3684   -2.7163    5.4560 H   0  0  0  1  0  0  0  0  0  0  0  0
    2.6769   -1.3420   -0.0469 H   0  0  0  1  0  0  0  0  0  0  0  0
    4.6589    0.4874   -0.7244 H   0  0  0  1  0  0  0  0  0  0  0  0
    2.4141   -0.7477   -2.0305 H   0  0  0  1  0  0  0  0  0  0  0  0
    3.2409    0.7207   -2.4934 H   0  0  0  1  0  0  0  0  0  0  0  0
    3.3098   -1.5337   -4.0260 H   0  0  0  1  0  0  0  0  0  0  0  0
    4.6270   -0.3854   -3.9975 H   0  0  0  1  0  0  0  0  0  0  0  0
    4.3650   -2.9422   -2.3925 H   0  0  0  1  0  0  0  0  0  0  0  0
    6.3023   -0.6865   -1.8670 H   0  0  0  1  0  0  0  0  0  0  0  0
    5.8374   -1.9757   -0.7826 H   0  0  0  1  0  0  0  0  0  0  0  0
    6.5362   -3.2447   -3.1752 H   0  0  0  1  0  0  0  0  0  0  0  0
    6.5812   -1.7962   -3.8537 H   0  0  0  1  0  0  0  0  0  0  0  0
  1  2  4  0  0  0  0
  1  6  4  0  0  0  0
  1 18  1  0  0  0  0
  2  3  4  0  0  0  0
  3  4  4  0  0  0  0
  3 25  1  0  0  0  0
  4  5  4  0  0  0  0
  4  7  4  0  0  0  0
  5  6  4  0  0  0  0
  5  9  4  0  0  0  0
  7  8  4  0  0  0  0
  7 26  1  0  0  0  0
  8  9  4  0  0  0  0
  9 10  1  0  0  0  0
 10 11  4  0  0  0  0
 10 15  4  0  0  0  0
 11 12  4  0  0  0  0
 11 27  1  0  0  0  0
 12 13  4  0  0  0  0
 12 28  1  0  0  0  0
 13 14  4  0  0  0  0
 13 16  1  0  0  0  0
 14 15  4  0  0  0  0
 14 29  1  0  0  0  0
 15 30  1  0  0  0  0
 16 17  1  0  0  0  0
 17 31  1  0  0  0  0
 17 32  1  0  0  0  0
 17 33  1  0  0  0  0
 18 19  1  0  0  0  0
 18 34  1  0  0  0  0
 19 20  1  0  0  0  0
 19 23  1  0  0  0  0
 19 35  1  0  0  0  0
 20 21  1  0  0  0  0
 20 36  1  0  0  0  0
 20 37  1  0  0  0  0
 21 22  1  0  0  0  0
 21 38  1  0  0  0  0
 21 39  1  0  0  0  0
 22 23  1  0  0  0  0
 22 24  1  0  0  0  0
 22 40  1  0  0  0  0
 23 41  1  0  0  0  0
 23 42  1  0  0  0  0
 24 43  1  0  0  0  0
 24 44  1  0  0  0  0
M  END
> <ConfClashScore>
0 

> <ConfOneFourInteractionScore>
-0.985399 

> <ConfScore>
-0.0120859 

> <ConfScorePBest>
0.00270024 

> <ConfTolerance>
0.396319 

$$$$
c22.sdf
 OpenBabel04162418103D

 44 47  0  0  0  0  0  0  0  0999 V2000
    3.0976   -0.9315    0.7166 C   0  0  0  1  0  0  0  0  0  0  0  0
    2.7774   -1.9938   -0.0289 N   0  0  0  1  0  0  0  0  0  0  0  0
    1.9323   -2.9042    0.4950 C   0  0  0  1  0  0  0  0  0  0  0  0
    1.4216   -2.6862    1.8078 C   0  0  0  1  0  0  0  0  0  0  0  0
    1.8571   -1.5258    2.4358 C   0  0  0  1  0  0  0  0  0  0  0  0
    2.7094   -0.5984    1.9383 N   0  0  0  1  0  0  0  0  0  0  0  0
    0.5545   -3.2814    2.7462 C   0  0  0  1  0  0  0  0  0  0  0  0
    0.4640   -2.5707    3.8465 N   0  0  0  1  0  0  0  0  0  0  0  0
    1.2708   -1.4836    3.6536 N   0  0  0  1  0  0  0  0  0  0  0  0
    1.4660   -0.4522    4.6016 C   0  0  0  1  0  0  0  0  0  0  0  0
    0.3938    0.0307    5.3278 C   0  0  0  1  0  0  0  0  0  0  0  0
    0.5861    1.0378    6.2607 C   0  0  0  1  0  0  0  0  0  0  0  0
    1.8489    1.5627    6.4609 C   0  0  0  1  0  0  0  0  0  0  0  0
    2.9242    1.0781    5.7325 C   0  0  0  1  0  0  0  0  0  0  0  0
    2.7326    0.0740    4.8023 C   0  0  0  1  0  0  0  0  0  0  0  0
    1.9131    2.5437    7.3922 O   0  0  0  1  0  0  0  0  0  0  0  0
    3.2202    2.9764    7.8006 C   0  0  0  1  0  0  0  0  0  0  0  0
    3.9501   -0.0622    0.1330 N   0  0  0  1  0  0  0  0  0  0  0  0
    4.5203   -0.2502   -1.2019 C   0  0  0  1  0  0  0  0  0  0  0  0
    3.4094   -0.3510   -2.2506 C   0  0  0  1  0  0  0  0  0  0  0  0
    4.1212   -1.1196   -3.3715 C   0  0  0  1  0  0  0  0  0  0  0  0
    4.9340   -2.1884   -2.6514 C   0  0  0  1  0  0  0  0  0  0  0  0
    5.2735   -1.5874   -1.2824 C   0  0  0  1  0  0  0  0  0  0  0  0
    6.1713   -2.4931   -3.4045 N   0  0  0  1  0  0  0  0  0  0  0  0
    1.6586   -3.7482   -0.0476 H   0  0  0  1  0  0  0  0  0  0  0  0
    0.0476   -4.1754    2.5864 H   0  0  0  1  0  0  0  0  0  0  0  0
   -0.5572   -0.3614    5.1744 H   0  0  0  1  0  0  0  0  0  0  0  0
   -0.2200    1.3985    6.8101 H   0  0  0  1  0  0  0  0  0  0  0  0
    3.8751    1.4702    5.8859 H   0  0  0  1  0  0  0  0  0  0  0  0
    3.5386   -0.2867    4.2529 H   0  0  0  1  0  0  0  0  0  0  0  0
    3.6800    2.2135    8.3933 H   0  0  0  1  0  0  0  0  0  0  0  0
    3.1345    3.8732    8.3779 H   0  0  0  1  0  0  0  0  0  0  0  0
    3.8199    3.1649    6.9347 H   0  0  0  1  0  0  0  0  0  0  0  0
    4.2020    0.7423    0.6327 H   0  0  0  1  0  0  0  0  0  0  0  0
    5.1767    0.5641   -1.4279 H   0  0  0  1  0  0  0  0  0  0  0  0
    3.0928    0.6168   -2.5796 H   0  0  0  1  0  0  0  0  0  0  0  0
    2.5668   -0.8946   -1.8772 H   0  0  0  1  0  0  0  0  0  0  0  0
    4.7630   -0.4681   -3.9270 H   0  0  0  1  0  0  0  0  0  0  0  0
    3.4093   -1.5683   -4.0322 H   0  0  0  1  0  0  0  0  0  0  0  0
    4.3573   -3.0822   -2.5352 H   0  0  0  1  0  0  0  0  0  0  0  0
    4.9512   -2.2422   -0.4999 H   0  0  0  1  0  0  0  0  0  0  0  0
    6.3279   -1.4246   -1.2002 H   0  0  0  1  0  0  0  0  0  0  0  0
    6.7031   -1.6759   -3.5043 H   0  0  0  1  0  0  0  0  0  0  0  0
    5.9371   -2.8404   -4.2904 H   0  0  0  1  0  0  0  0  0  0  0  0
  1  2  4  0  0  0  0
  1  6  4  0  0  0  0
  1 18  1  0  0  0  0
  2  3  4  0  0  0  0
  3  4  4  0  0  0  0
  3 25  1  0  0  0  0
  4  5  4  0  0  0  0
  4  7  4  0  0  0  0
  5  6  4  0  0  0  0
  5  9  4  0  0  0  0
  7  8  4  0  0  0  0
  7 26  1  0  0  0  0
  8  9  4  0  0  0  0
  9 10  1  0  0  0  0
 10 11  4  0  0  0  0
 10 15  4  0  0  0  0
 11 12  4  0  0  0  0
 11 27  1  0  0  0  0
 12 13  4  0  0  0  0
 12 28  1  0  0  0  0
 13 14  4  0  0  0  0
 13 16  1  0  0  0  0
 14 15  4  0  0  0  0
 14 29  1  0  0  0  0
 15 30  1  0  0  0  0
 16 17  1  0  0  0  0
 17 31  1  0  0  0  0
 17 32  1  0  0  0  0
 17 33  1  0  0  0  0
 18 19  1  0  0  0  0
 18 34  1  0  0  0  0
 19 20  1  0  0  0  0
 19 23  1  0  0  0  0
 19 35  1  0  0  0  0
 20 21  1  0  0  0  0
 20 36  1  0  0  0  0
 20 37  1  0  0  0  0
 21 22  1  0  0  0  0
 21 38  1  0  0  0  0
 21 39  1  0  0  0  0
 22 23  1  0  0  0  0
 22 24  1  0  0  0  0
 22 40  1  0  0  0  0
 23 41  1  0  0  0  0
 23 42  1  0  0  0  0
 24 43  1  0  0  0  0
 24 44  1  0  0  0  0
M  END
> <ConfClashScore>
0 

> <ConfOneFourInteractionScore>
-0.980204 

> <ConfScore>
-0.0103776 

> <ConfScorePBest>
0.00268692 

> <ConfTolerance>
0.210189 

$$$$
c22.sdf
 OpenBabel04162418103D

 44 47  0  0  0  0  0  0  0  0999 V2000
    3.9233    0.9648    0.7400 C   0  0  0  1  0  0  0  0  0  0  0  0
    3.1557    0.9487    1.8343 N   0  0  0  1  0  0  0  0  0  0  0  0
    3.2199    2.0052    2.6691 C   0  0  0  1  0  0  0  0  0  0  0  0
    4.0940    3.0825    2.3416 C   0  0  0  1  0  0  0  0  0  0  0  0
    4.8138    2.9337    1.1625 C   0  0  0  1  0  0  0  0  0  0  0  0
    4.7755    1.8827    0.3093 N   0  0  0  1  0  0  0  0  0  0  0  0
    4.4948    4.3411    2.8337 C   0  0  0  1  0  0  0  0  0  0  0  0
    5.3771    4.9139    2.0479 N   0  0  0  1  0  0  0  0  0  0  0  0
    5.5740    4.0419    1.0132 N   0  0  0  1  0  0  0  0  0  0  0  0
    6.4526    4.2682   -0.0656 C   0  0  0  1  0  0  0  0  0  0  0  0
    6.0275    4.2602   -1.3807 C   0  0  0  1  0  0  0  0  0  0  0  0
    6.9337    4.4941   -2.4032 C   0  0  0  1  0  0  0  0  0  0  0  0
    8.2632    4.7300   -2.1082 C   0  0  0  1  0  0  0  0  0  0  0  0
    8.6894    4.7379   -0.7891 C   0  0  0  1  0  0  0  0  0  0  0  0
    7.7860    4.5047    0.2306 C   0  0  0  1  0  0  0  0  0  0  0  0
    9.2256    4.9623   -3.0083 O   0  0  0  1  0  0  0  0  0  0  0  0
    8.9379    5.0245   -4.4458 C   0  0  0  1  0  0  0  0  0  0  0  0
    3.8119   -0.1309   -0.0540 N   0  0  0  1  0  0  0  0  0  0  0  0
    4.5942   -0.3329   -1.3023 C   0  0  0  1  0  0  0  0  0  0  0  0
    3.6732   -0.2514   -2.5253 C   0  0  0  1  0  0  0  0  0  0  0  0
    3.6729   -1.6521   -3.1249 C   0  0  0  1  0  0  0  0  0  0  0  0
    5.0472   -2.2304   -2.7637 C   0  0  0  1  0  0  0  0  0  0  0  0
    5.2108   -1.7405   -1.3224 C   0  0  0  1  0  0  0  0  0  0  0  0
    6.1012   -1.6955   -3.6358 N   0  0  0  1  0  0  0  0  0  0  0  0
    2.6436    2.0337    3.5343 H   0  0  0  1  0  0  0  0  0  0  0  0
    4.1352    4.7647    3.7128 H   0  0  0  1  0  0  0  0  0  0  0  0
    5.0279    4.0788   -1.6030 H   0  0  0  1  0  0  0  0  0  0  0  0
    6.6131    4.4921   -3.3926 H   0  0  0  1  0  0  0  0  0  0  0  0
    9.6890    4.9194   -0.5668 H   0  0  0  1  0  0  0  0  0  0  0  0
    8.1065    4.5067    1.2199 H   0  0  0  1  0  0  0  0  0  0  0  0
    8.9826    4.0397   -4.8619 H   0  0  0  1  0  0  0  0  0  0  0  0
    9.6618    5.6482   -4.9274 H   0  0  0  1  0  0  0  0  0  0  0  0
    7.9596    5.4309   -4.5962 H   0  0  0  1  0  0  0  0  0  0  0  0
    3.1785   -0.8300    0.2113 H   0  0  0  1  0  0  0  0  0  0  0  0
    5.3623    0.4093   -1.3665 H   0  0  0  1  0  0  0  0  0  0  0  0
    4.0509    0.4580   -3.2317 H   0  0  0  1  0  0  0  0  0  0  0  0
    2.6838    0.0299   -2.2307 H   0  0  0  1  0  0  0  0  0  0  0  0
    2.8904   -2.2447   -2.6988 H   0  0  0  1  0  0  0  0  0  0  0  0
    3.5495   -1.6079   -4.1868 H   0  0  0  1  0  0  0  0  0  0  0  0
    5.0483   -3.2991   -2.8163 H   0  0  0  1  0  0  0  0  0  0  0  0
    6.2461   -1.7002   -1.0552 H   0  0  0  1  0  0  0  0  0  0  0  0
    4.6921   -2.3868   -0.6455 H   0  0  0  1  0  0  0  0  0  0  0  0
    6.9779   -1.9755   -3.2990 H   0  0  0  1  0  0  0  0  0  0  0  0
    6.0522   -0.7168   -3.6444 H   0  0  0  1  0  0  0  0  0  0  0  0
  1  2  4  0  0  0  0
  1  6  4  0  0  0  0
  1 18  1  0  0  0  0
  2  3  4  0  0  0  0
  3  4  4  0  0  0  0
  3 25  1  0  0  0  0
  4  5  4  0  0  0  0
  4  7  4  0  0  0  0
  5  6  4  0  0  0  0
  5  9  4  0  0  0  0
  7  8  4  0  0  0  0
  7 26  1  0  0  0  0
  8  9  4  0  0  0  0
  9 10  1  0  0  0  0
 10 11  4  0  0  0  0
 10 15  4  0  0  0  0
 11 12  4  0  0  0  0
 11 27  1  0  0  0  0
 12 13  4  0  0  0  0
 12 28  1  0  0  0  0
 13 14  4  0  0  0  0
 13 16  1  0  0  0  0
 14 15  4  0  0  0  0
 14 29  1  0  0  0  0
 15 30  1  0  0  0  0
 16 17  1  0  0  0  0
 17 31  1  0  0  0  0
 17 32  1  0  0  0  0
 17 33  1  0  0  0  0
 18 19  1  0  0  0  0
 18 34  1  0  0  0  0
 19 20  1  0  0  0  0
 19 23  1  0  0  0  0
 19 35  1  0  0  0  0
 20 21  1  0  0  0  0
 20 36  1  0  0  0  0
 20 37  1  0  0  0  0
 21 22  1  0  0  0  0
 21 38  1  0  0  0  0
 21 39  1  0  0  0  0
 22 23  1  0  0  0  0
 22 24  1  0  0  0  0
 22 40  1  0  0  0  0
 23 41  1  0  0  0  0
 23 42  1  0  0  0  0
 24 43  1  0  0  0  0
 24 44  1  0  0  0  0
M  END
> <ConfClashScore>
0 

> <ConfOneFourInteractionScore>
-0.984337 

> <ConfScore>
-0.00819718 

> <ConfScorePBest>
0.00267359 

> <ConfTolerance>
0.325471 

$$$$
c22.sdf
 OpenBabel04162418103D

 44 47  0  0  0  0  0  0  0  0999 V2000
    4.1736    0.0559    1.2756 C   0  0  0  1  0  0  0  0  0  0  0  0
    5.4903    0.2782    1.3373 N   0  0  0  1  0  0  0  0  0  0  0  0
    6.0210    0.6142    2.5300 C   0  0  0  1  0  0  0  0  0  0  0  0
    5.1570    0.7095    3.6598 C   0  0  0  1  0  0  0  0  0  0  0  0
    3.8163    0.4399    3.4140 C   0  0  0  1  0  0  0  0  0  0  0  0
    3.2542    0.1076    2.2276 N   0  0  0  1  0  0  0  0  0  0  0  0
    5.2047    0.9904    5.0402 C   0  0  0  1  0  0  0  0  0  0  0  0
    4.0176    0.9113    5.5957 N   0  0  0  1  0  0  0  0  0  0  0  0
    3.1584    0.5702    4.5881 N   0  0  0  1  0  0  0  0  0  0  0  0
    1.7571    0.3777    4.7534 C   0  0  0  1  0  0  0  0  0  0  0  0
    1.0650   -0.4429    3.8829 C   0  0  0  1  0  0  0  0  0  0  0  0
   -0.2980   -0.6345    4.0470 C   0  0  0  1  0  0  0  0  0  0  0  0
   -0.9660   -0.0007    5.0777 C   0  0  0  1  0  0  0  0  0  0  0  0
   -0.2717    0.8224    5.9507 C   0  0  0  1  0  0  0  0  0  0  0  0
    1.0874    1.0134    5.7872 C   0  0  0  1  0  0  0  0  0  0  0  0
   -2.2975   -0.2256    5.1796 O   0  0  0  1  0  0  0  0  0  0  0  0
   -3.0292    0.5798    6.1168 C   0  0  0  1  0  0  0  0  0  0  0  0
    3.7099   -0.2714    0.0560 N   0  0  0  1  0  0  0  0  0  0  0  0
    4.5464   -0.3461   -1.1412 C   0  0  0  1  0  0  0  0  0  0  0  0
    3.6801   -0.1601   -2.4354 C   0  0  0  1  0  0  0  0  0  0  0  0
    3.6890   -1.5042   -3.1867 C   0  0  0  1  0  0  0  0  0  0  0  0
    5.0635   -2.1257   -2.7677 C   0  0  0  1  0  0  0  0  0  0  0  0
    5.1559   -1.7367   -1.2872 C   0  0  0  1  0  0  0  0  0  0  0  0
    6.1790   -1.5390   -3.5483 N   0  0  0  1  0  0  0  0  0  0  0  0
    7.0400    0.8002    2.6241 H   0  0  0  1  0  0  0  0  0  0  0  0
    6.0749    1.2313    5.5563 H   0  0  0  1  0  0  0  0  0  0  0  0
    1.5668   -0.9167    3.1048 H   0  0  0  1  0  0  0  0  0  0  0  0
   -0.8181   -1.2551    3.3944 H   0  0  0  1  0  0  0  0  0  0  0  0
   -0.7734    1.2961    6.7288 H   0  0  0  1  0  0  0  0  0  0  0  0
    1.6075    1.6341    6.4398 H   0  0  0  1  0  0  0  0  0  0  0  0
   -4.0756    0.3780    6.0205 H   0  0  0  1  0  0  0  0  0  0  0  0
   -2.8459    1.6148    5.9167 H   0  0  0  1  0  0  0  0  0  0  0  0
   -2.7113    0.3466    7.1115 H   0  0  0  1  0  0  0  0  0  0  0  0
    2.7549   -0.4716   -0.0357 H   0  0  0  1  0  0  0  0  0  0  0  0
    5.3126    0.3990   -1.0887 H   0  0  0  1  0  0  0  0  0  0  0  0
    4.1014    0.6068   -3.0513 H   0  0  0  1  0  0  0  0  0  0  0  0
    2.6778    0.1050   -2.1705 H   0  0  0  1  0  0  0  0  0  0  0  0
    2.8747   -2.1249   -2.8759 H   0  0  0  1  0  0  0  0  0  0  0  0
    3.6403   -1.3545   -4.2450 H   0  0  0  1  0  0  0  0  0  0  0  0
    5.0622   -3.1887   -2.8902 H   0  0  0  1  0  0  0  0  0  0  0  0
    6.1797   -1.7215   -0.9765 H   0  0  0  1  0  0  0  0  0  0  0  0
    4.6119   -2.4386   -0.6903 H   0  0  0  1  0  0  0  0  0  0  0  0
    6.1484   -1.8773   -4.4676 H   0  0  0  1  0  0  0  0  0  0  0  0
    7.0325   -1.7892   -3.1367 H   0  0  0  1  0  0  0  0  0  0  0  0
  1  2  4  0  0  0  0
  1  6  4  0  0  0  0
  1 18  1  0  0  0  0
  2  3  4  0  0  0  0
  3  4  4  0  0  0  0
  3 25  1  0  0  0  0
  4  5  4  0  0  0  0
  4  7  4  0  0  0  0
  5  6  4  0  0  0  0
  5  9  4  0  0  0  0
  7  8  4  0  0  0  0
  7 26  1  0  0  0  0
  8  9  4  0  0  0  0
  9 10  1  0  0  0  0
 10 11  4  0  0  0  0
 10 15  4  0  0  0  0
 11 12  4  0  0  0  0
 11 27  1  0  0  0  0
 12 13  4  0  0  0  0
 12 28  1  0  0  0  0
 13 14  4  0  0  0  0
 13 16  1  0  0  0  0
 14 15  4  0  0  0  0
 14 29  1  0  0  0  0
 15 30  1  0  0  0  0
 16 17  1  0  0  0  0
 17 31  1  0  0  0  0
 17 32  1  0  0  0  0
 17 33  1  0  0  0  0
 18 19  1  0  0  0  0
 18 34  1  0  0  0  0
 19 20  1  0  0  0  0
 19 23  1  0  0  0  0
 19 35  1  0  0  0  0
 20 21  1  0  0  0  0
 20 36  1  0  0  0  0
 20 37  1  0  0  0  0
 21 22  1  0  0  0  0
 21 38  1  0  0  0  0
 21 39  1  0  0  0  0
 22 23  1  0  0  0  0
 22 24  1  0  0  0  0
 22 40  1  0  0  0  0
 23 41  1  0  0  0  0
 23 42  1  0  0  0  0
 24 43  1  0  0  0  0
 24 44  1  0  0  0  0
M  END
> <ConfClashScore>
0 

> <ConfOneFourInteractionScore>
-0.984337 

> <ConfScore>
-0.00753191 

> <ConfScorePBest>
0.00266026 

> <ConfTolerance>
0.346869 

$$$$
c22.sdf
 OpenBabel04162418103D

 44 47  0  0  0  0  0  0  0  0999 V2000
    2.3192   -0.7397    0.4427 C   0  0  0  1  0  0  0  0  0  0  0  0
    1.8782    0.3969   -0.1056 N   0  0  0  1  0  0  0  0  0  0  0  0
    0.6639    0.8500    0.2651 C   0  0  0  1  0  0  0  0  0  0  0  0
   -0.0819    0.1012    1.2217 C   0  0  0  1  0  0  0  0  0  0  0  0
    0.5324   -1.0535    1.6905 C   0  0  0  1  0  0  0  0  0  0  0  0
    1.7457   -1.5365    1.3318 N   0  0  0  1  0  0  0  0  0  0  0  0
   -1.3099    0.1431    1.9123 C   0  0  0  1  0  0  0  0  0  0  0  0
   -1.4500   -0.8814    2.7215 N   0  0  0  1  0  0  0  0  0  0  0  0
   -0.3087   -1.6219    2.5837 N   0  0  0  1  0  0  0  0  0  0  0  0
   -0.0456   -2.8127    3.2768 C   0  0  0  1  0  0  0  0  0  0  0  0
    1.1037   -2.8105    4.0445 C   0  0  0  1  0  0  0  0  0  0  0  0
    1.4521   -3.9368    4.7736 C   0  0  0  1  0  0  0  0  0  0  0  0
    0.6533   -5.0638    4.7286 C   0  0  0  1  0  0  0  0  0  0  0  0
   -0.4994   -5.0658    3.9586 C   0  0  0  1  0  0  0  0  0  0  0  0
   -0.8469   -3.9429    3.2316 C   0  0  0  1  0  0  0  0  0  0  0  0
    0.9948   -6.1601    5.4331 O   0  0  0  1  0  0  0  0  0  0  0  0
    2.2270   -6.0470    6.1825 C   0  0  0  1  0  0  0  0  0  0  0  0
    3.5353   -1.1362    0.0264 N   0  0  0  1  0  0  0  0  0  0  0  0
    4.3089   -0.4464   -1.0071 C   0  0  0  1  0  0  0  0  0  0  0  0
    3.4762   -0.2805   -2.2686 C   0  0  0  1  0  0  0  0  0  0  0  0
    4.1003   -1.1552   -3.3682 C   0  0  0  1  0  0  0  0  0  0  0  0
    4.9941   -2.1049   -2.5902 C   0  0  0  1  0  0  0  0  0  0  0  0
    5.5307   -1.2916   -1.4153 C   0  0  0  1  0  0  0  0  0  0  0  0
    6.1233   -2.5868   -3.4529 N   0  0  0  1  0  0  0  0  0  0  0  0
    0.2791    1.7278   -0.1386 H   0  0  0  1  0  0  0  0  0  0  0  0
   -2.0192    0.8946    1.7951 H   0  0  0  1  0  0  0  0  0  0  0  0
    1.7069   -1.9639    4.0753 H   0  0  0  1  0  0  0  0  0  0  0  0
    2.3148   -3.9338    5.3545 H   0  0  0  1  0  0  0  0  0  0  0  0
   -1.1026   -5.9124    3.9278 H   0  0  0  1  0  0  0  0  0  0  0  0
   -1.7096   -3.9459    2.6507 H   0  0  0  1  0  0  0  0  0  0  0  0
    2.0391   -5.5366    7.1039 H   0  0  0  1  0  0  0  0  0  0  0  0
    2.9433   -5.4962    5.6095 H   0  0  0  1  0  0  0  0  0  0  0  0
    2.6099   -7.0247    6.3883 H   0  0  0  1  0  0  0  0  0  0  0  0
    3.9265   -1.9342    0.4394 H   0  0  0  1  0  0  0  0  0  0  0  0
    4.6230    0.5086   -0.6404 H   0  0  0  1  0  0  0  0  0  0  0  0
    2.4700   -0.5936   -2.0830 H   0  0  0  1  0  0  0  0  0  0  0  0
    3.4805    0.7449   -2.5742 H   0  0  0  1  0  0  0  0  0  0  0  0
    4.6725   -0.5626   -4.0511 H   0  0  0  1  0  0  0  0  0  0  0  0
    3.3465   -1.6916   -3.9058 H   0  0  0  1  0  0  0  0  0  0  0  0
    4.4309   -2.9436   -2.2377 H   0  0  0  1  0  0  0  0  0  0  0  0
    5.8440   -1.9291   -0.6152 H   0  0  0  1  0  0  0  0  0  0  0  0
    6.3473   -0.6695   -1.7171 H   0  0  0  1  0  0  0  0  0  0  0  0
    6.6178   -1.8172   -3.8046 H   0  0  0  1  0  0  0  0  0  0  0  0
    5.7637   -3.1119   -4.1981 H   0  0  0  1  0  0  0  0  0  0  0  0
  1  2  4  0  0  0  0
  1  6  4  0  0  0  0
  1 18  1  0  0  0  0
  2  3  4  0  0  0  0
  3  4  4  0  0  0  0
  3 25  1  0  0  0  0
  4  5  4  0  0  0  0
  4  7  4  0  0  0  0
  5  6  4  0  0  0  0
  5  9  4  0  0  0  0
  7  8  4  0  0  0  0
  7 26  1  0  0  0  0
  8  9  4  0  0  0  0
  9 10  1  0  0  0  0
 10 11  4  0  0  0  0
 10 15  4  0  0  0  0
 11 12  4  0  0  0  0
 11 27  1  0  0  0  0
 12 13  4  0  0  0  0
 12 28  1  0  0  0  0
 13 14  4  0  0  0  0
 13 16  1  0  0  0  0
 14 15  4  0  0  0  0
 14 29  1  0  0  0  0
 15 30  1  0  0  0  0
 16 17  1  0  0  0  0
 17 31  1  0  0  0  0
 17 32  1  0  0  0  0
 17 33  1  0  0  0  0
 18 19  1  0  0  0  0
 18 34  1  0  0  0  0
 19 20  1  0  0  0  0
 19 23  1  0  0  0  0
 19 35  1  0  0  0  0
 20 21  1  0  0  0  0
 20 36  1  0  0  0  0
 20 37  1  0  0  0  0
 21 22  1  0  0  0  0
 21 38  1  0  0  0  0
 21 39  1  0  0  0  0
 22 23  1  0  0  0  0
 22 24  1  0  0  0  0
 22 40  1  0  0  0  0
 23 41  1  0  0  0  0
 23 42  1  0  0  0  0
 24 43  1  0  0  0  0
 24 44  1  0  0  0  0
M  END
> <ConfClashScore>
0 

> <ConfOneFourInteractionScore>
-0.985399 

> <ConfScore>
-0.00592851 

> <ConfScorePBest>
0.00264693 

> <ConfTolerance>
0.357534 

$$$$
c22.sdf
 OpenBabel04162418103D

 44 47  0  0  0  0  0  0  0  0999 V2000
    4.8168    0.7494    1.0558 C   0  0  0  1  0  0  0  0  0  0  0  0
    6.1517    0.7638    0.9857 N   0  0  0  1  0  0  0  0  0  0  0  0
    6.8346    1.3020    2.0158 C   0  0  0  1  0  0  0  0  0  0  0  0
    6.1031    1.8205    3.1239 C   0  0  0  1  0  0  0  0  0  0  0  0
    4.7205    1.7180    3.0308 C   0  0  0  1  0  0  0  0  0  0  0  0
    4.0077    1.1900    2.0074 N   0  0  0  1  0  0  0  0  0  0  0  0
    6.3198    2.4323    4.3751 C   0  0  0  1  0  0  0  0  0  0  0  0
    5.1911    2.6906    4.9942 N   0  0  0  1  0  0  0  0  0  0  0  0
    4.2012    2.2478    4.1613 N   0  0  0  1  0  0  0  0  0  0  0  0
    2.8085    2.3334    4.4464 C   0  0  0  1  0  0  0  0  0  0  0  0
    2.1671    1.2853    5.0791 C   0  0  0  1  0  0  0  0  0  0  0  0
    0.8127    1.3709    5.3614 C   0  0  0  1  0  0  0  0  0  0  0  0
    0.1025    2.5019    5.0054 C   0  0  0  1  0  0  0  0  0  0  0  0
    0.7460    3.5530    4.3708 C   0  0  0  1  0  0  0  0  0  0  0  0
    2.0965    3.4678    4.0893 C   0  0  0  1  0  0  0  0  0  0  0  0
   -1.2125    2.4691    5.3270 O   0  0  0  1  0  0  0  0  0  0  0  0
   -1.9876    3.6437    5.0408 C   0  0  0  1  0  0  0  0  0  0  0  0
    4.2013    0.2041   -0.0014 N   0  0  0  1  0  0  0  0  0  0  0  0
    4.7002   -0.2755   -1.2929 C   0  0  0  1  0  0  0  0  0  0  0  0
    3.5869   -0.2650   -2.3579 C   0  0  0  1  0  0  0  0  0  0  0  0
    3.8689   -1.4503   -3.2678 C   0  0  0  1  0  0  0  0  0  0  0  0
    5.0283   -2.2537   -2.6558 C   0  0  0  1  0  0  0  0  0  0  0  0
    5.0792   -1.7523   -1.2232 C   0  0  0  1  0  0  0  0  0  0  0  0
    6.3000   -1.9731   -3.3623 N   0  0  0  1  0  0  0  0  0  0  0  0
    7.8739    1.3382    2.0024 H   0  0  0  1  0  0  0  0  0  0  0  0
    7.2601    2.6524    4.7613 H   0  0  0  1  0  0  0  0  0  0  0  0
    2.7006    0.4326    5.3433 H   0  0  0  1  0  0  0  0  0  0  0  0
    0.3309    0.5839    5.8411 H   0  0  0  1  0  0  0  0  0  0  0  0
    0.2125    4.4057    4.1066 H   0  0  0  1  0  0  0  0  0  0  0  0
    2.5783    4.2548    3.6096 H   0  0  0  1  0  0  0  0  0  0  0  0
   -1.3493    4.5025    5.0446 H   0  0  0  1  0  0  0  0  0  0  0  0
   -2.7465    3.7604    5.7860 H   0  0  0  1  0  0  0  0  0  0  0  0
   -2.4444    3.5435    4.0784 H   0  0  0  1  0  0  0  0  0  0  0  0
    3.2324    0.1076    0.1100 H   0  0  0  1  0  0  0  0  0  0  0  0
    5.5328    0.3230   -1.5987 H   0  0  0  1  0  0  0  0  0  0  0  0
    2.6282   -0.3714   -1.8948 H   0  0  0  1  0  0  0  0  0  0  0  0
    3.6146    0.6474   -2.9161 H   0  0  0  1  0  0  0  0  0  0  0  0
    4.1426   -1.1029   -4.2421 H   0  0  0  1  0  0  0  0  0  0  0  0
    2.9980   -2.0676   -3.3402 H   0  0  0  1  0  0  0  0  0  0  0  0
    4.8261   -3.3039   -2.6878 H   0  0  0  1  0  0  0  0  0  0  0  0
    4.3815   -2.2887   -0.6146 H   0  0  0  1  0  0  0  0  0  0  0  0
    6.0646   -1.8666   -0.8222 H   0  0  0  1  0  0  0  0  0  0  0  0
    6.4876   -1.0118   -3.3289 H   0  0  0  1  0  0  0  0  0  0  0  0
    6.2242   -2.2587   -4.2967 H   0  0  0  1  0  0  0  0  0  0  0  0
  1  2  4  0  0  0  0
  1  6  4  0  0  0  0
  1 18  1  0  0  0  0
  2  3  4  0  0  0  0
  3  4  4  0  0  0  0
  3 25  1  0  0  0  0
  4  5  4  0  0  0  0
  4  7  4  0  0  0  0
  5  6  4  0  0  0  0
  5  9  4  0  0  0  0
  7  8  4  0  0  0  0
  7 26  1  0  0  0  0
  8  9  4  0  0  0  0
  9 10  1  0  0  0  0
 10 11  4  0  0  0  0
 10 15  4  0  0  0  0
 11 12  4  0  0  0  0
 11 27  1  0  0  0  0
 12 13  4  0  0  0  0
 12 28  1  0  0  0  0
 13 14  4  0  0  0  0
 13 16  1  0  0  0  0
 14 15  4  0  0  0  0
 14 29  1  0  0  0  0
 15 30  1  0  0  0  0
 16 17  1  0  0  0  0
 17 31  1  0  0  0  0
 17 32  1  0  0  0  0
 17 33  1  0  0  0  0
 18 19  1  0  0  0  0
 18 34  1  0  0  0  0
 19 20  1  0  0  0  0
 19 23  1  0  0  0  0
 19 35  1  0  0  0  0
 20 21  1  0  0  0  0
 20 36  1  0  0  0  0
 20 37  1  0  0  0  0
 21 22  1  0  0  0  0
 21 38  1  0  0  0  0
 21 39  1  0  0  0  0
 22 23  1  0  0  0  0
 22 24  1  0  0  0  0
 22 40  1  0  0  0  0
 23 41  1  0  0  0  0
 23 42  1  0  0  0  0
 24 43  1  0  0  0  0
 24 44  1  0  0  0  0
M  END
> <ConfClashScore>
0 

> <ConfOneFourInteractionScore>
-0.984337 

> <ConfScore>
-0.00420765 

> <ConfScorePBest>
0.0026336 

> <ConfTolerance>
0.414621 

$$$$
c22.sdf
 OpenBabel04162418103D

 44 47  0  0  0  0  0  0  0  0999 V2000
    4.8964   -0.0582    1.2457 C   0  0  0  1  0  0  0  0  0  0  0  0
    4.3338    0.3789    2.3769 N   0  0  0  1  0  0  0  0  0  0  0  0
    5.0636    0.3261    3.5091 C   0  0  0  1  0  0  0  0  0  0  0  0
    6.3926   -0.1850    3.4421 C   0  0  0  1  0  0  0  0  0  0  0  0
    6.8167   -0.5900    2.1825 C   0  0  0  1  0  0  0  0  0  0  0  0
    6.1049   -0.5557    1.0309 N   0  0  0  1  0  0  0  0  0  0  0  0
    7.5054   -0.4236    4.2738 C   0  0  0  1  0  0  0  0  0  0  0  0
    8.5149   -0.9307    3.6046 N   0  0  0  1  0  0  0  0  0  0  0  0
    8.0878   -1.0333    2.3097 N   0  0  0  1  0  0  0  0  0  0  0  0
    8.8767   -1.5397    1.2377 C   0  0  0  1  0  0  0  0  0  0  0  0
    9.1623   -0.7313    0.1537 C   0  0  0  1  0  0  0  0  0  0  0  0
   10.0096   -1.1852   -0.8450 C   0  0  0  1  0  0  0  0  0  0  0  0
   10.5647   -2.4481   -0.7596 C   0  0  0  1  0  0  0  0  0  0  0  0
   10.2782   -3.2588    0.3277 C   0  0  0  1  0  0  0  0  0  0  0  0
    9.4333   -2.8063    1.3236 C   0  0  0  1  0  0  0  0  0  0  0  0
   11.3708   -2.7833   -1.7948 O   0  0  0  1  0  0  0  0  0  0  0  0
   12.1929   -3.9500   -1.6352 C   0  0  0  1  0  0  0  0  0  0  0  0
    4.1125    0.0194    0.1553 N   0  0  0  1  0  0  0  0  0  0  0  0
    4.5728   -0.2792   -1.2063 C   0  0  0  1  0  0  0  0  0  0  0  0
    3.3839   -0.3619   -2.1831 C   0  0  0  1  0  0  0  0  0  0  0  0
    3.8336   -1.2931   -3.3226 C   0  0  0  1  0  0  0  0  0  0  0  0
    5.0649   -2.0818   -2.7941 C   0  0  0  1  0  0  0  0  0  0  0  0
    5.2099   -1.7082   -1.2803 C   0  0  0  1  0  0  0  0  0  0  0  0
    6.2938   -1.6850   -3.5444 N   0  0  0  1  0  0  0  0  0  0  0  0
    4.6652    0.6516    4.4130 H   0  0  0  1  0  0  0  0  0  0  0  0
    7.5245   -0.2223    5.2939 H   0  0  0  1  0  0  0  0  0  0  0  0
    8.7415    0.2175    0.0873 H   0  0  0  1  0  0  0  0  0  0  0  0
   10.2277   -0.5753   -1.6588 H   0  0  0  1  0  0  0  0  0  0  0  0
   10.6990   -4.2075    0.3941 H   0  0  0  1  0  0  0  0  0  0  0  0
    9.2152   -3.4161    2.1374 H   0  0  0  1  0  0  0  0  0  0  0  0
   12.4238   -4.3585   -2.5968 H   0  0  0  1  0  0  0  0  0  0  0  0
   11.6676   -4.6795   -1.0549 H   0  0  0  1  0  0  0  0  0  0  0  0
   13.0998   -3.6813   -1.1350 H   0  0  0  1  0  0  0  0  0  0  0  0
    3.1789    0.2914    0.2771 H   0  0  0  1  0  0  0  0  0  0  0  0
    5.2725    0.4676   -1.5186 H   0  0  0  1  0  0  0  0  0  0  0  0
    2.5252   -0.7668   -1.6895 H   0  0  0  1  0  0  0  0  0  0  0  0
    3.1504    0.6091   -2.5671 H   0  0  0  1  0  0  0  0  0  0  0  0
    3.0451   -1.9693   -3.5794 H   0  0  0  1  0  0  0  0  0  0  0  0
    4.1055   -0.7183   -4.1831 H   0  0  0  1  0  0  0  0  0  0  0  0
    4.9047   -3.1342   -2.9020 H   0  0  0  1  0  0  0  0  0  0  0  0
    6.2386   -1.6859   -0.9869 H   0  0  0  1  0  0  0  0  0  0  0  0
    4.6768   -2.3991   -0.6612 H   0  0  0  1  0  0  0  0  0  0  0  0
    6.2018   -1.9463   -4.4844 H   0  0  0  1  0  0  0  0  0  0  0  0
    7.0731   -2.1343   -3.1554 H   0  0  0  1  0  0  0  0  0  0  0  0
  1  2  4  0  0  0  0
  1  6  4  0  0  0  0
  1 18  1  0  0  0  0
  2  3  4  0  0  0  0
  3  4  4  0  0  0  0
  3 25  1  0  0  0  0
  4  5  4  0  0  0  0
  4  7  4  0  0  0  0
  5  6  4  0  0  0  0
  5  9  4  0  0  0  0
  7  8  4  0  0  0  0
  7 26  1  0  0  0  0
  8  9  4  0  0  0  0
  9 10  1  0  0  0  0
 10 11  4  0  0  0  0
 10 15  4  0  0  0  0
 11 12  4  0  0  0  0
 11 27  1  0  0  0  0
 12 13  4  0  0  0  0
 12 28  1  0  0  0  0
 13 14  4  0  0  0  0
 13 16  1  0  0  0  0
 14 15  4  0  0  0  0
 14 29  1  0  0  0  0
 15 30  1  0  0  0  0
 16 17  1  0  0  0  0
 17 31  1  0  0  0  0
 17 32  1  0  0  0  0
 17 33  1  0  0  0  0
 18 19  1  0  0  0  0
 18 34  1  0  0  0  0
 19 20  1  0  0  0  0
 19 23  1  0  0  0  0
 19 35  1  0  0  0  0
 20 21  1  0  0  0  0
 20 36  1  0  0  0  0
 20 37  1  0  0  0  0
 21 22  1  0  0  0  0
 21 38  1  0  0  0  0
 21 39  1  0  0  0  0
 22 23  1  0  0  0  0
 22 24  1  0  0  0  0
 22 40  1  0  0  0  0
 23 41  1  0  0  0  0
 23 42  1  0  0  0  0
 24 43  1  0  0  0  0
 24 44  1  0  0  0  0
M  END
> <ConfClashScore>
0 

> <ConfOneFourInteractionScore>
-0.985399 

> <ConfScore>
-0.00338073 

> <ConfScorePBest>
0.00262028 

> <ConfTolerance>
0.294752 

$$$$
c22.sdf
 OpenBabel04162418103D

 44 47  0  0  0  0  0  0  0  0999 V2000
    5.0362    0.3733    1.1350 C   0  0  0  1  0  0  0  0  0  0  0  0
    6.3296    0.3789    0.7969 N   0  0  0  1  0  0  0  0  0  0  0  0
    7.2330    0.6756    1.7525 C   0  0  0  1  0  0  0  0  0  0  0  0
    6.7664    0.9612    3.0688 C   0  0  0  1  0  0  0  0  0  0  0  0
    5.3890    0.9048    3.2424 C   0  0  0  1  0  0  0  0  0  0  0  0
    4.4583    0.6172    2.3015 N   0  0  0  1  0  0  0  0  0  0  0  0
    7.2617    1.2912    4.3465 C   0  0  0  1  0  0  0  0  0  0  0  0
    6.2945    1.4327    5.2232 N   0  0  0  1  0  0  0  0  0  0  0  0
    5.1352    1.1931    4.5388 N   0  0  0  1  0  0  0  0  0  0  0  0
    3.8424    1.2404    5.1109 C   0  0  0  1  0  0  0  0  0  0  0  0
    3.2084    2.4560    5.2858 C   0  0  0  1  0  0  0  0  0  0  0  0
    1.9393    2.5019    5.8415 C   0  0  0  1  0  0  0  0  0  0  0  0
    1.3102    1.3327    6.2257 C   0  0  0  1  0  0  0  0  0  0  0  0
    1.9463    0.1137    6.0502 C   0  0  0  1  0  0  0  0  0  0  0  0
    3.2117    0.0677    5.4961 C   0  0  0  1  0  0  0  0  0  0  0  0
    0.0775    1.5025    6.7601 O   0  0  0  1  0  0  0  0  0  0  0  0
   -0.6645    0.3173    7.0878 C   0  0  0  1  0  0  0  0  0  0  0  0
    4.1815    0.0702    0.1245 N   0  0  0  1  0  0  0  0  0  0  0  0
    4.6089   -0.2728   -1.2259 C   0  0  0  1  0  0  0  0  0  0  0  0
    3.4184   -0.3293   -2.1893 C   0  0  0  1  0  0  0  0  0  0  0  0
    3.9088   -1.1910   -3.3562 C   0  0  0  1  0  0  0  0  0  0  0  0
    5.0119   -2.0828   -2.7708 C   0  0  0  1  0  0  0  0  0  0  0  0
    5.1368   -1.6964   -1.2932 C   0  0  0  1  0  0  0  0  0  0  0  0
    6.2923   -1.8423   -3.4735 N   0  0  0  1  0  0  0  0  0  0  0  0
    8.2496    0.6957    1.5338 H   0  0  0  1  0  0  0  0  0  0  0  0
    8.2710    1.4085    4.5681 H   0  0  0  1  0  0  0  0  0  0  0  0
    3.6833    3.3361    5.0005 H   0  0  0  1  0  0  0  0  0  0  0  0
    1.4605    3.4162    5.9694 H   0  0  0  1  0  0  0  0  0  0  0  0
    1.4714   -0.7665    6.3355 H   0  0  0  1  0  0  0  0  0  0  0  0
    3.6905   -0.8466    5.3682 H   0  0  0  1  0  0  0  0  0  0  0  0
   -0.1938   -0.1835    7.9079 H   0  0  0  1  0  0  0  0  0  0  0  0
   -0.6889   -0.3339    6.2391 H   0  0  0  1  0  0  0  0  0  0  0  0
   -1.6636    0.5863    7.3604 H   0  0  0  1  0  0  0  0  0  0  0  0
    3.2201    0.0828    0.3146 H   0  0  0  1  0  0  0  0  0  0  0  0
    5.3441    0.4305   -1.5572 H   0  0  0  1  0  0  0  0  0  0  0  0
    2.5709   -0.7801   -1.7167 H   0  0  0  1  0  0  0  0  0  0  0  0
    3.1588    0.6522   -2.5273 H   0  0  0  1  0  0  0  0  0  0  0  0
    4.3017   -0.5742   -4.1373 H   0  0  0  1  0  0  0  0  0  0  0  0
    3.1094   -1.7891   -3.7413 H   0  0  0  1  0  0  0  0  0  0  0  0
    4.7423   -3.1142   -2.8626 H   0  0  0  1  0  0  0  0  0  0  0  0
    4.5479   -2.3472   -0.6812 H   0  0  0  1  0  0  0  0  0  0  0  0
    6.1582   -1.7362   -0.9770 H   0  0  0  1  0  0  0  0  0  0  0  0
    6.1859   -2.0457   -4.4262 H   0  0  0  1  0  0  0  0  0  0  0  0
    6.9872   -2.4187   -3.0922 H   0  0  0  1  0  0  0  0  0  0  0  0
  1  2  4  0  0  0  0
  1  6  4  0  0  0  0
  1 18  1  0  0  0  0
  2  3  4  0  0  0  0
  3  4  4  0  0  0  0
  3 25  1  0  0  0  0
  4  5  4  0  0  0  0
  4  7  4  0  0  0  0
  5  6  4  0  0  0  0
  5  9  4  0  0  0  0
  7  8  4  0  0  0  0
  7 26  1  0  0  0  0
  8  9  4  0  0  0  0
  9 10  1  0  0  0  0
 10 11  4  0  0  0  0
 10 15  4  0  0  0  0
 11 12  4  0  0  0  0
 11 27  1  0  0  0  0
 12 13  4  0  0  0  0
 12 28  1  0  0  0  0
 13 14  4  0  0  0  0
 13 16  1  0  0  0  0
 14 15  4  0  0  0  0
 14 29  1  0  0  0  0
 15 30  1  0  0  0  0
 16 17  1  0  0  0  0
 17 31  1  0  0  0  0
 17 32  1  0  0  0  0
 17 33  1  0  0  0  0
 18 19  1  0  0  0  0
 18 34  1  0  0  0  0
 19 20  1  0  0  0  0
 19 23  1  0  0  0  0
 19 35  1  0  0  0  0
 20 21  1  0  0  0  0
 20 36  1  0  0  0  0
 20 37  1  0  0  0  0
 21 22  1  0  0  0  0
 21 38  1  0  0  0  0
 21 39  1  0  0  0  0
 22 23  1  0  0  0  0
 22 24  1  0  0  0  0
 22 40  1  0  0  0  0
 23 41  1  0  0  0  0
 23 42  1  0  0  0  0
 24 43  1  0  0  0  0
 24 44  1  0  0  0  0
M  END
> <ConfClashScore>
0 

> <ConfOneFourInteractionScore>
-0.984337 

> <ConfScore>
-0.00212791 

> <ConfScorePBest>
0.00260695 

> <ConfTolerance>
0.385639 

$$$$
c22.sdf
 OpenBabel04162418103D

 44 47  0  0  0  0  0  0  0  0999 V2000
    2.1384   -0.6148    0.1506 C   0  0  0  1  0  0  0  0  0  0  0  0
    1.3119   -1.4562    0.7800 N   0  0  0  1  0  0  0  0  0  0  0  0
    0.1185   -0.9831    1.1914 C   0  0  0  1  0  0  0  0  0  0  0  0
   -0.2022    0.3812    0.9309 C   0  0  0  1  0  0  0  0  0  0  0  0
    0.7733    1.1093    0.2610 C   0  0  0  1  0  0  0  0  0  0  0  0
    1.9819    0.6638   -0.1574 N   0  0  0  1  0  0  0  0  0  0  0  0
   -1.2502    1.3040    1.1229 C   0  0  0  1  0  0  0  0  0  0  0  0
   -0.9564    2.4854    0.6307 N   0  0  0  1  0  0  0  0  0  0  0  0
    0.2966    2.3640    0.0970 N   0  0  0  1  0  0  0  0  0  0  0  0
    1.0005    3.4116   -0.5417 C   0  0  0  1  0  0  0  0  0  0  0  0
    0.5432    3.9195   -1.7429 C   0  0  0  1  0  0  0  0  0  0  0  0
    1.2301    4.9497   -2.3660 C   0  0  0  1  0  0  0  0  0  0  0  0
    2.3752    5.4654   -1.7889 C   0  0  0  1  0  0  0  0  0  0  0  0
    2.8338    4.9558   -0.5841 C   0  0  0  1  0  0  0  0  0  0  0  0
    2.1490    3.9286    0.0374 C   0  0  0  1  0  0  0  0  0  0  0  0
    2.9555    6.4517   -2.4822 O   0  0  0  1  0  0  0  0  0  0  0  0
    4.2803    6.9704   -2.1233 C   0  0  0  1  0  0  0  0  0  0  0  0
    3.3167   -1.1525   -0.2306 N   0  0  0  1  0  0  0  0  0  0  0  0
    4.3014   -0.4558   -1.0637 C   0  0  0  1  0  0  0  0  0  0  0  0
    3.7235   -0.1054   -2.4410 C   0  0  0  1  0  0  0  0  0  0  0  0
    3.7607   -1.4143   -3.2201 C   0  0  0  1  0  0  0  0  0  0  0  0
    4.9452   -2.1978   -2.6424 C   0  0  0  1  0  0  0  0  0  0  0  0
    5.4612   -1.3779   -1.4493 C   0  0  0  1  0  0  0  0  0  0  0  0
    6.0181   -2.3465   -3.6707 N   0  0  0  1  0  0  0  0  0  0  0  0
   -0.5544   -1.6008    1.6886 H   0  0  0  1  0  0  0  0  0  0  0  0
   -2.1475    1.0768    1.5970 H   0  0  0  1  0  0  0  0  0  0  0  0
   -0.3162    3.5288   -2.1792 H   0  0  0  1  0  0  0  0  0  0  0  0
    0.8837    5.3347   -3.2679 H   0  0  0  1  0  0  0  0  0  0  0  0
    3.6932    5.3465   -0.1477 H   0  0  0  1  0  0  0  0  0  0  0  0
    2.4953    3.5436    0.9393 H   0  0  0  1  0  0  0  0  0  0  0  0
    4.7004    7.4874   -2.9607 H   0  0  0  1  0  0  0  0  0  0  0  0
    4.9193    6.1571   -1.8494 H   0  0  0  1  0  0  0  0  0  0  0  0
    4.1873    7.6451   -1.2980 H   0  0  0  1  0  0  0  0  0  0  0  0
    3.5262   -2.0623    0.0672 H   0  0  0  1  0  0  0  0  0  0  0  0
    4.6489    0.4170   -0.5515 H   0  0  0  1  0  0  0  0  0  0  0  0
    4.3230    0.6380   -2.9236 H   0  0  0  1  0  0  0  0  0  0  0  0
    2.7187    0.2505   -2.3491 H   0  0  0  1  0  0  0  0  0  0  0  0
    2.8495   -1.9579   -3.0823 H   0  0  0  1  0  0  0  0  0  0  0  0
    3.9097   -1.2253   -4.2626 H   0  0  0  1  0  0  0  0  0  0  0  0
    4.6260   -3.1657   -2.3167 H   0  0  0  1  0  0  0  0  0  0  0  0
    5.7154   -2.0219   -0.6335 H   0  0  0  1  0  0  0  0  0  0  0  0
    6.3188   -0.8037   -1.7317 H   0  0  0  1  0  0  0  0  0  0  0  0
    6.8385   -2.6699   -3.2431 H   0  0  0  1  0  0  0  0  0  0  0  0
    6.1897   -1.4782   -4.0914 H   0  0  0  1  0  0  0  0  0  0  0  0
  1  2  4  0  0  0  0
  1  6  4  0  0  0  0
  1 18  1  0  0  0  0
  2  3  4  0  0  0  0
  3  4  4  0  0  0  0
  3 25  1  0  0  0  0
  4  5  4  0  0  0  0
  4  7  4  0  0  0  0
  5  6  4  0  0  0  0
  5  9  4  0  0  0  0
  7  8  4  0  0  0  0
  7 26  1  0  0  0  0
  8  9  4  0  0  0  0
  9 10  1  0  0  0  0
 10 11  4  0  0  0  0
 10 15  4  0  0  0  0
 11 12  4  0  0  0  0
 11 27  1  0  0  0  0
 12 13  4  0  0  0  0
 12 28  1  0  0  0  0
 13 14  4  0  0  0  0
 13 16  1  0  0  0  0
 14 15  4  0  0  0  0
 14 29  1  0  0  0  0
 15 30  1  0  0  0  0
 16 17  1  0  0  0  0
 17 31  1  0  0  0  0
 17 32  1  0  0  0  0
 17 33  1  0  0  0  0
 18 19  1  0  0  0  0
 18 34  1  0  0  0  0
 19 20  1  0  0  0  0
 19 23  1  0  0  0  0
 19 35  1  0  0  0  0
 20 21  1  0  0  0  0
 20 36  1  0  0  0  0
 20 37  1  0  0  0  0
 21 22  1  0  0  0  0
 21 38  1  0  0  0  0
 21 39  1  0  0  0  0
 22 23  1  0  0  0  0
 22 24  1  0  0  0  0
 22 40  1  0  0  0  0
 23 41  1  0  0  0  0
 23 42  1  0  0  0  0
 24 43  1  0  0  0  0
 24 44  1  0  0  0  0
M  END
> <ConfClashScore>
0 

> <ConfOneFourInteractionScore>
-0.985399 

> <ConfScore>
-0.00200546 

> <ConfScorePBest>
0.00259362 

> <ConfTolerance>
0.328257 

$$$$
c22.sdf
 OpenBabel04162418103D

 44 47  0  0  0  0  0  0  0  0999 V2000
    3.4441   -0.5330    0.9377 C   0  0  0  1  0  0  0  0  0  0  0  0
    3.3571   -0.0254    2.1714 N   0  0  0  1  0  0  0  0  0  0  0  0
    2.5932   -0.6759    3.0718 C   0  0  0  1  0  0  0  0  0  0  0  0
    1.9252   -1.8681    2.6667 C   0  0  0  1  0  0  0  0  0  0  0  0
    2.1321   -2.2530    1.3477 C   0  0  0  1  0  0  0  0  0  0  0  0
    2.8866   -1.6172    0.4201 N   0  0  0  1  0  0  0  0  0  0  0  0
    1.0780   -2.8666    3.1883 C   0  0  0  1  0  0  0  0  0  0  0  0
    0.7819   -3.7749    2.2875 N   0  0  0  1  0  0  0  0  0  0  0  0
    1.4351   -3.3944    1.1481 N   0  0  0  1  0  0  0  0  0  0  0  0
    1.3881   -4.1008   -0.0764 C   0  0  0  1  0  0  0  0  0  0  0  0
    0.1688   -4.4365   -0.6341 C   0  0  0  1  0  0  0  0  0  0  0  0
    0.1227   -5.1240   -1.8368 C   0  0  0  1  0  0  0  0  0  0  0  0
    1.2958   -5.4787   -2.4757 C   0  0  0  1  0  0  0  0  0  0  0  0
    2.5187   -5.1419   -1.9163 C   0  0  0  1  0  0  0  0  0  0  0  0
    2.5648   -4.4564   -0.7171 C   0  0  0  1  0  0  0  0  0  0  0  0
    1.2507   -6.1550   -3.6481 O   0  0  0  1  0  0  0  0  0  0  0  0
   -0.0348   -6.3037   -4.2708 C   0  0  0  1  0  0  0  0  0  0  0  0
    4.2189    0.1668    0.0895 N   0  0  0  1  0  0  0  0  0  0  0  0
    4.6193   -0.2391   -1.2572 C   0  0  0  1  0  0  0  0  0  0  0  0
    3.4122   -0.3714   -2.1757 C   0  0  0  1  0  0  0  0  0  0  0  0
    3.8201   -1.3246   -3.2907 C   0  0  0  1  0  0  0  0  0  0  0  0
    5.0375   -2.0897   -2.7674 C   0  0  0  1  0  0  0  0  0  0  0  0
    5.2024   -1.7016   -1.2628 C   0  0  0  1  0  0  0  0  0  0  0  0
    6.2704   -1.6967   -3.5431 N   0  0  0  1  0  0  0  0  0  0  0  0
    2.4933   -0.3151    4.0421 H   0  0  0  1  0  0  0  0  0  0  0  0
    0.7295   -2.8820    4.1681 H   0  0  0  1  0  0  0  0  0  0  0  0
   -0.7139   -4.1732   -0.1513 H   0  0  0  1  0  0  0  0  0  0  0  0
   -0.7948   -5.3731   -2.2584 H   0  0  0  1  0  0  0  0  0  0  0  0
    3.4014   -5.4052   -2.3990 H   0  0  0  1  0  0  0  0  0  0  0  0
    3.4823   -4.2073   -0.2954 H   0  0  0  1  0  0  0  0  0  0  0  0
    0.0436   -6.9823   -5.0943 H   0  0  0  1  0  0  0  0  0  0  0  0
   -0.3720   -5.3517   -4.6242 H   0  0  0  1  0  0  0  0  0  0  0  0
   -0.7339   -6.6880   -3.5577 H   0  0  0  1  0  0  0  0  0  0  0  0
    4.5475    1.0344    0.4052 H   0  0  0  1  0  0  0  0  0  0  0  0
    5.3276    0.4624   -1.6459 H   0  0  0  1  0  0  0  0  0  0  0  0
    2.5787   -0.7695   -1.6356 H   0  0  0  1  0  0  0  0  0  0  0  0
    3.1511    0.5832   -2.5826 H   0  0  0  1  0  0  0  0  0  0  0  0
    4.0768   -0.7763   -4.1730 H   0  0  0  1  0  0  0  0  0  0  0  0
    3.0218   -2.0022   -3.5109 H   0  0  0  1  0  0  0  0  0  0  0  0
    4.8778   -3.1436   -2.8604 H   0  0  0  1  0  0  0  0  0  0  0  0
    6.2301   -1.7148   -0.9652 H   0  0  0  1  0  0  0  0  0  0  0  0
    4.6380   -2.3509   -0.6266 H   0  0  0  1  0  0  0  0  0  0  0  0
    6.1396   -1.9033   -4.4920 H   0  0  0  1  0  0  0  0  0  0  0  0
    7.0425   -2.1958   -3.2037 H   0  0  0  1  0  0  0  0  0  0  0  0
  1  2  4  0  0  0  0
  1  6  4  0  0  0  0
  1 18  1  0  0  0  0
  2  3  4  0  0  0  0
  3  4  4  0  0  0  0
  3 25  1  0  0  0  0
  4  5  4  0  0  0  0
  4  7  4  0  0  0  0
  5  6  4  0  0  0  0
  5  9  4  0  0  0  0
  7  8  4  0  0  0  0
  7 26  1  0  0  0  0
  8  9  4  0  0  0  0
  9 10  1  0  0  0  0
 10 11  4  0  0  0  0
 10 15  4  0  0  0  0
 11 12  4  0  0  0  0
 11 27  1  0  0  0  0
 12 13  4  0  0  0  0
 12 28  1  0  0  0  0
 13 14  4  0  0  0  0
 13 16  1  0  0  0  0
 14 15  4  0  0  0  0
 14 29  1  0  0  0  0
 15 30  1  0  0  0  0
 16 17  1  0  0  0  0
 17 31  1  0  0  0  0
 17 32  1  0  0  0  0
 17 33  1  0  0  0  0
 18 19  1  0  0  0  0
 18 34  1  0  0  0  0
 19 20  1  0  0  0  0
 19 23  1  0  0  0  0
 19 35  1  0  0  0  0
 20 21  1  0  0  0  0
 20 36  1  0  0  0  0
 20 37  1  0  0  0  0
 21 22  1  0  0  0  0
 21 38  1  0  0  0  0
 21 39  1  0  0  0  0
 22 23  1  0  0  0  0
 22 24  1  0  0  0  0
 22 40  1  0  0  0  0
 23 41  1  0  0  0  0
 23 42  1  0  0  0  0
 24 43  1  0  0  0  0
 24 44  1  0  0  0  0
M  END
> <ConfClashScore>
0 

> <ConfOneFourInteractionScore>
-0.980204 

> <ConfScore>
-0.000674509 

> <ConfScorePBest>
0.00258029 

> <ConfTolerance>
0.253731 

$$$$
c22.sdf
 OpenBabel04162418103D

 44 47  0  0  0  0  0  0  0  0999 V2000
    3.5965   -1.7649    0.9477 C   0  0  0  1  0  0  0  0  0  0  0  0
    2.5529   -2.3231    1.5695 N   0  0  0  1  0  0  0  0  0  0  0  0
    2.7698   -2.9238    2.7566 C   0  0  0  1  0  0  0  0  0  0  0  0
    4.0922   -2.9284    3.2886 C   0  0  0  1  0  0  0  0  0  0  0  0
    5.0541   -2.2967    2.5099 C   0  0  0  1  0  0  0  0  0  0  0  0
    4.8677   -1.6923    1.3124 N   0  0  0  1  0  0  0  0  0  0  0  0
    4.8037   -3.3748    4.4205 C   0  0  0  1  0  0  0  0  0  0  0  0
    6.0768   -3.0608    4.3519 N   0  0  0  1  0  0  0  0  0  0  0  0
    6.2311   -2.3931    3.1686 N   0  0  0  1  0  0  0  0  0  0  0  0
    7.5199   -1.9154    2.8014 C   0  0  0  1  0  0  0  0  0  0  0  0
    7.8306   -1.7201    1.4689 C   0  0  0  1  0  0  0  0  0  0  0  0
    9.0845   -1.2496    1.1115 C   0  0  0  1  0  0  0  0  0  0  0  0
   10.0258   -0.9807    2.0871 C   0  0  0  1  0  0  0  0  0  0  0  0
    9.7140   -1.1765    3.4236 C   0  0  0  1  0  0  0  0  0  0  0  0
    8.4638   -1.6457    3.7801 C   0  0  0  1  0  0  0  0  0  0  0  0
   11.2082   -0.5340    1.6210 O   0  0  0  1  0  0  0  0  0  0  0  0
   12.1121   -0.0270    2.6302 C   0  0  0  1  0  0  0  0  0  0  0  0
    3.3098   -1.1844   -0.2371 N   0  0  0  1  0  0  0  0  0  0  0  0
    4.2961   -0.4702   -1.0592 C   0  0  0  1  0  0  0  0  0  0  0  0
    3.7198   -0.1001   -2.4321 C   0  0  0  1  0  0  0  0  0  0  0  0
    3.7625   -1.3965   -3.2313 C   0  0  0  1  0  0  0  0  0  0  0  0
    4.9483   -2.1853   -2.6637 C   0  0  0  1  0  0  0  0  0  0  0  0
    5.4595   -1.3826   -1.4570 C   0  0  0  1  0  0  0  0  0  0  0  0
    6.0086   -2.3130   -3.6778 N   0  0  0  1  0  0  0  0  0  0  0  0
    1.9882   -3.3746    3.2739 H   0  0  0  1  0  0  0  0  0  0  0  0
    4.3725   -3.8905    5.2140 H   0  0  0  1  0  0  0  0  0  0  0  0
    7.1237   -1.9263    0.7345 H   0  0  0  1  0  0  0  0  0  0  0  0
    9.3169   -1.0988    0.1091 H   0  0  0  1  0  0  0  0  0  0  0  0
   10.4209   -0.9704    4.1580 H   0  0  0  1  0  0  0  0  0  0  0  0
    8.2313   -1.7965    4.7825 H   0  0  0  1  0  0  0  0  0  0  0  0
   12.7431    0.7226    2.2005 H   0  0  0  1  0  0  0  0  0  0  0  0
   12.7145   -0.8284    3.0041 H   0  0  0  1  0  0  0  0  0  0  0  0
   11.5472    0.3996    3.4326 H   0  0  0  1  0  0  0  0  0  0  0  0
    2.3893   -1.2429   -0.5683 H   0  0  0  1  0  0  0  0  0  0  0  0
    4.6400    0.3956   -0.5328 H   0  0  0  1  0  0  0  0  0  0  0  0
    4.3179    0.6526   -2.9018 H   0  0  0  1  0  0  0  0  0  0  0  0
    2.7137    0.2513   -2.3366 H   0  0  0  1  0  0  0  0  0  0  0  0
    3.9129   -1.1908   -4.2705 H   0  0  0  1  0  0  0  0  0  0  0  0
    2.8526   -1.9450   -3.1038 H   0  0  0  1  0  0  0  0  0  0  0  0
    4.6314   -3.1592   -2.3537 H   0  0  0  1  0  0  0  0  0  0  0  0
    6.3159   -0.8014   -1.7287 H   0  0  0  1  0  0  0  0  0  0  0  0
    5.7142   -2.0385   -0.6509 H   0  0  0  1  0  0  0  0  0  0  0  0
    6.7784   -2.7787   -3.2894 H   0  0  0  1  0  0  0  0  0  0  0  0
    6.2834   -1.4211   -3.9768 H   0  0  0  1  0  0  0  0  0  0  0  0
  1  2  4  0  0  0  0
  1  6  4  0  0  0  0
  1 18  1  0  0  0  0
  2  3  4  0  0  0  0
  3  4  4  0  0  0  0
  3 25  1  0  0  0  0
  4  5  4  0  0  0  0
  4  7  4  0  0  0  0
  5  6  4  0  0  0  0
  5  9  4  0  0  0  0
  7  8  4  0  0  0  0
  7 26  1  0  0  0  0
  8  9  4  0  0  0  0
  9 10  1  0  0  0  0
 10 11  4  0  0  0  0
 10 15  4  0  0  0  0
 11 12  4  0  0  0  0
 11 27  1  0  0  0  0
 12 13  4  0  0  0  0
 12 28  1  0  0  0  0
 13 14  4  0  0  0  0
 13 16  1  0  0  0  0
 14 15  4  0  0  0  0
 14 29  1  0  0  0  0
 15 30  1  0  0  0  0
 16 17  1  0  0  0  0
 17 31  1  0  0  0  0
 17 32  1  0  0  0  0
 17 33  1  0  0  0  0
 18 19  1  0  0  0  0
 18 34  1  0  0  0  0
 19 20  1  0  0  0  0
 19 23  1  0  0  0  0
 19 35  1  0  0  0  0
 20 21  1  0  0  0  0
 20 36  1  0  0  0  0
 20 37  1  0  0  0  0
 21 22  1  0  0  0  0
 21 38  1  0  0  0  0
 21 39  1  0  0  0  0
 22 23  1  0  0  0  0
 22 24  1  0  0  0  0
 22 40  1  0  0  0  0
 23 41  1  0  0  0  0
 23 42  1  0  0  0  0
 24 43  1  0  0  0  0
 24 44  1  0  0  0  0
M  END
> <ConfClashScore>
0 

> <ConfOneFourInteractionScore>
-0.985399 

> <ConfScore>
0.00144646 

> <ConfScorePBest>
0.00256696 

> <ConfTolerance>
0.482463 

$$$$
c22.sdf
 OpenBabel04162418103D

 44 47  0  0  0  0  0  0  0  0999 V2000
    5.0439    0.5244    1.0301 C   0  0  0  1  0  0  0  0  0  0  0  0
    6.3356    0.3849    0.7152 N   0  0  0  1  0  0  0  0  0  0  0  0
    7.2537    0.7096    1.6473 C   0  0  0  1  0  0  0  0  0  0  0  0
    6.8032    1.1772    2.9163 C   0  0  0  1  0  0  0  0  0  0  0  0
    5.4247    1.2550    3.0720 C   0  0  0  1  0  0  0  0  0  0  0  0
    4.4800    0.9433    2.1530 N   0  0  0  1  0  0  0  0  0  0  0  0
    7.3150    1.6044    4.1582 C   0  0  0  1  0  0  0  0  0  0  0  0
    6.3567    1.9221    4.9978 N   0  0  0  1  0  0  0  0  0  0  0  0
    5.1865    1.7053    4.3245 N   0  0  0  1  0  0  0  0  0  0  0  0
    3.8920    1.9242    4.8688 C   0  0  0  1  0  0  0  0  0  0  0  0
    2.8263    2.1924    4.0307 C   0  0  0  1  0  0  0  0  0  0  0  0
    1.5627    2.4006    4.5612 C   0  0  0  1  0  0  0  0  0  0  0  0
    1.3695    2.3452    5.9287 C   0  0  0  1  0  0  0  0  0  0  0  0
    2.4385    2.0762    6.7692 C   0  0  0  1  0  0  0  0  0  0  0  0
    3.6984    1.8686    6.2403 C   0  0  0  1  0  0  0  0  0  0  0  0
    0.1023    2.5686    6.3279 O   0  0  0  1  0  0  0  0  0  0  0  0
   -0.0791    2.6736    7.7592 C   0  0  0  1  0  0  0  0  0  0  0  0
    4.1700    0.1817    0.0402 N   0  0  0  1  0  0  0  0  0  0  0  0
    4.6315   -0.2523   -1.2725 C   0  0  0  1  0  0  0  0  0  0  0  0
    3.4510   -0.3880   -2.2535 C   0  0  0  1  0  0  0  0  0  0  0  0
    3.8827   -1.4339   -3.2965 C   0  0  0  1  0  0  0  0  0  0  0  0
    5.0823   -2.2081   -2.6812 C   0  0  0  1  0  0  0  0  0  0  0  0
    5.2233   -1.7011   -1.2063 C   0  0  0  1  0  0  0  0  0  0  0  0
    6.3108   -1.9252   -3.4356 N   0  0  0  1  0  0  0  0  0  0  0  0
    8.2699    0.6207    1.4448 H   0  0  0  1  0  0  0  0  0  0  0  0
    8.3290    1.6612    4.3823 H   0  0  0  1  0  0  0  0  0  0  0  0
    2.9724    2.2381    3.0020 H   0  0  0  1  0  0  0  0  0  0  0  0
    0.7600    2.5984    3.9303 H   0  0  0  1  0  0  0  0  0  0  0  0
    2.2924    2.0306    7.7979 H   0  0  0  1  0  0  0  0  0  0  0  0
    4.5012    1.6708    6.8712 H   0  0  0  1  0  0  0  0  0  0  0  0
   -0.3400    1.7153    8.1573 H   0  0  0  1  0  0  0  0  0  0  0  0
   -0.8622    3.3719    7.9689 H   0  0  0  1  0  0  0  0  0  0  0  0
    0.8307    3.0112    8.2100 H   0  0  0  1  0  0  0  0  0  0  0  0
    3.2070    0.2285    0.2163 H   0  0  0  1  0  0  0  0  0  0  0  0
    5.3581    0.4405   -1.6427 H   0  0  0  1  0  0  0  0  0  0  0  0
    2.5745   -0.7189   -1.7365 H   0  0  0  1  0  0  0  0  0  0  0  0
    3.2528    0.5502   -2.7283 H   0  0  0  1  0  0  0  0  0  0  0  0
    3.0756   -2.1061   -3.5006 H   0  0  0  1  0  0  0  0  0  0  0  0
    4.1819   -0.9496   -4.2024 H   0  0  0  1  0  0  0  0  0  0  0  0
    4.8897   -3.2606   -2.6941 H   0  0  0  1  0  0  0  0  0  0  0  0
    6.2490   -1.6837   -0.9024 H   0  0  0  1  0  0  0  0  0  0  0  0
    4.6617   -2.3151   -0.5336 H   0  0  0  1  0  0  0  0  0  0  0  0
    6.4173   -0.9562   -3.5359 H   0  0  0  1  0  0  0  0  0  0  0  0
    6.2529   -2.3406   -4.3213 H   0  0  0  1  0  0  0  0  0  0  0  0
  1  2  4  0  0  0  0
  1  6  4  0  0  0  0
  1 18  1  0  0  0  0
  2  3  4  0  0  0  0
  3  4  4  0  0  0  0
  3 25  1  0  0  0  0
  4  5  4  0  0  0  0
  4  7  4  0  0  0  0
  5  6  4  0  0  0  0
  5  9  4  0  0  0  0
  7  8  4  0  0  0  0
  7 26  1  0  0  0  0
  8  9  4  0  0  0  0
  9 10  1  0  0  0  0
 10 11  4  0  0  0  0
 10 15  4  0  0  0  0
 11 12  4  0  0  0  0
 11 27  1  0  0  0  0
 12 13  4  0  0  0  0
 12 28  1  0  0  0  0
 13 14  4  0  0  0  0
 13 16  1  0  0  0  0
 14 15  4  0  0  0  0
 14 29  1  0  0  0  0
 15 30  1  0  0  0  0
 16 17  1  0  0  0  0
 17 31  1  0  0  0  0
 17 32  1  0  0  0  0
 17 33  1  0  0  0  0
 18 19  1  0  0  0  0
 18 34  1  0  0  0  0
 19 20  1  0  0  0  0
 19 23  1  0  0  0  0
 19 35  1  0  0  0  0
 20 21  1  0  0  0  0
 20 36  1  0  0  0  0
 20 37  1  0  0  0  0
 21 22  1  0  0  0  0
 21 38  1  0  0  0  0
 21 39  1  0  0  0  0
 22 23  1  0  0  0  0
 22 24  1  0  0  0  0
 22 40  1  0  0  0  0
 23 41  1  0  0  0  0
 23 42  1  0  0  0  0
 24 43  1  0  0  0  0
 24 44  1  0  0  0  0
M  END
> <ConfClashScore>
0 

> <ConfOneFourInteractionScore>
-0.984337 

> <ConfScore>
0.00162694 

> <ConfScorePBest>
0.00255363 

> <ConfTolerance>
0.406776 

$$$$
c22.sdf
 OpenBabel04162418103D

 44 47  0  0  0  0  0  0  0  0999 V2000
    3.4608   -1.6932    0.9810 C   0  0  0  1  0  0  0  0  0  0  0  0
    4.7272   -1.6082    1.4005 N   0  0  0  1  0  0  0  0  0  0  0  0
    5.0277   -2.1107    2.6148 C   0  0  0  1  0  0  0  0  0  0  0  0
    3.9867   -2.7087    3.3833 C   0  0  0  1  0  0  0  0  0  0  0  0
    2.7305   -2.7149    2.7896 C   0  0  0  1  0  0  0  0  0  0  0  0
    2.3978   -2.2123    1.5769 N   0  0  0  1  0  0  0  0  0  0  0  0
    3.7863   -3.3530    4.6209 C   0  0  0  1  0  0  0  0  0  0  0  0
    2.5352   -3.7164    4.7849 N   0  0  0  1  0  0  0  0  0  0  0  0
    1.8821   -3.3211    3.6505 N   0  0  0  1  0  0  0  0  0  0  0  0
    0.4932   -3.5213    3.4079 C   0  0  0  1  0  0  0  0  0  0  0  0
   -0.1232   -4.6811    3.8381 C   0  0  0  1  0  0  0  0  0  0  0  0
   -1.4763   -4.8735    3.6066 C   0  0  0  1  0  0  0  0  0  0  0  0
   -2.2079   -3.9080    2.9410 C   0  0  0  1  0  0  0  0  0  0  0  0
   -1.5895   -2.7448    2.5097 C   0  0  0  1  0  0  0  0  0  0  0  0
   -0.2403   -2.5528    2.7403 C   0  0  0  1  0  0  0  0  0  0  0  0
   -3.5287   -4.0984    2.7104 O   0  0  0  1  0  0  0  0  0  0  0  0
   -4.1094   -5.3205    3.1917 C   0  0  0  1  0  0  0  0  0  0  0  0
    3.2261   -1.1613   -0.2561 N   0  0  0  1  0  0  0  0  0  0  0  0
    4.2700   -0.4713   -1.0037 C   0  0  0  1  0  0  0  0  0  0  0  0
    3.7684   -0.0555   -2.4273 C   0  0  0  1  0  0  0  0  0  0  0  0
    3.8832   -1.3675   -3.2252 C   0  0  0  1  0  0  0  0  0  0  0  0
    5.0423   -2.2036   -2.5793 C   0  0  0  1  0  0  0  0  0  0  0  0
    5.4333   -1.4144   -1.3340 C   0  0  0  1  0  0  0  0  0  0  0  0
    6.1937   -2.3153   -3.5139 N   0  0  0  1  0  0  0  0  0  0  0  0
    5.9990   -2.0629    2.9833 H   0  0  0  1  0  0  0  0  0  0  0  0
    4.5383   -3.5202    5.3196 H   0  0  0  1  0  0  0  0  0  0  0  0
    0.4280   -5.4094    4.3353 H   0  0  0  1  0  0  0  0  0  0  0  0
   -1.9411   -5.7444    3.9338 H   0  0  0  1  0  0  0  0  0  0  0  0
   -2.1408   -2.0165    2.0124 H   0  0  0  1  0  0  0  0  0  0  0  0
    0.2245   -1.6819    2.4131 H   0  0  0  1  0  0  0  0  0  0  0  0
   -3.9796   -6.0902    2.4598 H   0  0  0  1  0  0  0  0  0  0  0  0
   -5.1537   -5.1723    3.3716 H   0  0  0  1  0  0  0  0  0  0  0  0
   -3.6276   -5.6097    4.1023 H   0  0  0  1  0  0  0  0  0  0  0  0
    2.3330   -1.2460   -0.6506 H   0  0  0  1  0  0  0  0  0  0  0  0
    4.6056    0.3787   -0.4470 H   0  0  0  1  0  0  0  0  0  0  0  0
    2.7556    0.2880   -2.3939 H   0  0  0  1  0  0  0  0  0  0  0  0
    4.3905    0.7069   -2.8476 H   0  0  0  1  0  0  0  0  0  0  0  0
    4.1110   -1.1551   -4.2489 H   0  0  0  1  0  0  0  0  0  0  0  0
    2.9637   -1.9119   -3.1695 H   0  0  0  1  0  0  0  0  0  0  0  0
    4.7007   -3.1825   -2.3149 H   0  0  0  1  0  0  0  0  0  0  0  0
    5.6051   -2.0831   -0.5165 H   0  0  0  1  0  0  0  0  0  0  0  0
    6.3207   -0.8475   -1.5242 H   0  0  0  1  0  0  0  0  0  0  0  0
    6.4628   -1.4206   -3.8098 H   0  0  0  1  0  0  0  0  0  0  0  0
    5.9322   -2.8514   -4.2914 H   0  0  0  1  0  0  0  0  0  0  0  0
  1  2  4  0  0  0  0
  1  6  4  0  0  0  0
  1 18  1  0  0  0  0
  2  3  4  0  0  0  0
  3  4  4  0  0  0  0
  3 25  1  0  0  0  0
  4  5  4  0  0  0  0
  4  7  4  0  0  0  0
  5  6  4  0  0  0  0
  5  9  4  0  0  0  0
  7  8  4  0  0  0  0
  7 26  1  0  0  0  0
  8  9  4  0  0  0  0
  9 10  1  0  0  0  0
 10 11  4  0  0  0  0
 10 15  4  0  0  0  0
 11 12  4  0  0  0  0
 11 27  1  0  0  0  0
 12 13  4  0  0  0  0
 12 28  1  0  0  0  0
 13 14  4  0  0  0  0
 13 16  1  0  0  0  0
 14 15  4  0  0  0  0
 14 29  1  0  0  0  0
 15 30  1  0  0  0  0
 16 17  1  0  0  0  0
 17 31  1  0  0  0  0
 17 32  1  0  0  0  0
 17 33  1  0  0  0  0
 18 19  1  0  0  0  0
 18 34  1  0  0  0  0
 19 20  1  0  0  0  0
 19 23  1  0  0  0  0
 19 35  1  0  0  0  0
 20 21  1  0  0  0  0
 20 36  1  0  0  0  0
 20 37  1  0  0  0  0
 21 22  1  0  0  0  0
 21 38  1  0  0  0  0
 21 39  1  0  0  0  0
 22 23  1  0  0  0  0
 22 24  1  0  0  0  0
 22 40  1  0  0  0  0
 23 41  1  0  0  0  0
 23 42  1  0  0  0  0
 24 43  1  0  0  0  0
 24 44  1  0  0  0  0
M  END
> <ConfClashScore>
0 

> <ConfOneFourInteractionScore>
-0.981848 

> <ConfScore>
0.00162694 

> <ConfScorePBest>
0.00254031 

> <ConfTolerance>
0.409079 

$$$$
c22.sdf
 OpenBabel04162418103D

 44 47  0  0  0  0  0  0  0  0999 V2000
    2.4369    0.3920    0.1999 C   0  0  0  1  0  0  0  0  0  0  0  0
    2.4906    1.4805   -0.5742 N   0  0  0  1  0  0  0  0  0  0  0  0
    1.6400    2.4914   -0.3060 C   0  0  0  1  0  0  0  0  0  0  0  0
    0.7354    2.3514    0.7867 C   0  0  0  1  0  0  0  0  0  0  0  0
    0.8211    1.1542    1.4868 C   0  0  0  1  0  0  0  0  0  0  0  0
    1.6588    0.1199    1.2365 N   0  0  0  1  0  0  0  0  0  0  0  0
   -0.2778    3.0690    1.4539 C   0  0  0  1  0  0  0  0  0  0  0  0
   -0.7765    2.3883    2.4599 N   0  0  0  1  0  0  0  0  0  0  0  0
   -0.0954    1.2028    2.4797 N   0  0  0  1  0  0  0  0  0  0  0  0
   -0.3214    0.1576    3.4215 C   0  0  0  1  0  0  0  0  0  0  0  0
   -1.0103   -0.9769    3.0361 C   0  0  0  1  0  0  0  0  0  0  0  0
   -1.1478   -2.0372    3.9184 C   0  0  0  1  0  0  0  0  0  0  0  0
   -0.6007   -1.9578    5.1851 C   0  0  0  1  0  0  0  0  0  0  0  0
    0.0902   -0.8199    5.5714 C   0  0  0  1  0  0  0  0  0  0  0  0
    0.2274    0.2374    4.6919 C   0  0  0  1  0  0  0  0  0  0  0  0
   -0.8034   -3.0506    5.9588 O   0  0  0  1  0  0  0  0  0  0  0  0
   -0.1866   -3.0601    7.2557 C   0  0  0  1  0  0  0  0  0  0  0  0
    3.3097   -0.5788   -0.1248 N   0  0  0  1  0  0  0  0  0  0  0  0
    4.4018   -0.4075   -1.0885 C   0  0  0  1  0  0  0  0  0  0  0  0
    3.8444   -0.0768   -2.4758 C   0  0  0  1  0  0  0  0  0  0  0  0
    3.7459   -1.4323   -3.1840 C   0  0  0  1  0  0  0  0  0  0  0  0
    5.0260   -2.1168   -2.7341 C   0  0  0  1  0  0  0  0  0  0  0  0
    5.1757   -1.7213   -1.2612 C   0  0  0  1  0  0  0  0  0  0  0  0
    6.1920   -1.6322   -3.5317 N   0  0  0  1  0  0  0  0  0  0  0  0
    1.6437    3.3557   -0.8844 H   0  0  0  1  0  0  0  0  0  0  0  0
   -0.5923    4.0224    1.1823 H   0  0  0  1  0  0  0  0  0  0  0  0
   -1.4255   -1.0351    2.0844 H   0  0  0  1  0  0  0  0  0  0  0  0
   -1.6627   -2.8926    3.6270 H   0  0  0  1  0  0  0  0  0  0  0  0
    0.5054   -0.7616    6.5232 H   0  0  0  1  0  0  0  0  0  0  0  0
    0.7423    1.0928    4.9832 H   0  0  0  1  0  0  0  0  0  0  0  0
   -0.4852   -2.1883    7.7996 H   0  0  0  1  0  0  0  0  0  0  0  0
    0.8775   -3.0635    7.1442 H   0  0  0  1  0  0  0  0  0  0  0  0
   -0.4927   -3.9354    7.7896 H   0  0  0  1  0  0  0  0  0  0  0  0
    3.2098   -1.4523    0.3082 H   0  0  0  1  0  0  0  0  0  0  0  0
    5.0555    0.3703   -0.7529 H   0  0  0  1  0  0  0  0  0  0  0  0
    4.5068    0.5777   -3.0029 H   0  0  0  1  0  0  0  0  0  0  0  0
    2.8797    0.3793   -2.3966 H   0  0  0  1  0  0  0  0  0  0  0  0
    3.7210   -1.3145   -4.2472 H   0  0  0  1  0  0  0  0  0  0  0  0
    2.8814   -1.9759   -2.8646 H   0  0  0  1  0  0  0  0  0  0  0  0
    4.9419   -3.1789   -2.8336 H   0  0  0  1  0  0  0  0  0  0  0  0
    4.7630   -2.4802   -0.6299 H   0  0  0  1  0  0  0  0  0  0  0  0
    6.2081   -1.5778   -1.0192 H   0  0  0  1  0  0  0  0  0  0  0  0
    6.0169   -1.7729   -4.4856 H   0  0  0  1  0  0  0  0  0  0  0  0
    6.9953   -2.1289   -3.2705 H   0  0  0  1  0  0  0  0  0  0  0  0
  1  2  4  0  0  0  0
  1  6  4  0  0  0  0
  1 18  1  0  0  0  0
  2  3  4  0  0  0  0
  3  4  4  0  0  0  0
  3 25  1  0  0  0  0
  4  5  4  0  0  0  0
  4  7  4  0  0  0  0
  5  6  4  0  0  0  0
  5  9  4  0  0  0  0
  7  8  4  0  0  0  0
  7 26  1  0  0  0  0
  8  9  4  0  0  0  0
  9 10  1  0  0  0  0
 10 11  4  0  0  0  0
 10 15  4  0  0  0  0
 11 12  4  0  0  0  0
 11 27  1  0  0  0  0
 12 13  4  0  0  0  0
 12 28  1  0  0  0  0
 13 14  4  0  0  0  0
 13 16  1  0  0  0  0
 14 15  4  0  0  0  0
 14 29  1  0  0  0  0
 15 30  1  0  0  0  0
 16 17  1  0  0  0  0
 17 31  1  0  0  0  0
 17 32  1  0  0  0  0
 17 33  1  0  0  0  0
 18 19  1  0  0  0  0
 18 34  1  0  0  0  0
 19 20  1  0  0  0  0
 19 23  1  0  0  0  0
 19 35  1  0  0  0  0
 20 21  1  0  0  0  0
 20 36  1  0  0  0  0
 20 37  1  0  0  0  0
 21 22  1  0  0  0  0
 21 38  1  0  0  0  0
 21 39  1  0  0  0  0
 22 23  1  0  0  0  0
 22 24  1  0  0  0  0
 22 40  1  0  0  0  0
 23 41  1  0  0  0  0
 23 42  1  0  0  0  0
 24 43  1  0  0  0  0
 24 44  1  0  0  0  0
M  END
> <ConfClashScore>
0 

> <ConfOneFourInteractionScore>
-0.981848 

> <ConfScore>
0.00205953 

> <ConfScorePBest>
0.00252698 

> <ConfTolerance>
0.46737 

$$$$
c22.sdf
 OpenBabel04162418103D

 44 47  0  0  0  0  0  0  0  0999 V2000
    3.3976   -1.7590    0.9290 C   0  0  0  1  0  0  0  0  0  0  0  0
    4.6528   -1.7169    1.3872 N   0  0  0  1  0  0  0  0  0  0  0  0
    4.9076   -2.2716    2.5891 C   0  0  0  1  0  0  0  0  0  0  0  0
    3.8329   -2.8763    3.3042 C   0  0  0  1  0  0  0  0  0  0  0  0
    2.5946   -2.8332    2.6753 C   0  0  0  1  0  0  0  0  0  0  0  0
    2.3076   -2.2778    1.4740 N   0  0  0  1  0  0  0  0  0  0  0  0
    3.5836   -3.5628    4.5097 C   0  0  0  1  0  0  0  0  0  0  0  0
    2.3212   -3.9057    4.6240 N   0  0  0  1  0  0  0  0  0  0  0  0
    1.7095   -3.4537    3.4877 N   0  0  0  1  0  0  0  0  0  0  0  0
    0.3245   -3.6149    3.1983 C   0  0  0  1  0  0  0  0  0  0  0  0
   -0.0700   -4.3475    2.0947 C   0  0  0  1  0  0  0  0  0  0  0  0
   -1.4183   -4.5089    1.8160 C   0  0  0  1  0  0  0  0  0  0  0  0
   -2.3680   -3.9330    2.6387 C   0  0  0  1  0  0  0  0  0  0  0  0
   -1.9721   -3.1983    3.7455 C   0  0  0  1  0  0  0  0  0  0  0  0
   -0.6278   -3.0372    4.0235 C   0  0  0  1  0  0  0  0  0  0  0  0
   -3.7140   -3.9919    2.5029 O   0  0  0  1  0  0  0  0  0  0  0  0
   -4.2292   -4.7405    1.3908 C   0  0  0  1  0  0  0  0  0  0  0  0
    3.2128   -1.1848   -0.2733 N   0  0  0  1  0  0  0  0  0  0  0  0
    4.2634   -0.4751   -1.0105 C   0  0  0  1  0  0  0  0  0  0  0  0
    3.7965   -0.0881   -2.4198 C   0  0  0  1  0  0  0  0  0  0  0  0
    3.8876   -1.3783   -3.2250 C   0  0  0  1  0  0  0  0  0  0  0  0
    5.0194   -2.1836   -2.5761 C   0  0  0  1  0  0  0  0  0  0  0  0
    5.4451   -1.3958   -1.3270 C   0  0  0  1  0  0  0  0  0  0  0  0
    6.1697   -2.3155   -3.5222 N   0  0  0  1  0  0  0  0  0  0  0  0
    5.8685   -2.2585    2.9866 H   0  0  0  1  0  0  0  0  0  0  0  0
    4.3114   -3.7725    5.2224 H   0  0  0  1  0  0  0  0  0  0  0  0
    0.6445   -4.7775    1.4733 H   0  0  0  1  0  0  0  0  0  0  0  0
   -1.7153   -5.0635    0.9879 H   0  0  0  1  0  0  0  0  0  0  0  0
   -2.6866   -2.7683    4.3669 H   0  0  0  1  0  0  0  0  0  0  0  0
   -0.3307   -2.4827    4.8516 H   0  0  0  1  0  0  0  0  0  0  0  0
   -3.6668   -5.6436    1.2769 H   0  0  0  1  0  0  0  0  0  0  0  0
   -4.1480   -4.1551    0.4989 H   0  0  0  1  0  0  0  0  0  0  0  0
   -5.2568   -4.9806    1.5682 H   0  0  0  1  0  0  0  0  0  0  0  0
    2.3235   -1.2442   -0.6808 H   0  0  0  1  0  0  0  0  0  0  0  0
    4.5745    0.3829   -0.4519 H   0  0  0  1  0  0  0  0  0  0  0  0
    2.7893    0.2726   -2.3977 H   0  0  0  1  0  0  0  0  0  0  0  0
    4.4355    0.6623   -2.8361 H   0  0  0  1  0  0  0  0  0  0  0  0
    4.1183   -1.1657   -4.2479 H   0  0  0  1  0  0  0  0  0  0  0  0
    2.9656   -1.9187   -3.1717 H   0  0  0  1  0  0  0  0  0  0  0  0
    4.6708   -3.1567   -2.2997 H   0  0  0  1  0  0  0  0  0  0  0  0
    5.6316   -2.0609   -0.5098 H   0  0  0  1  0  0  0  0  0  0  0  0
    6.3250   -0.8211   -1.5279 H   0  0  0  1  0  0  0  0  0  0  0  0
    6.4754   -1.4243   -3.7918 H   0  0  0  1  0  0  0  0  0  0  0  0
    5.8846   -2.8164   -4.3149 H   0  0  0  1  0  0  0  0  0  0  0  0
  1  2  4  0  0  0  0
  1  6  4  0  0  0  0
  1 18  1  0  0  0  0
  2  3  4  0  0  0  0
  3  4  4  0  0  0  0
  3 25  1  0  0  0  0
  4  5  4  0  0  0  0
  4  7  4  0  0  0  0
  5  6  4  0  0  0  0
  5  9  4  0  0  0  0
  7  8  4  0  0  0  0
  7 26  1  0  0  0  0
  8  9  4  0  0  0  0
  9 10  1  0  0  0  0
 10 11  4  0  0  0  0
 10 15  4  0  0  0  0
 11 12  4  0  0  0  0
 11 27  1  0  0  0  0
 12 13  4  0  0  0  0
 12 28  1  0  0  0  0
 13 14  4  0  0  0  0
 13 16  1  0  0  0  0
 14 15  4  0  0  0  0
 14 29  1  0  0  0  0
 15 30  1  0  0  0  0
 16 17  1  0  0  0  0
 17 31  1  0  0  0  0
 17 32  1  0  0  0  0
 17 33  1  0  0  0  0
 18 19  1  0  0  0  0
 18 34  1  0  0  0  0
 19 20  1  0  0  0  0
 19 23  1  0  0  0  0
 19 35  1  0  0  0  0
 20 21  1  0  0  0  0
 20 36  1  0  0  0  0
 20 37  1  0  0  0  0
 21 22  1  0  0  0  0
 21 38  1  0  0  0  0
 21 39  1  0  0  0  0
 22 23  1  0  0  0  0
 22 24  1  0  0  0  0
 22 40  1  0  0  0  0
 23 41  1  0  0  0  0
 23 42  1  0  0  0  0
 24 43  1  0  0  0  0
 24 44  1  0  0  0  0
M  END
> <ConfClashScore>
0 

> <ConfOneFourInteractionScore>
-0.985399 

> <ConfScore>
0.00256262 

> <ConfScorePBest>
0.00251365 

> <ConfTolerance>
0.271927 

$$$$
c22.sdf
 OpenBabel04162418103D

 44 47  0  0  0  0  0  0  0  0999 V2000
    3.7252    1.2039    0.3459 C   0  0  0  1  0  0  0  0  0  0  0  0
    4.4227    2.0692   -0.3970 N   0  0  0  1  0  0  0  0  0  0  0  0
    4.4090    3.3683   -0.0371 C   0  0  0  1  0  0  0  0  0  0  0  0
    3.6602    3.7504    1.1140 C   0  0  0  1  0  0  0  0  0  0  0  0
    2.9997    2.7187    1.7697 C   0  0  0  1  0  0  0  0  0  0  0  0
    2.9893    1.4083    1.4280 N   0  0  0  1  0  0  0  0  0  0  0  0
    3.3509    4.8961    1.8747 C   0  0  0  1  0  0  0  0  0  0  0  0
    2.5735    4.6102    2.8935 N   0  0  0  1  0  0  0  0  0  0  0  0
    2.3566    3.2617    2.8280 N   0  0  0  1  0  0  0  0  0  0  0  0
    1.5676    2.5344    3.7420 C   0  0  0  1  0  0  0  0  0  0  0  0
    1.7081    1.1711    3.9199 C   0  0  0  1  0  0  0  0  0  0  0  0
    0.9090    0.5060    4.8368 C   0  0  0  1  0  0  0  0  0  0  0  0
   -0.0318    1.2052    5.5691 C   0  0  0  1  0  0  0  0  0  0  0  0
   -0.1726    2.5726    5.3905 C   0  0  0  1  0  0  0  0  0  0  0  0
    0.6241    3.2359    4.4763 C   0  0  0  1  0  0  0  0  0  0  0  0
   -0.8160    0.5545    6.4611 O   0  0  0  1  0  0  0  0  0  0  0  0
   -1.8515    1.3155    7.1021 C   0  0  0  1  0  0  0  0  0  0  0  0
    3.7811   -0.1210   -0.0860 N   0  0  0  1  0  0  0  0  0  0  0  0
    4.5952   -0.3440   -1.2894 C   0  0  0  1  0  0  0  0  0  0  0  0
    3.7342   -0.1921   -2.5488 C   0  0  0  1  0  0  0  0  0  0  0  0
    3.6828   -1.5809   -3.1732 C   0  0  0  1  0  0  0  0  0  0  0  0
    5.0063   -2.2405   -2.7644 C   0  0  0  1  0  0  0  0  0  0  0  0
    5.1337   -1.7833   -1.3088 C   0  0  0  1  0  0  0  0  0  0  0  0
    6.1344   -1.7475   -3.5879 N   0  0  0  1  0  0  0  0  0  0  0  0
    4.9339    4.0771   -0.5881 H   0  0  0  1  0  0  0  0  0  0  0  0
    3.6966    5.8521    1.6555 H   0  0  0  1  0  0  0  0  0  0  0  0
    2.4132    0.6442    3.3661 H   0  0  0  1  0  0  0  0  0  0  0  0
    1.0175   -0.5192    4.9737 H   0  0  0  1  0  0  0  0  0  0  0  0
   -0.8777    3.0995    5.9444 H   0  0  0  1  0  0  0  0  0  0  0  0
    0.5157    4.2611    4.3394 H   0  0  0  1  0  0  0  0  0  0  0  0
   -2.6574    0.6655    7.3721 H   0  0  0  1  0  0  0  0  0  0  0  0
   -2.2097    2.0670    6.4299 H   0  0  0  1  0  0  0  0  0  0  0  0
   -1.4590    1.7811    7.9820 H   0  0  0  1  0  0  0  0  0  0  0  0
    3.3138   -0.8473    0.3771 H   0  0  0  1  0  0  0  0  0  0  0  0
    5.4051    0.3551   -1.3074 H   0  0  0  1  0  0  0  0  0  0  0  0
    4.1807    0.5063   -3.2255 H   0  0  0  1  0  0  0  0  0  0  0  0
    2.7499    0.1393   -2.2916 H   0  0  0  1  0  0  0  0  0  0  0  0
    2.8512   -2.1356   -2.7916 H   0  0  0  1  0  0  0  0  0  0  0  0
    3.6083   -1.5132   -4.2384 H   0  0  0  1  0  0  0  0  0  0  0  0
    4.9508   -3.3067   -2.8363 H   0  0  0  1  0  0  0  0  0  0  0  0
    4.5513   -2.4103   -0.6664 H   0  0  0  1  0  0  0  0  0  0  0  0
    6.1571   -1.8051   -0.9971 H   0  0  0  1  0  0  0  0  0  0  0  0
    6.9749   -2.1186   -3.2470 H   0  0  0  1  0  0  0  0  0  0  0  0
    6.1678   -0.7691   -3.5434 H   0  0  0  1  0  0  0  0  0  0  0  0
  1  2  4  0  0  0  0
  1  6  4  0  0  0  0
  1 18  1  0  0  0  0
  2  3  4  0  0  0  0
  3  4  4  0  0  0  0
  3 25  1  0  0  0  0
  4  5  4  0  0  0  0
  4  7  4  0  0  0  0
  5  6  4  0  0  0  0
  5  9  4  0  0  0  0
  7  8  4  0  0  0  0
  7 26  1  0  0  0  0
  8  9  4  0  0  0  0
  9 10  1  0  0  0  0
 10 11  4  0  0  0  0
 10 15  4  0  0  0  0
 11 12  4  0  0  0  0
 11 27  1  0  0  0  0
 12 13  4  0  0  0  0
 12 28  1  0  0  0  0
 13 14  4  0  0  0  0
 13 16  1  0  0  0  0
 14 15  4  0  0  0  0
 14 29  1  0  0  0  0
 15 30  1  0  0  0  0
 16 17  1  0  0  0  0
 17 31  1  0  0  0  0
 17 32  1  0  0  0  0
 17 33  1  0  0  0  0
 18 19  1  0  0  0  0
 18 34  1  0  0  0  0
 19 20  1  0  0  0  0
 19 23  1  0  0  0  0
 19 35  1  0  0  0  0
 20 21  1  0  0  0  0
 20 36  1  0  0  0  0
 20 37  1  0  0  0  0
 21 22  1  0  0  0  0
 21 38  1  0  0  0  0
 21 39  1  0  0  0  0
 22 23  1  0  0  0  0
 22 24  1  0  0  0  0
 22 40  1  0  0  0  0
 23 41  1  0  0  0  0
 23 42  1  0  0  0  0
 24 43  1  0  0  0  0
 24 44  1  0  0  0  0
M  END
> <ConfClashScore>
0 

> <ConfOneFourInteractionScore>
-0.984337 

> <ConfScore>
0.00345477 

> <ConfScorePBest>
0.00250032 

> <ConfTolerance>
0.375965 

$$$$
c22.sdf
 OpenBabel04162418103D

 44 47  0  0  0  0  0  0  0  0999 V2000
    3.1478   -0.5765    0.8092 C   0  0  0  1  0  0  0  0  0  0  0  0
    2.9505   -0.1173    2.0491 N   0  0  0  1  0  0  0  0  0  0  0  0
    2.0019   -0.7106    2.8011 C   0  0  0  1  0  0  0  0  0  0  0  0
    1.2654   -1.7950    2.2412 C   0  0  0  1  0  0  0  0  0  0  0  0
    1.6063   -2.1432    0.9400 C   0  0  0  1  0  0  0  0  0  0  0  0
    2.5477   -1.5620    0.1590 N   0  0  0  1  0  0  0  0  0  0  0  0
    0.2475   -2.7067    2.5866 C   0  0  0  1  0  0  0  0  0  0  0  0
   -0.0230   -3.5323    1.6020 N   0  0  0  1  0  0  0  0  0  0  0  0
    0.8189   -3.1828    0.5828 N   0  0  0  1  0  0  0  0  0  0  0  0
    0.8606   -3.8236   -0.6775 C   0  0  0  1  0  0  0  0  0  0  0  0
    0.5943   -5.1763   -0.7740 C   0  0  0  1  0  0  0  0  0  0  0  0
    0.6299   -5.8031   -2.0099 C   0  0  0  1  0  0  0  0  0  0  0  0
    0.9369   -5.0765   -3.1448 C   0  0  0  1  0  0  0  0  0  0  0  0
    1.2040   -3.7197   -3.0479 C   0  0  0  1  0  0  0  0  0  0  0  0
    1.1685   -3.0947   -1.8157 C   0  0  0  1  0  0  0  0  0  0  0  0
    0.9467   -5.7960   -4.2921 O   0  0  0  1  0  0  0  0  0  0  0  0
    1.1767   -5.0784   -5.5147 C   0  0  0  1  0  0  0  0  0  0  0  0
    4.1055    0.0622    0.1132 N   0  0  0  1  0  0  0  0  0  0  0  0
    4.6100   -0.3058   -1.2106 C   0  0  0  1  0  0  0  0  0  0  0  0
    3.5111   -0.2272   -2.2615 C   0  0  0  1  0  0  0  0  0  0  0  0
    3.9309   -1.1522   -3.3957 C   0  0  0  1  0  0  0  0  0  0  0  0
    4.9803   -2.0957   -2.8041 C   0  0  0  1  0  0  0  0  0  0  0  0
    5.0133   -1.8268   -1.2652 C   0  0  0  1  0  0  0  0  0  0  0  0
    6.3079   -1.8182   -3.3985 N   0  0  0  1  0  0  0  0  0  0  0  0
    1.8114   -0.3838    3.7699 H   0  0  0  1  0  0  0  0  0  0  0  0
   -0.2314   -2.7236    3.5097 H   0  0  0  1  0  0  0  0  0  0  0  0
    0.3673   -5.7239    0.0805 H   0  0  0  1  0  0  0  0  0  0  0  0
    0.4257   -6.8202   -2.0831 H   0  0  0  1  0  0  0  0  0  0  0  0
    1.4310   -3.1721   -3.9024 H   0  0  0  1  0  0  0  0  0  0  0  0
    1.3728   -2.0775   -1.7424 H   0  0  0  1  0  0  0  0  0  0  0  0
    2.0370   -4.4518   -5.4047 H   0  0  0  1  0  0  0  0  0  0  0  0
    0.3224   -4.4747   -5.7396 H   0  0  0  1  0  0  0  0  0  0  0  0
    1.3419   -5.7742   -6.3106 H   0  0  0  1  0  0  0  0  0  0  0  0
    4.5050    0.8520    0.5342 H   0  0  0  1  0  0  0  0  0  0  0  0
    5.4365    0.3241   -1.4657 H   0  0  0  1  0  0  0  0  0  0  0  0
    3.4135    0.7762   -2.6199 H   0  0  0  1  0  0  0  0  0  0  0  0
    2.5792   -0.5505   -1.8467 H   0  0  0  1  0  0  0  0  0  0  0  0
    3.0895   -1.7089   -3.7521 H   0  0  0  1  0  0  0  0  0  0  0  0
    4.3516   -0.5863   -4.2005 H   0  0  0  1  0  0  0  0  0  0  0  0
    4.7095   -3.1132   -2.9943 H   0  0  0  1  0  0  0  0  0  0  0  0
    4.3060   -2.4386   -0.7453 H   0  0  0  1  0  0  0  0  0  0  0  0
    5.9905   -1.9877   -0.8603 H   0  0  0  1  0  0  0  0  0  0  0  0
    6.3284   -2.1472   -4.3213 H   0  0  0  1  0  0  0  0  0  0  0  0
    7.0012   -2.2714   -2.8748 H   0  0  0  1  0  0  0  0  0  0  0  0
  1  2  4  0  0  0  0
  1  6  4  0  0  0  0
  1 18  1  0  0  0  0
  2  3  4  0  0  0  0
  3  4  4  0  0  0  0
  3 25  1  0  0  0  0
  4  5  4  0  0  0  0
  4  7  4  0  0  0  0
  5  6  4  0  0  0  0
  5  9  4  0  0  0  0
  7  8  4  0  0  0  0
  7 26  1  0  0  0  0
  8  9  4  0  0  0  0
  9 10  1  0  0  0  0
 10 11  4  0  0  0  0
 10 15  4  0  0  0  0
 11 12  4  0  0  0  0
 11 27  1  0  0  0  0
 12 13  4  0  0  0  0
 12 28  1  0  0  0  0
 13 14  4  0  0  0  0
 13 16  1  0  0  0  0
 14 15  4  0  0  0  0
 14 29  1  0  0  0  0
 15 30  1  0  0  0  0
 16 17  1  0  0  0  0
 17 31  1  0  0  0  0
 17 32  1  0  0  0  0
 17 33  1  0  0  0  0
 18 19  1  0  0  0  0
 18 34  1  0  0  0  0
 19 20  1  0  0  0  0
 19 23  1  0  0  0  0
 19 35  1  0  0  0  0
 20 21  1  0  0  0  0
 20 36  1  0  0  0  0
 20 37  1  0  0  0  0
 21 22  1  0  0  0  0
 21 38  1  0  0  0  0
 21 39  1  0  0  0  0
 22 23  1  0  0  0  0
 22 24  1  0  0  0  0
 22 40  1  0  0  0  0
 23 41  1  0  0  0  0
 23 42  1  0  0  0  0
 24 43  1  0  0  0  0
 24 44  1  0  0  0  0
M  END
> <ConfClashScore>
0 

> <ConfOneFourInteractionScore>
-0.980204 

> <ConfScore>
0.00398258 

> <ConfScorePBest>
0.00248699 

> <ConfTolerance>
0.331057 

$$$$
c22.sdf
 OpenBabel04162418103D

 44 47  0  0  0  0  0  0  0  0999 V2000
    2.6979   -1.0501    0.3590 C   0  0  0  1  0  0  0  0  0  0  0  0
    2.4617   -2.0458   -0.5012 N   0  0  0  1  0  0  0  0  0  0  0  0
    1.4649   -2.9072   -0.2152 C   0  0  0  1  0  0  0  0  0  0  0  0
    0.7140   -2.7105    0.9803 C   0  0  0  1  0  0  0  0  0  0  0  0
    1.0936   -1.6211    1.7548 C   0  0  0  1  0  0  0  0  0  0  0  0
    2.0934   -0.7446    1.4971 N   0  0  0  1  0  0  0  0  0  0  0  0
   -0.3665   -3.2760    1.6871 C   0  0  0  1  0  0  0  0  0  0  0  0
   -0.6287   -2.6133    2.7899 N   0  0  0  1  0  0  0  0  0  0  0  0
    0.2758   -1.5886    2.8311 N   0  0  0  1  0  0  0  0  0  0  0  0
    0.3464   -0.6231    3.8623 C   0  0  0  1  0  0  0  0  0  0  0  0
   -0.7801   -0.3199    4.6034 C   0  0  0  1  0  0  0  0  0  0  0  0
   -0.7095    0.6224    5.6175 C   0  0  0  1  0  0  0  0  0  0  0  0
    0.4860    1.2627    5.8842 C   0  0  0  1  0  0  0  0  0  0  0  0
    1.6158    0.9585    5.1408 C   0  0  0  1  0  0  0  0  0  0  0  0
    1.5456    0.0189    4.1296 C   0  0  0  1  0  0  0  0  0  0  0  0
    0.4321    2.1656    6.8920 O   0  0  0  1  0  0  0  0  0  0  0  0
    1.5993    2.9725    7.1133 C   0  0  0  1  0  0  0  0  0  0  0  0
    3.7019   -0.2350    0.0167 N   0  0  0  1  0  0  0  0  0  0  0  0
    4.5417   -0.3467   -1.1694 C   0  0  0  1  0  0  0  0  0  0  0  0
    3.6996   -0.1564   -2.4363 C   0  0  0  1  0  0  0  0  0  0  0  0
    3.7242   -1.5054   -3.1442 C   0  0  0  1  0  0  0  0  0  0  0  0
    5.0681   -2.1293   -2.7462 C   0  0  0  1  0  0  0  0  0  0  0  0
    5.1458   -1.7567   -1.2632 C   0  0  0  1  0  0  0  0  0  0  0  0
    6.1979   -1.5322   -3.5194 N   0  0  0  1  0  0  0  0  0  0  0  0
    1.2482   -3.6989   -0.8537 H   0  0  0  1  0  0  0  0  0  0  0  0
   -0.8925   -4.1165    1.3731 H   0  0  0  1  0  0  0  0  0  0  0  0
   -1.6807   -0.7987    4.4001 H   0  0  0  1  0  0  0  0  0  0  0  0
   -1.5562    0.8477    6.1778 H   0  0  0  1  0  0  0  0  0  0  0  0
    2.5164    1.4373    5.3441 H   0  0  0  1  0  0  0  0  0  0  0  0
    2.3923   -0.2064    3.5693 H   0  0  0  1  0  0  0  0  0  0  0  0
    2.4174    2.3459    7.4012 H   0  0  0  1  0  0  0  0  0  0  0  0
    1.4012    3.6800    7.8912 H   0  0  0  1  0  0  0  0  0  0  0  0
    1.8488    3.4929    6.2123 H   0  0  0  1  0  0  0  0  0  0  0  0
    3.8914    0.5109    0.6234 H   0  0  0  1  0  0  0  0  0  0  0  0
    5.3190    0.3875   -1.1271 H   0  0  0  1  0  0  0  0  0  0  0  0
    4.1270    0.6011   -3.0596 H   0  0  0  1  0  0  0  0  0  0  0  0
    2.6963    0.1145   -2.1817 H   0  0  0  1  0  0  0  0  0  0  0  0
    2.9115   -2.1188   -2.8154 H   0  0  0  1  0  0  0  0  0  0  0  0
    3.6677   -1.3760   -4.2048 H   0  0  0  1  0  0  0  0  0  0  0  0
    5.0630   -3.1904   -2.8834 H   0  0  0  1  0  0  0  0  0  0  0  0
    6.1628   -1.7519   -0.9306 H   0  0  0  1  0  0  0  0  0  0  0  0
    4.5802   -2.4471   -0.6730 H   0  0  0  1  0  0  0  0  0  0  0  0
    6.0267   -1.6328   -4.4791 H   0  0  0  1  0  0  0  0  0  0  0  0
    7.0316   -1.9915   -3.2865 H   0  0  0  1  0  0  0  0  0  0  0  0
  1  2  4  0  0  0  0
  1  6  4  0  0  0  0
  1 18  1  0  0  0  0
  2  3  4  0  0  0  0
  3  4  4  0  0  0  0
  3 25  1  0  0  0  0
  4  5  4  0  0  0  0
  4  7  4  0  0  0  0
  5  6  4  0  0  0  0
  5  9  4  0  0  0  0
  7  8  4  0  0  0  0
  7 26  1  0  0  0  0
  8  9  4  0  0  0  0
  9 10  1  0  0  0  0
 10 11  4  0  0  0  0
 10 15  4  0  0  0  0
 11 12  4  0  0  0  0
 11 27  1  0  0  0  0
 12 13  4  0  0  0  0
 12 28  1  0  0  0  0
 13 14  4  0  0  0  0
 13 16  1  0  0  0  0
 14 15  4  0  0  0  0
 14 29  1  0  0  0  0
 15 30  1  0  0  0  0
 16 17  1  0  0  0  0
 17 31  1  0  0  0  0
 17 32  1  0  0  0  0
 17 33  1  0  0  0  0
 18 19  1  0  0  0  0
 18 34  1  0  0  0  0
 19 20  1  0  0  0  0
 19 23  1  0  0  0  0
 19 35  1  0  0  0  0
 20 21  1  0  0  0  0
 20 36  1  0  0  0  0
 20 37  1  0  0  0  0
 21 22  1  0  0  0  0
 21 38  1  0  0  0  0
 21 39  1  0  0  0  0
 22 23  1  0  0  0  0
 22 24  1  0  0  0  0
 22 40  1  0  0  0  0
 23 41  1  0  0  0  0
 23 42  1  0  0  0  0
 24 43  1  0  0  0  0
 24 44  1  0  0  0  0
M  END
> <ConfClashScore>
0 

> <ConfOneFourInteractionScore>
-0.980204 

> <ConfScore>
0.00398258 

> <ConfScorePBest>
0.00247367 

> <ConfTolerance>
0.266995 

$$$$
c22.sdf
 OpenBabel04162418103D

 44 47  0  0  0  0  0  0  0  0999 V2000
    4.4454   -0.8268    1.3586 C   0  0  0  1  0  0  0  0  0  0  0  0
    3.6780   -1.0642    2.4272 N   0  0  0  1  0  0  0  0  0  0  0  0
    4.2882   -1.3542    3.5938 C   0  0  0  1  0  0  0  0  0  0  0  0
    5.7128   -1.3872    3.6299 C   0  0  0  1  0  0  0  0  0  0  0  0
    6.3499   -1.1103    2.4265 C   0  0  0  1  0  0  0  0  0  0  0  0
    5.7645   -0.8234    1.2395 N   0  0  0  1  0  0  0  0  0  0  0  0
    6.7693   -1.6071    4.5366 C   0  0  0  1  0  0  0  0  0  0  0  0
    7.9420   -1.4870    3.9582 N   0  0  0  1  0  0  0  0  0  0  0  0
    7.6815   -1.1792    2.6516 N   0  0  0  1  0  0  0  0  0  0  0  0
    8.6797   -0.9603    1.6598 C   0  0  0  1  0  0  0  0  0  0  0  0
    8.3864   -1.1717    0.3258 C   0  0  0  1  0  0  0  0  0  0  0  0
    9.3565   -0.9535   -0.6400 C   0  0  0  1  0  0  0  0  0  0  0  0
   10.6186   -0.5297   -0.2686 C   0  0  0  1  0  0  0  0  0  0  0  0
   10.9126   -0.3177    1.0694 C   0  0  0  1  0  0  0  0  0  0  0  0
    9.9454   -0.5353    2.0324 C   0  0  0  1  0  0  0  0  0  0  0  0
   11.6356   -0.4287   -1.1571 O   0  0  0  1  0  0  0  0  0  0  0  0
   11.3373   -0.7187   -2.5317 C   0  0  0  1  0  0  0  0  0  0  0  0
    3.7727   -0.5477    0.2277 N   0  0  0  1  0  0  0  0  0  0  0  0
    4.4144   -0.3260   -1.0708 C   0  0  0  1  0  0  0  0  0  0  0  0
    3.3798   -0.3573   -2.1889 C   0  0  0  1  0  0  0  0  0  0  0  0
    4.1360   -0.9116   -3.4033 C   0  0  0  1  0  0  0  0  0  0  0  0
    4.9705   -2.0211   -2.7578 C   0  0  0  1  0  0  0  0  0  0  0  0
    5.3905   -1.4649   -1.3880 C   0  0  0  1  0  0  0  0  0  0  0  0
    6.1783   -2.3252   -3.5947 N   0  0  0  1  0  0  0  0  0  0  0  0
    3.7310   -1.5497    4.4499 H   0  0  0  1  0  0  0  0  0  0  0  0
    6.6362   -1.8367    5.5422 H   0  0  0  1  0  0  0  0  0  0  0  0
    7.4380   -1.4944    0.0467 H   0  0  0  1  0  0  0  0  0  0  0  0
    9.1346   -1.1086   -1.6441 H   0  0  0  1  0  0  0  0  0  0  0  0
   11.8610    0.0050    1.3485 H   0  0  0  1  0  0  0  0  0  0  0  0
   10.1672   -0.3801    3.0366 H   0  0  0  1  0  0  0  0  0  0  0  0
   10.6413   -1.5298   -2.5827 H   0  0  0  1  0  0  0  0  0  0  0  0
   12.2378   -0.9892   -3.0424 H   0  0  0  1  0  0  0  0  0  0  0  0
   10.9106    0.1467   -2.9940 H   0  0  0  1  0  0  0  0  0  0  0  0
    2.7956   -0.4891    0.2750 H   0  0  0  1  0  0  0  0  0  0  0  0
    4.9262    0.6136   -1.0605 H   0  0  0  1  0  0  0  0  0  0  0  0
    3.0123    0.6272   -2.3905 H   0  0  0  1  0  0  0  0  0  0  0  0
    2.5627   -0.9973   -1.9290 H   0  0  0  1  0  0  0  0  0  0  0  0
    4.7575   -0.1648   -3.8516 H   0  0  0  1  0  0  0  0  0  0  0  0
    3.4636   -1.3042   -4.1372 H   0  0  0  1  0  0  0  0  0  0  0  0
    4.3857   -2.9092   -2.6387 H   0  0  0  1  0  0  0  0  0  0  0  0
    6.3929   -1.0931   -1.4304 H   0  0  0  1  0  0  0  0  0  0  0  0
    5.3241   -2.2288   -0.6417 H   0  0  0  1  0  0  0  0  0  0  0  0
    5.8936   -2.6251   -4.4832 H   0  0  0  1  0  0  0  0  0  0  0  0
    6.7040   -3.0316   -3.1646 H   0  0  0  1  0  0  0  0  0  0  0  0
  1  2  4  0  0  0  0
  1  6  4  0  0  0  0
  1 18  1  0  0  0  0
  2  3  4  0  0  0  0
  3  4  4  0  0  0  0
  3 25  1  0  0  0  0
  4  5  4  0  0  0  0
  4  7  4  0  0  0  0
  5  6  4  0  0  0  0
  5  9  4  0  0  0  0
  7  8  4  0  0  0  0
  7 26  1  0  0  0  0
  8  9  4  0  0  0  0
  9 10  1  0  0  0  0
 10 11  4  0  0  0  0
 10 15  4  0  0  0  0
 11 12  4  0  0  0  0
 11 27  1  0  0  0  0
 12 13  4  0  0  0  0
 12 28  1  0  0  0  0
 13 14  4  0  0  0  0
 13 16  1  0  0  0  0
 14 15  4  0  0  0  0
 14 29  1  0  0  0  0
 15 30  1  0  0  0  0
 16 17  1  0  0  0  0
 17 31  1  0  0  0  0
 17 32  1  0  0  0  0
 17 33  1  0  0  0  0
 18 19  1  0  0  0  0
 18 34  1  0  0  0  0
 19 20  1  0  0  0  0
 19 23  1  0  0  0  0
 19 35  1  0  0  0  0
 20 21  1  0  0  0  0
 20 36  1  0  0  0  0
 20 37  1  0  0  0  0
 21 22  1  0  0  0  0
 21 38  1  0  0  0  0
 21 39  1  0  0  0  0
 22 23  1  0  0  0  0
 22 24  1  0  0  0  0
 22 40  1  0  0  0  0
 23 41  1  0  0  0  0
 23 42  1  0  0  0  0
 24 43  1  0  0  0  0
 24 44  1  0  0  0  0
M  END
> <ConfClashScore>
0 

> <ConfOneFourInteractionScore>
-0.985399 

> <ConfScore>
0.00409834 

> <ConfScorePBest>
0.00246034 

> <ConfTolerance>
0.32949 

$$$$
c22.sdf
 OpenBabel04162418103D

 44 47  0  0  0  0  0  0  0  0999 V2000
    4.0662   -0.5729    1.2650 C   0  0  0  1  0  0  0  0  0  0  0  0
    3.1517   -0.3036    2.2021 N   0  0  0  1  0  0  0  0  0  0  0  0
    3.4433   -0.6165    3.4805 C   0  0  0  1  0  0  0  0  0  0  0  0
    4.7071   -1.2101    3.7674 C   0  0  0  1  0  0  0  0  0  0  0  0
    5.5366   -1.4140    2.6716 C   0  0  0  1  0  0  0  0  0  0  0  0
    5.2685   -1.1171    1.3777 N   0  0  0  1  0  0  0  0  0  0  0  0
    5.4599   -1.6812    4.8620 C   0  0  0  1  0  0  0  0  0  0  0  0
    6.6328   -2.1374    4.4875 N   0  0  0  1  0  0  0  0  0  0  0  0
    6.6797   -1.9715    3.1310 N   0  0  0  1  0  0  0  0  0  0  0  0
    7.7739   -2.3334    2.3195 C   0  0  0  1  0  0  0  0  0  0  0  0
    9.0265   -2.3495    2.9034 C   0  0  0  1  0  0  0  0  0  0  0  0
   10.1366   -2.7033    2.1524 C   0  0  0  1  0  0  0  0  0  0  0  0
    9.9917   -3.0348    0.8185 C   0  0  0  1  0  0  0  0  0  0  0  0
    8.7352   -3.0187    0.2330 C   0  0  0  1  0  0  0  0  0  0  0  0
    7.6283   -2.6659    0.9817 C   0  0  0  1  0  0  0  0  0  0  0  0
   11.0769   -3.3754    0.0835 O   0  0  0  1  0  0  0  0  0  0  0  0
   10.8469   -3.7964   -1.2701 C   0  0  0  1  0  0  0  0  0  0  0  0
    3.7117   -0.2409    0.0186 N   0  0  0  1  0  0  0  0  0  0  0  0
    4.5414   -0.3480   -1.1751 C   0  0  0  1  0  0  0  0  0  0  0  0
    3.6875   -0.1584   -2.4343 C   0  0  0  1  0  0  0  0  0  0  0  0
    3.7100   -1.5062   -3.1444 C   0  0  0  1  0  0  0  0  0  0  0  0
    5.0593   -2.1265   -2.7594 C   0  0  0  1  0  0  0  0  0  0  0  0
    5.1490   -1.7560   -1.2766 C   0  0  0  1  0  0  0  0  0  0  0  0
    6.1855   -1.5217   -3.5453 N   0  0  0  1  0  0  0  0  0  0  0  0
    2.7602   -0.4286    4.2419 H   0  0  0  1  0  0  0  0  0  0  0  0
    5.1267   -1.6689    5.8471 H   0  0  0  1  0  0  0  0  0  0  0  0
    9.1362   -2.0961    3.9061 H   0  0  0  1  0  0  0  0  0  0  0  0
   11.0787   -2.7192    2.5927 H   0  0  0  1  0  0  0  0  0  0  0  0
    8.6255   -3.2721   -0.7696 H   0  0  0  1  0  0  0  0  0  0  0  0
    6.6862   -2.6499    0.5414 H   0  0  0  1  0  0  0  0  0  0  0  0
   11.6176   -4.4759   -1.5687 H   0  0  0  1  0  0  0  0  0  0  0  0
   10.8549   -2.9427   -1.9151 H   0  0  0  1  0  0  0  0  0  0  0  0
    9.8968   -4.2843   -1.3351 H   0  0  0  1  0  0  0  0  0  0  0  0
    2.8045    0.1090   -0.1041 H   0  0  0  1  0  0  0  0  0  0  0  0
    5.3166    0.3886   -1.1386 H   0  0  0  1  0  0  0  0  0  0  0  0
    4.1069    0.6015   -3.0600 H   0  0  0  1  0  0  0  0  0  0  0  0
    2.6856    0.1089   -2.1703 H   0  0  0  1  0  0  0  0  0  0  0  0
    2.9021   -2.1227   -2.8094 H   0  0  0  1  0  0  0  0  0  0  0  0
    3.6436   -1.3753   -4.2043 H   0  0  0  1  0  0  0  0  0  0  0  0
    5.0562   -3.1874   -2.8983 H   0  0  0  1  0  0  0  0  0  0  0  0
    6.1689   -1.7485   -0.9529 H   0  0  0  1  0  0  0  0  0  0  0  0
    4.5908   -2.4491   -0.6825 H   0  0  0  1  0  0  0  0  0  0  0  0
    6.1091   -1.7890   -4.4851 H   0  0  0  1  0  0  0  0  0  0  0  0
    7.0409   -1.8364   -3.1850 H   0  0  0  1  0  0  0  0  0  0  0  0
  1  2  4  0  0  0  0
  1  6  4  0  0  0  0
  1 18  1  0  0  0  0
  2  3  4  0  0  0  0
  3  4  4  0  0  0  0
  3 25  1  0  0  0  0
  4  5  4  0  0  0  0
  4  7  4  0  0  0  0
  5  6  4  0  0  0  0
  5  9  4  0  0  0  0
  7  8  4  0  0  0  0
  7 26  1  0  0  0  0
  8  9  4  0  0  0  0
  9 10  1  0  0  0  0
 10 11  4  0  0  0  0
 10 15  4  0  0  0  0
 11 12  4  0  0  0  0
 11 27  1  0  0  0  0
 12 13  4  0  0  0  0
 12 28  1  0  0  0  0
 13 14  4  0  0  0  0
 13 16  1  0  0  0  0
 14 15  4  0  0  0  0
 14 29  1  0  0  0  0
 15 30  1  0  0  0  0
 16 17  1  0  0  0  0
 17 31  1  0  0  0  0
 17 32  1  0  0  0  0
 17 33  1  0  0  0  0
 18 19  1  0  0  0  0
 18 34  1  0  0  0  0
 19 20  1  0  0  0  0
 19 23  1  0  0  0  0
 19 35  1  0  0  0  0
 20 21  1  0  0  0  0
 20 36  1  0  0  0  0
 20 37  1  0  0  0  0
 21 22  1  0  0  0  0
 21 38  1  0  0  0  0
 21 39  1  0  0  0  0
 22 23  1  0  0  0  0
 22 24  1  0  0  0  0
 22 40  1  0  0  0  0
 23 41  1  0  0  0  0
 23 42  1  0  0  0  0
 24 43  1  0  0  0  0
 24 44  1  0  0  0  0
M  END
> <ConfClashScore>
0 

> <ConfOneFourInteractionScore>
-0.985399 

> <ConfScore>
0.00409834 

> <ConfScorePBest>
0.00244701 

> <ConfTolerance>
0.334081 

$$$$
c22.sdf
 OpenBabel04162418103D

 44 47  0  0  0  0  0  0  0  0999 V2000
    3.1849   -1.2878    0.8547 C   0  0  0  1  0  0  0  0  0  0  0  0
    3.0802   -2.4300    0.1680 N   0  0  0  1  0  0  0  0  0  0  0  0
    2.4566   -3.4693    0.7581 C   0  0  0  1  0  0  0  0  0  0  0  0
    1.9384   -3.2970    2.0747 C   0  0  0  1  0  0  0  0  0  0  0  0
    2.1326   -2.0409    2.6362 C   0  0  0  1  0  0  0  0  0  0  0  0
    2.7603   -0.9820    2.0715 N   0  0  0  1  0  0  0  0  0  0  0  0
    1.2353   -4.0123    3.0651 C   0  0  0  1  0  0  0  0  0  0  0  0
    1.0197   -3.2815    4.1345 N   0  0  0  1  0  0  0  0  0  0  0  0
    1.5755   -2.0609    3.8681 N   0  0  0  1  0  0  0  0  0  0  0  0
    1.5686   -0.9687    4.7591 C   0  0  0  1  0  0  0  0  0  0  0  0
    0.5551   -0.7688    5.6773 C   0  0  0  1  0  0  0  0  0  0  0  0
    0.6011    0.3198    6.5341 C   0  0  0  1  0  0  0  0  0  0  0  0
    1.6576    1.2084    6.4667 C   0  0  0  1  0  0  0  0  0  0  0  0
    2.6740    1.0078    5.5457 C   0  0  0  1  0  0  0  0  0  0  0  0
    2.6283   -0.0776    4.6914 C   0  0  0  1  0  0  0  0  0  0  0  0
    1.8076    2.3062    7.2453 O   0  0  0  1  0  0  0  0  0  0  0  0
    0.7342    2.6245    8.1447 C   0  0  0  1  0  0  0  0  0  0  0  0
    3.8181   -0.2980    0.2119 N   0  0  0  1  0  0  0  0  0  0  0  0
    4.4199   -0.3086   -1.1254 C   0  0  0  1  0  0  0  0  0  0  0  0
    3.3605   -0.4936   -2.1977 C   0  0  0  1  0  0  0  0  0  0  0  0
    4.0811   -1.1412   -3.3772 C   0  0  0  1  0  0  0  0  0  0  0  0
    5.0399   -2.1276   -2.6835 C   0  0  0  1  0  0  0  0  0  0  0  0
    5.3264   -1.5364   -1.3122 C   0  0  0  1  0  0  0  0  0  0  0  0
    6.3041   -2.2596   -3.4661 N   0  0  0  1  0  0  0  0  0  0  0  0
    2.3556   -4.3782    0.2628 H   0  0  0  1  0  0  0  0  0  0  0  0
    0.9247   -4.9994    2.9613 H   0  0  0  1  0  0  0  0  0  0  0  0
   -0.2419   -1.4352    5.7254 H   0  0  0  1  0  0  0  0  0  0  0  0
   -0.1595    0.4680    7.2278 H   0  0  0  1  0  0  0  0  0  0  0  0
    3.4711    1.6742    5.4977 H   0  0  0  1  0  0  0  0  0  0  0  0
    3.3889   -0.2259    3.9977 H   0  0  0  1  0  0  0  0  0  0  0  0
   -0.1143    2.9578    7.5845 H   0  0  0  1  0  0  0  0  0  0  0  0
    1.0470    3.3997    8.8127 H   0  0  0  1  0  0  0  0  0  0  0  0
    0.4703    1.7534    8.7071 H   0  0  0  1  0  0  0  0  0  0  0  0
    3.8889    0.5479    0.7016 H   0  0  0  1  0  0  0  0  0  0  0  0
    4.9663    0.5985   -1.2784 H   0  0  0  1  0  0  0  0  0  0  0  0
    2.5772   -1.1305   -1.8431 H   0  0  0  1  0  0  0  0  0  0  0  0
    2.9499    0.4520   -2.4843 H   0  0  0  1  0  0  0  0  0  0  0  0
    3.3929   -1.6554   -4.0151 H   0  0  0  1  0  0  0  0  0  0  0  0
    4.6209   -0.4137   -3.9467 H   0  0  0  1  0  0  0  0  0  0  0  0
    4.5786   -3.0881   -2.5855 H   0  0  0  1  0  0  0  0  0  0  0  0
    6.3533   -1.2420   -1.2511 H   0  0  0  1  0  0  0  0  0  0  0  0
    5.1169   -2.2611   -0.5534 H   0  0  0  1  0  0  0  0  0  0  0  0
    6.6235   -1.3698   -3.7242 H   0  0  0  1  0  0  0  0  0  0  0  0
    6.1354   -2.7921   -4.2714 H   0  0  0  1  0  0  0  0  0  0  0  0
  1  2  4  0  0  0  0
  1  6  4  0  0  0  0
  1 18  1  0  0  0  0
  2  3  4  0  0  0  0
  3  4  4  0  0  0  0
  3 25  1  0  0  0  0
  4  5  4  0  0  0  0
  4  7  4  0  0  0  0
  5  6  4  0  0  0  0
  5  9  4  0  0  0  0
  7  8  4  0  0  0  0
  7 26  1  0  0  0  0
  8  9  4  0  0  0  0
  9 10  1  0  0  0  0
 10 11  4  0  0  0  0
 10 15  4  0  0  0  0
 11 12  4  0  0  0  0
 11 27  1  0  0  0  0
 12 13  4  0  0  0  0
 12 28  1  0  0  0  0
 13 14  4  0  0  0  0
 13 16  1  0  0  0  0
 14 15  4  0  0  0  0
 14 29  1  0  0  0  0
 15 30  1  0  0  0  0
 16 17  1  0  0  0  0
 17 31  1  0  0  0  0
 17 32  1  0  0  0  0
 17 33  1  0  0  0  0
 18 19  1  0  0  0  0
 18 34  1  0  0  0  0
 19 20  1  0  0  0  0
 19 23  1  0  0  0  0
 19 35  1  0  0  0  0
 20 21  1  0  0  0  0
 20 36  1  0  0  0  0
 20 37  1  0  0  0  0
 21 22  1  0  0  0  0
 21 38  1  0  0  0  0
 21 39  1  0  0  0  0
 22 23  1  0  0  0  0
 22 24  1  0  0  0  0
 22 40  1  0  0  0  0
 23 41  1  0  0  0  0
 23 42  1  0  0  0  0
 24 43  1  0  0  0  0
 24 44  1  0  0  0  0
M  END
> <ConfClashScore>
0 

> <ConfOneFourInteractionScore>
-0.982693 

> <ConfScore>
0.00433317 

> <ConfScorePBest>
0.00243368 

> <ConfTolerance>
0.291398 

$$$$
c22.sdf
 OpenBabel04162418103D

 44 47  0  0  0  0  0  0  0  0999 V2000
    2.7358   -0.6077    0.3019 C   0  0  0  1  0  0  0  0  0  0  0  0
    2.1570   -0.1362    1.4108 N   0  0  0  1  0  0  0  0  0  0  0  0
    1.0212   -0.7268    1.8330 C   0  0  0  1  0  0  0  0  0  0  0  0
    0.5008   -1.8216    1.0830 C   0  0  0  1  0  0  0  0  0  0  0  0
    1.2349   -2.1820   -0.0403 C   0  0  0  1  0  0  0  0  0  0  0  0
    2.3732   -1.6038   -0.4922 N   0  0  0  1  0  0  0  0  0  0  0  0
   -0.5721   -2.7355    1.1013 C   0  0  0  1  0  0  0  0  0  0  0  0
   -0.5170   -3.5733    0.0918 N   0  0  0  1  0  0  0  0  0  0  0  0
    0.6024   -3.2300   -0.6146 N   0  0  0  1  0  0  0  0  0  0  0  0
    1.0403   -3.8842   -1.7898 C   0  0  0  1  0  0  0  0  0  0  0  0
    2.3440   -4.3115   -1.9571 C   0  0  0  1  0  0  0  0  0  0  0  0
    2.7182   -4.9526   -3.1277 C   0  0  0  1  0  0  0  0  0  0  0  0
    1.7891   -5.1599   -4.1298 C   0  0  0  1  0  0  0  0  0  0  0  0
    0.4816   -4.7312   -3.9618 C   0  0  0  1  0  0  0  0  0  0  0  0
    0.1083   -4.0920   -2.7946 C   0  0  0  1  0  0  0  0  0  0  0  0
    2.1561   -5.7815   -5.2755 O   0  0  0  1  0  0  0  0  0  0  0  0
    3.4653   -6.3707   -5.3120 C   0  0  0  1  0  0  0  0  0  0  0  0
    3.8668    0.0314   -0.0662 N   0  0  0  1  0  0  0  0  0  0  0  0
    4.6555   -0.3202   -1.2507 C   0  0  0  1  0  0  0  0  0  0  0  0
    3.8028   -0.1922   -2.5202 C   0  0  0  1  0  0  0  0  0  0  0  0
    3.7797   -1.5828   -3.1635 C   0  0  0  1  0  0  0  0  0  0  0  0
    5.0394   -2.2608   -2.6502 C   0  0  0  1  0  0  0  0  0  0  0  0
    5.0826   -1.7895   -1.1926 C   0  0  0  1  0  0  0  0  0  0  0  0
    6.2474   -1.8053   -3.4045 N   0  0  0  1  0  0  0  0  0  0  0  0
    0.5345   -0.3906    2.6884 H   0  0  0  1  0  0  0  0  0  0  0  0
   -1.3173   -2.7451    1.8267 H   0  0  0  1  0  0  0  0  0  0  0  0
    3.0441   -4.1520   -1.2047 H   0  0  0  1  0  0  0  0  0  0  0  0
    3.6982   -5.2777   -3.2520 H   0  0  0  1  0  0  0  0  0  0  0  0
   -0.2186   -4.8907   -4.7141 H   0  0  0  1  0  0  0  0  0  0  0  0
   -0.8717   -3.7668   -2.6703 H   0  0  0  1  0  0  0  0  0  0  0  0
    3.6300   -6.8159   -6.2710 H   0  0  0  1  0  0  0  0  0  0  0  0
    3.5397   -7.1213   -4.5531 H   0  0  0  1  0  0  0  0  0  0  0  0
    4.2017   -5.6139   -5.1392 H   0  0  0  1  0  0  0  0  0  0  0  0
    4.1789    0.7742    0.4916 H   0  0  0  1  0  0  0  0  0  0  0  0
    5.5133    0.3165   -1.3106 H   0  0  0  1  0  0  0  0  0  0  0  0
    2.8095    0.1168   -2.2698 H   0  0  0  1  0  0  0  0  0  0  0  0
    4.2398    0.5187   -3.1899 H   0  0  0  1  0  0  0  0  0  0  0  0
    2.9084   -2.1250   -2.8606 H   0  0  0  1  0  0  0  0  0  0  0  0
    3.7997   -1.5061   -4.2305 H   0  0  0  1  0  0  0  0  0  0  0  0
    4.9603   -3.3261   -2.7122 H   0  0  0  1  0  0  0  0  0  0  0  0
    4.4031   -2.3571   -0.5916 H   0  0  0  1  0  0  0  0  0  0  0  0
    6.0720   -1.8800   -0.7954 H   0  0  0  1  0  0  0  0  0  0  0  0
    6.3172   -0.8292   -3.3517 H   0  0  0  1  0  0  0  0  0  0  0  0
    6.1678   -2.0765   -4.3429 H   0  0  0  1  0  0  0  0  0  0  0  0
  1  2  4  0  0  0  0
  1  6  4  0  0  0  0
  1 18  1  0  0  0  0
  2  3  4  0  0  0  0
  3  4  4  0  0  0  0
  3 25  1  0  0  0  0
  4  5  4  0  0  0  0
  4  7  4  0  0  0  0
  5  6  4  0  0  0  0
  5  9  4  0  0  0  0
  7  8  4  0  0  0  0
  7 26  1  0  0  0  0
  8  9  4  0  0  0  0
  9 10  1  0  0  0  0
 10 11  4  0  0  0  0
 10 15  4  0  0  0  0
 11 12  4  0  0  0  0
 11 27  1  0  0  0  0
 12 13  4  0  0  0  0
 12 28  1  0  0  0  0
 13 14  4  0  0  0  0
 13 16  1  0  0  0  0
 14 15  4  0  0  0  0
 14 29  1  0  0  0  0
 15 30  1  0  0  0  0
 16 17  1  0  0  0  0
 17 31  1  0  0  0  0
 17 32  1  0  0  0  0
 17 33  1  0  0  0  0
 18 19  1  0  0  0  0
 18 34  1  0  0  0  0
 19 20  1  0  0  0  0
 19 23  1  0  0  0  0
 19 35  1  0  0  0  0
 20 21  1  0  0  0  0
 20 36  1  0  0  0  0
 20 37  1  0  0  0  0
 21 22  1  0  0  0  0
 21 38  1  0  0  0  0
 21 39  1  0  0  0  0
 22 23  1  0  0  0  0
 22 24  1  0  0  0  0
 22 40  1  0  0  0  0
 23 41  1  0  0  0  0
 23 42  1  0  0  0  0
 24 43  1  0  0  0  0
 24 44  1  0  0  0  0
M  END
> <ConfClashScore>
0 

> <ConfOneFourInteractionScore>
-0.980204 

> <ConfScore>
0.00526884 

> <ConfScorePBest>
0.00242035 

> <ConfTolerance>
0.272599 

$$$$
c22.sdf
 OpenBabel04162418103D

 44 47  0  0  0  0  0  0  0  0999 V2000
    3.3486    0.6956    0.7926 C   0  0  0  1  0  0  0  0  0  0  0  0
    3.3318    1.8131    0.0591 N   0  0  0  1  0  0  0  0  0  0  0  0
    2.7414    2.9060    0.5829 C   0  0  0  1  0  0  0  0  0  0  0  0
    2.1731    2.8168    1.8871 C   0  0  0  1  0  0  0  0  0  0  0  0
    2.2860    1.5784    2.5071 C   0  0  0  1  0  0  0  0  0  0  0  0
    2.8659    0.4629    2.0038 N   0  0  0  1  0  0  0  0  0  0  0  0
    1.5007    3.6161    2.8335 C   0  0  0  1  0  0  0  0  0  0  0  0
    1.2177    2.9450    3.9261 N   0  0  0  1  0  0  0  0  0  0  0  0
    1.7044    1.6834    3.7233 N   0  0  0  1  0  0  0  0  0  0  0  0
    1.6122    0.6321    4.6578 C   0  0  0  1  0  0  0  0  0  0  0  0
    0.5650    0.5279    5.5537 C   0  0  0  1  0  0  0  0  0  0  0  0
    0.5211   -0.5301    6.4482 C   0  0  0  1  0  0  0  0  0  0  0  0
    1.5271   -1.4779    6.4477 C   0  0  0  1  0  0  0  0  0  0  0  0
    2.5773   -1.3732    5.5490 C   0  0  0  1  0  0  0  0  0  0  0  0
    2.6212   -0.3183    4.6571 C   0  0  0  1  0  0  0  0  0  0  0  0
    1.3798   -2.4602    7.3682 O   0  0  0  1  0  0  0  0  0  0  0  0
    2.5192   -3.2963    7.6237 C   0  0  0  1  0  0  0  0  0  0  0  0
    3.9663   -0.3865    0.1929 N   0  0  0  1  0  0  0  0  0  0  0  0
    4.4517   -0.2788   -1.1861 C   0  0  0  1  0  0  0  0  0  0  0  0
    3.3072   -0.4814   -2.1713 C   0  0  0  1  0  0  0  0  0  0  0  0
    3.9606   -1.1295   -3.3989 C   0  0  0  1  0  0  0  0  0  0  0  0
    4.9232   -2.1209   -2.7395 C   0  0  0  1  0  0  0  0  0  0  0  0
    5.4536   -1.3985   -1.4910 C   0  0  0  1  0  0  0  0  0  0  0  0
    6.0369   -2.4538   -3.6596 N   0  0  0  1  0  0  0  0  0  0  0  0
    2.7014    3.7961    0.0464 H   0  0  0  1  0  0  0  0  0  0  0  0
    1.2581    4.6163    2.6845 H   0  0  0  1  0  0  0  0  0  0  0  0
   -0.1899    1.2432    5.5569 H   0  0  0  1  0  0  0  0  0  0  0  0
   -0.2689   -0.6108    7.1197 H   0  0  0  1  0  0  0  0  0  0  0  0
    3.3322   -2.0886    5.5459 H   0  0  0  1  0  0  0  0  0  0  0  0
    3.4112   -0.2376    3.9855 H   0  0  0  1  0  0  0  0  0  0  0  0
    3.0906   -3.4055    6.7257 H   0  0  0  1  0  0  0  0  0  0  0  0
    2.1881   -4.2585    7.9546 H   0  0  0  1  0  0  0  0  0  0  0  0
    3.1276   -2.8479    8.3811 H   0  0  0  1  0  0  0  0  0  0  0  0
    4.0795   -1.2241    0.6890 H   0  0  0  1  0  0  0  0  0  0  0  0
    4.9054    0.6793   -1.3312 H   0  0  0  1  0  0  0  0  0  0  0  0
    2.5616   -1.1267   -1.7560 H   0  0  0  1  0  0  0  0  0  0  0  0
    2.8630    0.4566   -2.4315 H   0  0  0  1  0  0  0  0  0  0  0  0
    4.4857   -0.4080   -3.9894 H   0  0  0  1  0  0  0  0  0  0  0  0
    3.2379   -1.6315   -4.0076 H   0  0  0  1  0  0  0  0  0  0  0  0
    4.4077   -3.0170   -2.4637 H   0  0  0  1  0  0  0  0  0  0  0  0
    5.5125   -2.0780   -0.6666 H   0  0  0  1  0  0  0  0  0  0  0  0
    6.4221   -0.9868   -1.6843 H   0  0  0  1  0  0  0  0  0  0  0  0
    6.6545   -3.0717   -3.2156 H   0  0  0  1  0  0  0  0  0  0  0  0
    6.5149   -1.6339   -3.9038 H   0  0  0  1  0  0  0  0  0  0  0  0
  1  2  4  0  0  0  0
  1  6  4  0  0  0  0
  1 18  1  0  0  0  0
  2  3  4  0  0  0  0
  3  4  4  0  0  0  0
  3 25  1  0  0  0  0
  4  5  4  0  0  0  0
  4  7  4  0  0  0  0
  5  6  4  0  0  0  0
  5  9  4  0  0  0  0
  7  8  4  0  0  0  0
  7 26  1  0  0  0  0
  8  9  4  0  0  0  0
  9 10  1  0  0  0  0
 10 11  4  0  0  0  0
 10 15  4  0  0  0  0
 11 12  4  0  0  0  0
 11 27  1  0  0  0  0
 12 13  4  0  0  0  0
 12 28  1  0  0  0  0
 13 14  4  0  0  0  0
 13 16  1  0  0  0  0
 14 15  4  0  0  0  0
 14 29  1  0  0  0  0
 15 30  1  0  0  0  0
 16 17  1  0  0  0  0
 17 31  1  0  0  0  0
 17 32  1  0  0  0  0
 17 33  1  0  0  0  0
 18 19  1  0  0  0  0
 18 34  1  0  0  0  0
 19 20  1  0  0  0  0
 19 23  1  0  0  0  0
 19 35  1  0  0  0  0
 20 21  1  0  0  0  0
 20 36  1  0  0  0  0
 20 37  1  0  0  0  0
 21 22  1  0  0  0  0
 21 38  1  0  0  0  0
 21 39  1  0  0  0  0
 22 23  1  0  0  0  0
 22 24  1  0  0  0  0
 22 40  1  0  0  0  0
 23 41  1  0  0  0  0
 23 42  1  0  0  0  0
 24 43  1  0  0  0  0
 24 44  1  0  0  0  0
M  END
> <ConfClashScore>
0 

> <ConfOneFourInteractionScore>
-0.984337 

> <ConfScore>
0.00627676 

> <ConfScorePBest>
0.00240702 

> <ConfTolerance>
0.32192 

$$$$
c22.sdf
 OpenBabel04162418103D

 44 47  0  0  0  0  0  0  0  0999 V2000
    3.5726    1.0785    0.5921 C   0  0  0  1  0  0  0  0  0  0  0  0
    4.2529    2.1112    0.0844 N   0  0  0  1  0  0  0  0  0  0  0  0
    4.0972    3.3187    0.6633 C   0  0  0  1  0  0  0  0  0  0  0  0
    3.2242    3.4314    1.7844 C   0  0  0  1  0  0  0  0  0  0  0  0
    2.6022    2.2540    2.1811 C   0  0  0  1  0  0  0  0  0  0  0  0
    2.7335    1.0303    1.6158 N   0  0  0  1  0  0  0  0  0  0  0  0
    2.7545    4.3947    2.7000 C   0  0  0  1  0  0  0  0  0  0  0  0
    1.9218    3.8743    3.5717 N   0  0  0  1  0  0  0  0  0  0  0  0
    1.8281    2.5487    3.2499 N   0  0  0  1  0  0  0  0  0  0  0  0
    1.0306    1.6137    3.9404 C   0  0  0  1  0  0  0  0  0  0  0  0
   -0.1726    1.9574    4.5271 C   0  0  0  1  0  0  0  0  0  0  0  0
   -0.9199    0.9962    5.1898 C   0  0  0  1  0  0  0  0  0  0  0  0
   -0.4593   -0.3046    5.2685 C   0  0  0  1  0  0  0  0  0  0  0  0
    0.7476   -0.6491    4.6800 C   0  0  0  1  0  0  0  0  0  0  0  0
    1.4928    0.3092    4.0192 C   0  0  0  1  0  0  0  0  0  0  0  0
   -1.2706   -1.1525    5.9442 O   0  0  0  1  0  0  0  0  0  0  0  0
   -0.8916   -2.5373    5.9767 C   0  0  0  1  0  0  0  0  0  0  0  0
    3.7701   -0.0885   -0.0311 N   0  0  0  1  0  0  0  0  0  0  0  0
    4.6103   -0.3146   -1.2349 C   0  0  0  1  0  0  0  0  0  0  0  0
    3.7543   -0.2284   -2.5039 C   0  0  0  1  0  0  0  0  0  0  0  0
    3.7600   -1.6341   -3.0915 C   0  0  0  1  0  0  0  0  0  0  0  0
    5.1040   -2.2324   -2.6561 C   0  0  0  1  0  0  0  0  0  0  0  0
    5.2025   -1.7326   -1.2122 C   0  0  0  1  0  0  0  0  0  0  0  0
    6.2197   -1.7189   -3.4846 N   0  0  0  1  0  0  0  0  0  0  0  0
    4.6036    4.1510    0.2992 H   0  0  0  1  0  0  0  0  0  0  0  0
    3.0338    5.3964    2.6867 H   0  0  0  1  0  0  0  0  0  0  0  0
   -0.5174    2.9370    4.4713 H   0  0  0  1  0  0  0  0  0  0  0  0
   -1.8273    1.2538    5.6279 H   0  0  0  1  0  0  0  0  0  0  0  0
    1.0924   -1.6287    4.7357 H   0  0  0  1  0  0  0  0  0  0  0  0
    2.4002    0.0516    3.5811 H   0  0  0  1  0  0  0  0  0  0  0  0
   -1.2815   -2.9937    6.8625 H   0  0  0  1  0  0  0  0  0  0  0  0
    0.1756   -2.6148    5.9759 H   0  0  0  1  0  0  0  0  0  0  0  0
   -1.2865   -3.0352    5.1158 H   0  0  0  1  0  0  0  0  0  0  0  0
    3.3156   -0.8717    0.3436 H   0  0  0  1  0  0  0  0  0  0  0  0
    5.3935    0.4138   -1.2658 H   0  0  0  1  0  0  0  0  0  0  0  0
    2.7562    0.0723   -2.2625 H   0  0  0  1  0  0  0  0  0  0  0  0
    4.1797    0.4683   -3.1958 H   0  0  0  1  0  0  0  0  0  0  0  0
    2.9468   -2.2095   -2.7011 H   0  0  0  1  0  0  0  0  0  0  0  0
    3.6916   -1.5972   -4.1587 H   0  0  0  1  0  0  0  0  0  0  0  0
    5.0891   -3.3014   -2.7000 H   0  0  0  1  0  0  0  0  0  0  0  0
    6.2235   -1.7076   -0.8929 H   0  0  0  1  0  0  0  0  0  0  0  0
    4.6389   -2.3640   -0.5576 H   0  0  0  1  0  0  0  0  0  0  0  0
    6.1312   -0.7483   -3.5872 H   0  0  0  1  0  0  0  0  0  0  0  0
    6.1935   -2.1441   -4.3672 H   0  0  0  1  0  0  0  0  0  0  0  0
  1  2  4  0  0  0  0
  1  6  4  0  0  0  0
  1 18  1  0  0  0  0
  2  3  4  0  0  0  0
  3  4  4  0  0  0  0
  3 25  1  0  0  0  0
  4  5  4  0  0  0  0
  4  7  4  0  0  0  0
  5  6  4  0  0  0  0
  5  9  4  0  0  0  0
  7  8  4  0  0  0  0
  7 26  1  0  0  0  0
  8  9  4  0  0  0  0
  9 10  1  0  0  0  0
 10 11  4  0  0  0  0
 10 15  4  0  0  0  0
 11 12  4  0  0  0  0
 11 27  1  0  0  0  0
 12 13  4  0  0  0  0
 12 28  1  0  0  0  0
 13 14  4  0  0  0  0
 13 16  1  0  0  0  0
 14 15  4  0  0  0  0
 14 29  1  0  0  0  0
 15 30  1  0  0  0  0
 16 17  1  0  0  0  0
 17 31  1  0  0  0  0
 17 32  1  0  0  0  0
 17 33  1  0  0  0  0
 18 19  1  0  0  0  0
 18 34  1  0  0  0  0
 19 20  1  0  0  0  0
 19 23  1  0  0  0  0
 19 35  1  0  0  0  0
 20 21  1  0  0  0  0
 20 36  1  0  0  0  0
 20 37  1  0  0  0  0
 21 22  1  0  0  0  0
 21 38  1  0  0  0  0
 21 39  1  0  0  0  0
 22 23  1  0  0  0  0
 22 24  1  0  0  0  0
 22 40  1  0  0  0  0
 23 41  1  0  0  0  0
 23 42  1  0  0  0  0
 24 43  1  0  0  0  0
 24 44  1  0  0  0  0
M  END
> <ConfClashScore>
0 

> <ConfOneFourInteractionScore>
-0.984337 

> <ConfScore>
0.00645724 

> <ConfScorePBest>
0.0023937 

> <ConfTolerance>
0.466346 

$$$$
c22.sdf
 OpenBabel04162418103D

 44 47  0  0  0  0  0  0  0  0999 V2000
    2.7556   -0.5507    0.8650 C   0  0  0  1  0  0  0  0  0  0  0  0
    2.3424   -1.3824    1.8265 N   0  0  0  1  0  0  0  0  0  0  0  0
    1.4219   -0.9315    2.7021 C   0  0  0  1  0  0  0  0  0  0  0  0
    0.9345    0.4001    2.5558 C   0  0  0  1  0  0  0  0  0  0  0  0
    1.4709    1.1222    1.4968 C   0  0  0  1  0  0  0  0  0  0  0  0
    2.4001    0.6989    0.6071 N   0  0  0  1  0  0  0  0  0  0  0  0
    0.0203    1.2914    3.1528 C   0  0  0  1  0  0  0  0  0  0  0  0
   -0.0057    2.4500    2.5355 N   0  0  0  1  0  0  0  0  0  0  0  0
    0.8926    2.3444    1.5100 N   0  0  0  1  0  0  0  0  0  0  0  0
    1.1780    3.3728    0.5892 C   0  0  0  1  0  0  0  0  0  0  0  0
    1.0882    4.7110    0.9229 C   0  0  0  1  0  0  0  0  0  0  0  0
    1.3856    5.6819   -0.0207 C   0  0  0  1  0  0  0  0  0  0  0  0
    1.7667    5.3119   -1.2967 C   0  0  0  1  0  0  0  0  0  0  0  0
    1.8567    3.9696   -1.6312 C   0  0  0  1  0  0  0  0  0  0  0  0
    1.5602    3.0015   -0.6904 C   0  0  0  1  0  0  0  0  0  0  0  0
    2.0382    6.3087   -2.1722 O   0  0  0  1  0  0  0  0  0  0  0  0
    1.6059    7.6310   -1.8157 C   0  0  0  1  0  0  0  0  0  0  0  0
    3.6764   -1.0628    0.0287 N   0  0  0  1  0  0  0  0  0  0  0  0
    4.3801   -0.4072   -1.0663 C   0  0  0  1  0  0  0  0  0  0  0  0
    3.4459   -0.2177   -2.2671 C   0  0  0  1  0  0  0  0  0  0  0  0
    3.9971   -1.1160   -3.3856 C   0  0  0  1  0  0  0  0  0  0  0  0
    4.8815   -2.1447   -2.6758 C   0  0  0  1  0  0  0  0  0  0  0  0
    5.5158   -1.2874   -1.5729 C   0  0  0  1  0  0  0  0  0  0  0  0
    5.9069   -2.6983   -3.5882 N   0  0  0  1  0  0  0  0  0  0  0  0
    1.0745   -1.5425    3.4686 H   0  0  0  1  0  0  0  0  0  0  0  0
   -0.5630    1.0595    3.9820 H   0  0  0  1  0  0  0  0  0  0  0  0
    0.7976    4.9895    1.8818 H   0  0  0  1  0  0  0  0  0  0  0  0
    1.3220    6.6888    0.2315 H   0  0  0  1  0  0  0  0  0  0  0  0
    2.1473    3.6911   -2.5901 H   0  0  0  1  0  0  0  0  0  0  0  0
    1.6238    1.9945   -0.9426 H   0  0  0  1  0  0  0  0  0  0  0  0
    1.7913    8.2993   -2.6305 H   0  0  0  1  0  0  0  0  0  0  0  0
    2.1458    7.9621   -0.9533 H   0  0  0  1  0  0  0  0  0  0  0  0
    0.5584    7.6169   -1.5976 H   0  0  0  1  0  0  0  0  0  0  0  0
    3.9050   -2.0044    0.1756 H   0  0  0  1  0  0  0  0  0  0  0  0
    4.7580    0.5369   -0.7334 H   0  0  0  1  0  0  0  0  0  0  0  0
    3.4465    0.8057   -2.5793 H   0  0  0  1  0  0  0  0  0  0  0  0
    2.4495   -0.5127   -2.0118 H   0  0  0  1  0  0  0  0  0  0  0  0
    4.5739   -0.5404   -4.0790 H   0  0  0  1  0  0  0  0  0  0  0  0
    3.1975   -1.6029   -3.9038 H   0  0  0  1  0  0  0  0  0  0  0  0
    4.3002   -2.9435   -2.2650 H   0  0  0  1  0  0  0  0  0  0  0  0
    5.8942   -1.9053   -0.7855 H   0  0  0  1  0  0  0  0  0  0  0  0
    6.3090   -0.6887   -1.9696 H   0  0  0  1  0  0  0  0  0  0  0  0
    6.4861   -3.3150   -3.0936 H   0  0  0  1  0  0  0  0  0  0  0  0
    6.4464   -1.9671   -3.9550 H   0  0  0  1  0  0  0  0  0  0  0  0
  1  2  4  0  0  0  0
  1  6  4  0  0  0  0
  1 18  1  0  0  0  0
  2  3  4  0  0  0  0
  3  4  4  0  0  0  0
  3 25  1  0  0  0  0
  4  5  4  0  0  0  0
  4  7  4  0  0  0  0
  5  6  4  0  0  0  0
  5  9  4  0  0  0  0
  7  8  4  0  0  0  0
  7 26  1  0  0  0  0
  8  9  4  0  0  0  0
  9 10  1  0  0  0  0
 10 11  4  0  0  0  0
 10 15  4  0  0  0  0
 11 12  4  0  0  0  0
 11 27  1  0  0  0  0
 12 13  4  0  0  0  0
 12 28  1  0  0  0  0
 13 14  4  0  0  0  0
 13 16  1  0  0  0  0
 14 15  4  0  0  0  0
 14 29  1  0  0  0  0
 15 30  1  0  0  0  0
 16 17  1  0  0  0  0
 17 31  1  0  0  0  0
 17 32  1  0  0  0  0
 17 33  1  0  0  0  0
 18 19  1  0  0  0  0
 18 34  1  0  0  0  0
 19 20  1  0  0  0  0
 19 23  1  0  0  0  0
 19 35  1  0  0  0  0
 20 21  1  0  0  0  0
 20 36  1  0  0  0  0
 20 37  1  0  0  0  0
 21 22  1  0  0  0  0
 21 38  1  0  0  0  0
 21 39  1  0  0  0  0
 22 23  1  0  0  0  0
 22 24  1  0  0  0  0
 22 40  1  0  0  0  0
 23 41  1  0  0  0  0
 23 42  1  0  0  0  0
 24 43  1  0  0  0  0
 24 44  1  0  0  0  0
M  END
> <ConfClashScore>
0 

> <ConfOneFourInteractionScore>
-0.984337 

> <ConfScore>
0.00993319 

> <ConfScorePBest>
0.00238037 

> <ConfTolerance>
0.343402 

$$$$
c22.sdf
 OpenBabel04162418103D

 44 47  0  0  0  0  0  0  0  0999 V2000
    3.7477   -1.1351    1.3081 C   0  0  0  1  0  0  0  0  0  0  0  0
    2.9404   -1.8844    2.0657 N   0  0  0  1  0  0  0  0  0  0  0  0
    3.1107   -1.8468    3.4025 C   0  0  0  1  0  0  0  0  0  0  0  0
    4.1334   -1.0105    3.9377 C   0  0  0  1  0  0  0  0  0  0  0  0
    4.8749   -0.2972    3.0039 C   0  0  0  1  0  0  0  0  0  0  0  0
    4.7318   -0.3202    1.6574 N   0  0  0  1  0  0  0  0  0  0  0  0
    4.6780   -0.6233    5.1788 C   0  0  0  1  0  0  0  0  0  0  0  0
    5.6604    0.2358    5.0340 N   0  0  0  1  0  0  0  0  0  0  0  0
    5.7816    0.4373    3.6870 N   0  0  0  1  0  0  0  0  0  0  0  0
    6.7262    1.2966    3.0899 C   0  0  0  1  0  0  0  0  0  0  0  0
    7.8850    0.7291    2.5947 C   0  0  0  1  0  0  0  0  0  0  0  0
    8.8451    1.5275    1.9927 C   0  0  0  1  0  0  0  0  0  0  0  0
    8.6460    2.8915    1.8924 C   0  0  0  1  0  0  0  0  0  0  0  0
    7.4836    3.4605    2.3891 C   0  0  0  1  0  0  0  0  0  0  0  0
    6.5263    2.6646    2.9894 C   0  0  0  1  0  0  0  0  0  0  0  0
    9.5458    3.7269    1.3212 O   0  0  0  1  0  0  0  0  0  0  0  0
   10.7510    3.1402    0.8059 C   0  0  0  1  0  0  0  0  0  0  0  0
    3.5229   -1.2235   -0.0345 N   0  0  0  1  0  0  0  0  0  0  0  0
    4.3218   -0.4741   -0.9957 C   0  0  0  1  0  0  0  0  0  0  0  0
    3.5036   -0.1712   -2.2411 C   0  0  0  1  0  0  0  0  0  0  0  0
    4.1073   -0.9655   -3.4110 C   0  0  0  1  0  0  0  0  0  0  0  0
    4.9649   -2.0084   -2.7159 C   0  0  0  1  0  0  0  0  0  0  0  0
    5.5188   -1.3192   -1.4717 C   0  0  0  1  0  0  0  0  0  0  0  0
    6.0635   -2.4406   -3.5964 N   0  0  0  1  0  0  0  0  0  0  0  0
    2.5082   -2.4163    4.0304 H   0  0  0  1  0  0  0  0  0  0  0  0
    4.3423   -0.9754    6.0980 H   0  0  0  1  0  0  0  0  0  0  0  0
    8.0367   -0.2967    2.6737 H   0  0  0  1  0  0  0  0  0  0  0  0
    9.7153    1.1000    1.6165 H   0  0  0  1  0  0  0  0  0  0  0  0
    7.3319    4.4863    2.3101 H   0  0  0  1  0  0  0  0  0  0  0  0
    5.6560    3.0920    3.3657 H   0  0  0  1  0  0  0  0  0  0  0  0
   10.6307    2.9350   -0.2373 H   0  0  0  1  0  0  0  0  0  0  0  0
   10.9547    2.2283    1.3273 H   0  0  0  1  0  0  0  0  0  0  0  0
   11.5657    3.8201    0.9438 H   0  0  0  1  0  0  0  0  0  0  0  0
    2.8056   -1.8060   -0.3610 H   0  0  0  1  0  0  0  0  0  0  0  0
    4.6635    0.4342   -0.5451 H   0  0  0  1  0  0  0  0  0  0  0  0
    3.5428    0.8765   -2.4552 H   0  0  0  1  0  0  0  0  0  0  0  0
    2.4867   -0.4667   -2.0881 H   0  0  0  1  0  0  0  0  0  0  0  0
    4.7029   -0.3340   -4.0366 H   0  0  0  1  0  0  0  0  0  0  0  0
    3.3405   -1.4279   -3.9968 H   0  0  0  1  0  0  0  0  0  0  0  0
    4.3728   -2.8562   -2.4410 H   0  0  0  1  0  0  0  0  0  0  0  0
    6.3569   -0.6998   -1.7141 H   0  0  0  1  0  0  0  0  0  0  0  0
    5.8061   -2.0345   -0.7296 H   0  0  0  1  0  0  0  0  0  0  0  0
    5.6992   -2.9608   -4.3428 H   0  0  0  1  0  0  0  0  0  0  0  0
    6.6908   -2.9954   -3.0874 H   0  0  0  1  0  0  0  0  0  0  0  0
  1  2  4  0  0  0  0
  1  6  4  0  0  0  0
  1 18  1  0  0  0  0
  2  3  4  0  0  0  0
  3  4  4  0  0  0  0
  3 25  1  0  0  0  0
  4  5  4  0  0  0  0
  4  7  4  0  0  0  0
  5  6  4  0  0  0  0
  5  9  4  0  0  0  0
  7  8  4  0  0  0  0
  7 26  1  0  0  0  0
  8  9  4  0  0  0  0
  9 10  1  0  0  0  0
 10 11  4  0  0  0  0
 10 15  4  0  0  0  0
 11 12  4  0  0  0  0
 11 27  1  0  0  0  0
 12 13  4  0  0  0  0
 12 28  1  0  0  0  0
 13 14  4  0  0  0  0
 13 16  1  0  0  0  0
 14 15  4  0  0  0  0
 14 29  1  0  0  0  0
 15 30  1  0  0  0  0
 16 17  1  0  0  0  0
 17 31  1  0  0  0  0
 17 32  1  0  0  0  0
 17 33  1  0  0  0  0
 18 19  1  0  0  0  0
 18 34  1  0  0  0  0
 19 20  1  0  0  0  0
 19 23  1  0  0  0  0
 19 35  1  0  0  0  0
 20 21  1  0  0  0  0
 20 36  1  0  0  0  0
 20 37  1  0  0  0  0
 21 22  1  0  0  0  0
 21 38  1  0  0  0  0
 21 39  1  0  0  0  0
 22 23  1  0  0  0  0
 22 24  1  0  0  0  0
 22 40  1  0  0  0  0
 23 41  1  0  0  0  0
 23 42  1  0  0  0  0
 24 43  1  0  0  0  0
 24 44  1  0  0  0  0
M  END
> <ConfClashScore>
0 

> <ConfOneFourInteractionScore>
-0.984337 

> <ConfScore>
0.0101525 

> <ConfScorePBest>
0.00236704 

> <ConfTolerance>
0.539595 

$$$$
c22.sdf
 OpenBabel04162418103D

 44 47  0  0  0  0  0  0  0  0999 V2000
    3.8104    0.6620    0.9808 C   0  0  0  1  0  0  0  0  0  0  0  0
    2.8457    0.6767    1.9061 N   0  0  0  1  0  0  0  0  0  0  0  0
    2.9561    1.5550    2.9228 C   0  0  0  1  0  0  0  0  0  0  0  0
    4.0866    2.4226    2.9565 C   0  0  0  1  0  0  0  0  0  0  0  0
    4.9885    2.2735    1.9101 C   0  0  0  1  0  0  0  0  0  0  0  0
    4.9079    1.3968    0.8810 N   0  0  0  1  0  0  0  0  0  0  0  0
    4.6325    3.4619    3.7366 C   0  0  0  1  0  0  0  0  0  0  0  0
    5.7599    3.9092    3.2336 N   0  0  0  1  0  0  0  0  0  0  0  0
    5.9796    3.1729    2.1025 N   0  0  0  1  0  0  0  0  0  0  0  0
    7.1029    3.3322    1.2417 C   0  0  0  1  0  0  0  0  0  0  0  0
    7.7123    2.2227    0.6869 C   0  0  0  1  0  0  0  0  0  0  0  0
    8.8576    2.3720   -0.0796 C   0  0  0  1  0  0  0  0  0  0  0  0
    9.3931    3.6295   -0.2847 C   0  0  0  1  0  0  0  0  0  0  0  0
    8.7817    4.7422    0.2718 C   0  0  0  1  0  0  0  0  0  0  0  0
    7.6398    4.5935    1.0362 C   0  0  0  1  0  0  0  0  0  0  0  0
   10.5139    3.6505   -1.0444 O   0  0  0  1  0  0  0  0  0  0  0  0
   11.0691    4.9369   -1.3596 C   0  0  0  1  0  0  0  0  0  0  0  0
    3.6399   -0.2399   -0.0025 N   0  0  0  1  0  0  0  0  0  0  0  0
    4.5335   -0.3686   -1.1570 C   0  0  0  1  0  0  0  0  0  0  0  0
    3.7650   -0.1000   -2.4561 C   0  0  0  1  0  0  0  0  0  0  0  0
    3.7505   -1.4299   -3.1994 C   0  0  0  1  0  0  0  0  0  0  0  0
    5.0380   -2.1372   -2.7567 C   0  0  0  1  0  0  0  0  0  0  0  0
    5.0642   -1.8071   -1.2618 C   0  0  0  1  0  0  0  0  0  0  0  0
    6.2255   -1.5883   -3.4541 N   0  0  0  1  0  0  0  0  0  0  0  0
    2.2312    1.5988    3.6673 H   0  0  0  1  0  0  0  0  0  0  0  0
    4.1952    3.8299    4.6055 H   0  0  0  1  0  0  0  0  0  0  0  0
    7.3117    1.2760    0.8445 H   0  0  0  1  0  0  0  0  0  0  0  0
    9.3139    1.5376   -0.5005 H   0  0  0  1  0  0  0  0  0  0  0  0
    9.1823    5.6889    0.1142 H   0  0  0  1  0  0  0  0  0  0  0  0
    7.1834    5.4279    1.4570 H   0  0  0  1  0  0  0  0  0  0  0  0
   11.7264    5.2447   -0.5734 H   0  0  0  1  0  0  0  0  0  0  0  0
   10.2786    5.6506   -1.4631 H   0  0  0  1  0  0  0  0  0  0  0  0
   11.6159    4.8740   -2.2772 H   0  0  0  1  0  0  0  0  0  0  0  0
    2.8728   -0.8468    0.0565 H   0  0  0  1  0  0  0  0  0  0  0  0
    5.3464    0.3202   -1.0580 H   0  0  0  1  0  0  0  0  0  0  0  0
    4.2622    0.6483   -3.0373 H   0  0  0  1  0  0  0  0  0  0  0  0
    2.7667    0.2196   -2.2412 H   0  0  0  1  0  0  0  0  0  0  0  0
    2.8909   -2.0055   -2.9262 H   0  0  0  1  0  0  0  0  0  0  0  0
    3.7523   -1.2708   -4.2575 H   0  0  0  1  0  0  0  0  0  0  0  0
    4.9820   -3.1926   -2.9235 H   0  0  0  1  0  0  0  0  0  0  0  0
    4.4342   -2.4797   -0.7182 H   0  0  0  1  0  0  0  0  0  0  0  0
    6.0627   -1.8671   -0.8820 H   0  0  0  1  0  0  0  0  0  0  0  0
    6.1217   -1.7089   -4.4210 H   0  0  0  1  0  0  0  0  0  0  0  0
    7.0292   -2.0598   -3.1506 H   0  0  0  1  0  0  0  0  0  0  0  0
  1  2  4  0  0  0  0
  1  6  4  0  0  0  0
  1 18  1  0  0  0  0
  2  3  4  0  0  0  0
  3  4  4  0  0  0  0
  3 25  1  0  0  0  0
  4  5  4  0  0  0  0
  4  7  4  0  0  0  0
  5  6  4  0  0  0  0
  5  9  4  0  0  0  0
  7  8  4  0  0  0  0
  7 26  1  0  0  0  0
  8  9  4  0  0  0  0
  9 10  1  0  0  0  0
 10 11  4  0  0  0  0
 10 15  4  0  0  0  0
 11 12  4  0  0  0  0
 11 27  1  0  0  0  0
 12 13  4  0  0  0  0
 12 28  1  0  0  0  0
 13 14  4  0  0  0  0
 13 16  1  0  0  0  0
 14 15  4  0  0  0  0
 14 29  1  0  0  0  0
 15 30  1  0  0  0  0
 16 17  1  0  0  0  0
 17 31  1  0  0  0  0
 17 32  1  0  0  0  0
 17 33  1  0  0  0  0
 18 19  1  0  0  0  0
 18 34  1  0  0  0  0
 19 20  1  0  0  0  0
 19 23  1  0  0  0  0
 19 35  1  0  0  0  0
 20 21  1  0  0  0  0
 20 36  1  0  0  0  0
 20 37  1  0  0  0  0
 21 22  1  0  0  0  0
 21 38  1  0  0  0  0
 21 39  1  0  0  0  0
 22 23  1  0  0  0  0
 22 24  1  0  0  0  0
 22 40  1  0  0  0  0
 23 41  1  0  0  0  0
 23 42  1  0  0  0  0
 24 43  1  0  0  0  0
 24 44  1  0  0  0  0
M  END
> <ConfClashScore>
0 

> <ConfOneFourInteractionScore>
-0.984337 

> <ConfScore>
0.0110518 

> <ConfScorePBest>
0.00235371 

> <ConfTolerance>
0.473489 

$$$$
c22.sdf
 OpenBabel04162418103D

 44 47  0  0  0  0  0  0  0  0999 V2000
    2.8306   -0.8971    0.3851 C   0  0  0  1  0  0  0  0  0  0  0  0
    2.5752   -1.9831   -0.3513 N   0  0  0  1  0  0  0  0  0  0  0  0
    1.5918   -2.8094    0.0579 C   0  0  0  1  0  0  0  0  0  0  0  0
    0.8743   -2.4820    1.2453 C   0  0  0  1  0  0  0  0  0  0  0  0
    1.2701   -1.3121    1.8819 C   0  0  0  1  0  0  0  0  0  0  0  0
    2.2572   -0.4676    1.4991 N   0  0  0  1  0  0  0  0  0  0  0  0
   -0.1824   -2.9674    2.0419 C   0  0  0  1  0  0  0  0  0  0  0  0
   -0.4165   -2.1862    3.0710 N   0  0  0  1  0  0  0  0  0  0  0  0
    0.4832   -1.1613    2.9712 N   0  0  0  1  0  0  0  0  0  0  0  0
    0.5781   -0.0865    3.8857 C   0  0  0  1  0  0  0  0  0  0  0  0
    1.6586   -0.0023    4.7434 C   0  0  0  1  0  0  0  0  0  0  0  0
    1.7542    1.0539    5.6359 C   0  0  0  1  0  0  0  0  0  0  0  0
    0.7665    2.0201    5.6719 C   0  0  0  1  0  0  0  0  0  0  0  0
   -0.3172    1.9355    4.8116 C   0  0  0  1  0  0  0  0  0  0  0  0
   -0.4127    0.8824    3.9217 C   0  0  0  1  0  0  0  0  0  0  0  0
    0.7490    3.0908    6.5009 O   0  0  0  1  0  0  0  0  0  0  0  0
    1.7881    3.1729    7.4887 C   0  0  0  1  0  0  0  0  0  0  0  0
    3.8254   -0.1187   -0.0776 N   0  0  0  1  0  0  0  0  0  0  0  0
    4.5959   -0.3301   -1.3040 C   0  0  0  1  0  0  0  0  0  0  0  0
    3.6766   -0.2542   -2.5286 C   0  0  0  1  0  0  0  0  0  0  0  0
    3.6711   -1.6594   -3.1175 C   0  0  0  1  0  0  0  0  0  0  0  0
    5.0427   -2.2405   -2.7504 C   0  0  0  1  0  0  0  0  0  0  0  0
    5.2068   -1.7403   -1.3127 C   0  0  0  1  0  0  0  0  0  0  0  0
    6.1188   -1.7072   -3.6411 N   0  0  0  1  0  0  0  0  0  0  0  0
    1.3612   -3.6680   -0.4817 H   0  0  0  1  0  0  0  0  0  0  0  0
   -0.7125   -3.8388    1.8390 H   0  0  0  1  0  0  0  0  0  0  0  0
    2.3998   -0.7314    4.7191 H   0  0  0  1  0  0  0  0  0  0  0  0
    2.5693    1.1195    6.2785 H   0  0  0  1  0  0  0  0  0  0  0  0
   -1.0585    2.6646    4.8359 H   0  0  0  1  0  0  0  0  0  0  0  0
   -1.2278    0.8168    3.2790 H   0  0  0  1  0  0  0  0  0  0  0  0
    1.6664    4.0684    8.0616 H   0  0  0  1  0  0  0  0  0  0  0  0
    2.7414    3.1873    7.0030 H   0  0  0  1  0  0  0  0  0  0  0  0
    1.7308    2.3241    8.1377 H   0  0  0  1  0  0  0  0  0  0  0  0
    4.0572    0.6675    0.4595 H   0  0  0  1  0  0  0  0  0  0  0  0
    5.3671    0.4084   -1.3731 H   0  0  0  1  0  0  0  0  0  0  0  0
    4.0579    0.4483   -3.2400 H   0  0  0  1  0  0  0  0  0  0  0  0
    2.6880    0.0334   -2.2373 H   0  0  0  1  0  0  0  0  0  0  0  0
    2.8858   -2.2455   -2.6877 H   0  0  0  1  0  0  0  0  0  0  0  0
    3.5490   -1.6228   -4.1799 H   0  0  0  1  0  0  0  0  0  0  0  0
    5.0395   -3.3096   -2.7949 H   0  0  0  1  0  0  0  0  0  0  0  0
    6.2420   -1.7022   -1.0447 H   0  0  0  1  0  0  0  0  0  0  0  0
    4.6847   -2.3793   -0.6315 H   0  0  0  1  0  0  0  0  0  0  0  0
    6.9954   -1.9110   -3.2533 H   0  0  0  1  0  0  0  0  0  0  0  0
    6.0184   -0.7363   -3.7290 H   0  0  0  1  0  0  0  0  0  0  0  0
  1  2  4  0  0  0  0
  1  6  4  0  0  0  0
  1 18  1  0  0  0  0
  2  3  4  0  0  0  0
  3  4  4  0  0  0  0
  3 25  1  0  0  0  0
  4  5  4  0  0  0  0
  4  7  4  0  0  0  0
  5  6  4  0  0  0  0
  5  9  4  0  0  0  0
  7  8  4  0  0  0  0
  7 26  1  0  0  0  0
  8  9  4  0  0  0  0
  9 10  1  0  0  0  0
 10 11  4  0  0  0  0
 10 15  4  0  0  0  0
 11 12  4  0  0  0  0
 11 27  1  0  0  0  0
 12 13  4  0  0  0  0
 12 28  1  0  0  0  0
 13 14  4  0  0  0  0
 13 16  1  0  0  0  0
 14 15  4  0  0  0  0
 14 29  1  0  0  0  0
 15 30  1  0  0  0  0
 16 17  1  0  0  0  0
 17 31  1  0  0  0  0
 17 32  1  0  0  0  0
 17 33  1  0  0  0  0
 18 19  1  0  0  0  0
 18 34  1  0  0  0  0
 19 20  1  0  0  0  0
 19 23  1  0  0  0  0
 19 35  1  0  0  0  0
 20 21  1  0  0  0  0
 20 36  1  0  0  0  0
 20 37  1  0  0  0  0
 21 22  1  0  0  0  0
 21 38  1  0  0  0  0
 21 39  1  0  0  0  0
 22 23  1  0  0  0  0
 22 24  1  0  0  0  0
 22 40  1  0  0  0  0
 23 41  1  0  0  0  0
 23 42  1  0  0  0  0
 24 43  1  0  0  0  0
 24 44  1  0  0  0  0
M  END
> <ConfClashScore>
0 

> <ConfOneFourInteractionScore>
-0.980204 

> <ConfScore>
0.0120139 

> <ConfScorePBest>
0.00234038 

> <ConfTolerance>
0.340808 

$$$$
c22.sdf
 OpenBabel04162418103D

 44 47  0  0  0  0  0  0  0  0999 V2000
    3.9389    0.5585    1.1422 C   0  0  0  1  0  0  0  0  0  0  0  0
    4.5227    1.6900    0.7346 N   0  0  0  1  0  0  0  0  0  0  0  0
    4.6459    2.6955    1.6241 C   0  0  0  1  0  0  0  0  0  0  0  0
    4.1552    2.5004    2.9481 C   0  0  0  1  0  0  0  0  0  0  0  0
    3.5822    1.2597    3.1987 C   0  0  0  1  0  0  0  0  0  0  0  0
    3.4383    0.2349    2.3250 N   0  0  0  1  0  0  0  0  0  0  0  0
    4.0586    3.1797    4.1794 C   0  0  0  1  0  0  0  0  0  0  0  0
    3.4799    2.4428    5.0992 N   0  0  0  1  0  0  0  0  0  0  0  0
    3.1853    1.2539    4.4913 N   0  0  0  1  0  0  0  0  0  0  0  0
    2.5451    0.1551    5.1345 C   0  0  0  1  0  0  0  0  0  0  0  0
    3.0104   -0.2911    6.3570 C   0  0  0  1  0  0  0  0  0  0  0  0
    2.3326   -1.2941    7.0323 C   0  0  0  1  0  0  0  0  0  0  0  0
    1.1946   -1.8518    6.4806 C   0  0  0  1  0  0  0  0  0  0  0  0
    0.7281   -1.4042    5.2544 C   0  0  0  1  0  0  0  0  0  0  0  0
    1.4038   -0.4040    4.5810 C   0  0  0  1  0  0  0  0  0  0  0  0
    0.4854   -2.7667    7.1833 O   0  0  0  1  0  0  0  0  0  0  0  0
    1.0456   -3.2175    8.4264 C   0  0  0  1  0  0  0  0  0  0  0  0
    3.8449   -0.4050    0.2010 N   0  0  0  1  0  0  0  0  0  0  0  0
    4.4196   -0.2968   -1.1287 C   0  0  0  1  0  0  0  0  0  0  0  0
    3.3463   -0.4980   -2.1912 C   0  0  0  1  0  0  0  0  0  0  0  0
    4.0832   -1.1449   -3.3712 C   0  0  0  1  0  0  0  0  0  0  0  0
    4.9975   -2.1372   -2.6477 C   0  0  0  1  0  0  0  0  0  0  0  0
    5.4401   -1.4164   -1.3646 C   0  0  0  1  0  0  0  0  0  0  0  0
    6.1746   -2.4701   -3.4902 N   0  0  0  1  0  0  0  0  0  0  0  0
    5.0898    3.5951    1.3498 H   0  0  0  1  0  0  0  0  0  0  0  0
    4.4040    4.1475    4.3398 H   0  0  0  1  0  0  0  0  0  0  0  0
    3.8690    0.1257    6.7703 H   0  0  0  1  0  0  0  0  0  0  0  0
    2.6804   -1.6271    7.9541 H   0  0  0  1  0  0  0  0  0  0  0  0
   -0.1304   -1.8209    4.8411 H   0  0  0  1  0  0  0  0  0  0  0  0
    1.0561   -0.0710    3.6592 H   0  0  0  1  0  0  0  0  0  0  0  0
    1.7774   -3.9742    8.2349 H   0  0  0  1  0  0  0  0  0  0  0  0
    0.2688   -3.6206    9.0421 H   0  0  0  1  0  0  0  0  0  0  0  0
    1.5080   -2.3935    8.9286 H   0  0  0  1  0  0  0  0  0  0  0  0
    3.3602   -1.2258    0.4284 H   0  0  0  1  0  0  0  0  0  0  0  0
    4.8825    0.6613   -1.2409 H   0  0  0  1  0  0  0  0  0  0  0  0
    2.5735   -1.1436   -1.8294 H   0  0  0  1  0  0  0  0  0  0  0  0
    2.9213    0.4404   -2.4806 H   0  0  0  1  0  0  0  0  0  0  0  0
    4.6481   -0.4229   -3.9230 H   0  0  0  1  0  0  0  0  0  0  0  0
    3.4045   -1.6461   -4.0292 H   0  0  0  1  0  0  0  0  0  0  0  0
    4.4640   -3.0336   -2.4093 H   0  0  0  1  0  0  0  0  0  0  0  0
    6.4198   -1.0047   -1.4897 H   0  0  0  1  0  0  0  0  0  0  0  0
    5.4414   -2.0968   -0.5388 H   0  0  0  1  0  0  0  0  0  0  0  0
    6.7335   -1.6728   -3.6011 H   0  0  0  1  0  0  0  0  0  0  0  0
    5.8701   -2.7800   -4.3687 H   0  0  0  1  0  0  0  0  0  0  0  0
  1  2  4  0  0  0  0
  1  6  4  0  0  0  0
  1 18  1  0  0  0  0
  2  3  4  0  0  0  0
  3  4  4  0  0  0  0
  3 25  1  0  0  0  0
  4  5  4  0  0  0  0
  4  7  4  0  0  0  0
  5  6  4  0  0  0  0
  5  9  4  0  0  0  0
  7  8  4  0  0  0  0
  7 26  1  0  0  0  0
  8  9  4  0  0  0  0
  9 10  1  0  0  0  0
 10 11  4  0  0  0  0
 10 15  4  0  0  0  0
 11 12  4  0  0  0  0
 11 27  1  0  0  0  0
 12 13  4  0  0  0  0
 12 28  1  0  0  0  0
 13 14  4  0  0  0  0
 13 16  1  0  0  0  0
 14 15  4  0  0  0  0
 14 29  1  0  0  0  0
 15 30  1  0  0  0  0
 16 17  1  0  0  0  0
 17 31  1  0  0  0  0
 17 32  1  0  0  0  0
 17 33  1  0  0  0  0
 18 19  1  0  0  0  0
 18 34  1  0  0  0  0
 19 20  1  0  0  0  0
 19 23  1  0  0  0  0
 19 35  1  0  0  0  0
 20 21  1  0  0  0  0
 20 36  1  0  0  0  0
 20 37  1  0  0  0  0
 21 22  1  0  0  0  0
 21 38  1  0  0  0  0
 21 39  1  0  0  0  0
 22 23  1  0  0  0  0
 22 24  1  0  0  0  0
 22 40  1  0  0  0  0
 23 41  1  0  0  0  0
 23 42  1  0  0  0  0
 24 43  1  0  0  0  0
 24 44  1  0  0  0  0
M  END
> <ConfClashScore>
0 

> <ConfOneFourInteractionScore>
-0.984337 

> <ConfScore>
0.0126487 

> <ConfScorePBest>
0.00232706 

> <ConfTolerance>
0.452274 

$$$$
c22.sdf
 OpenBabel04162418103D

 44 47  0  0  0  0  0  0  0  0999 V2000
    2.0072   -0.6542   -0.0034 C   0  0  0  1  0  0  0  0  0  0  0  0
    1.2110   -1.4284    0.7407 N   0  0  0  1  0  0  0  0  0  0  0  0
   -0.0075   -0.9542    1.0687 C   0  0  0  1  0  0  0  0  0  0  0  0
   -0.3852    0.3392    0.6035 C   0  0  0  1  0  0  0  0  0  0  0  0
    0.5654    1.0023   -0.1627 C   0  0  0  1  0  0  0  0  0  0  0  0
    1.7979    0.5550   -0.5018 N   0  0  0  1  0  0  0  0  0  0  0  0
   -1.4757    1.2312    0.6477 C   0  0  0  1  0  0  0  0  0  0  0  0
   -1.2285    2.3374   -0.0152 N   0  0  0  1  0  0  0  0  0  0  0  0
    0.0355    2.1948   -0.5170 N   0  0  0  1  0  0  0  0  0  0  0  0
    0.7034    3.1702   -1.3058 C   0  0  0  1  0  0  0  0  0  0  0  0
    0.3636    4.5047   -1.1882 C   0  0  0  1  0  0  0  0  0  0  0  0
    1.0187    5.4567   -1.9537 C   0  0  0  1  0  0  0  0  0  0  0  0
    2.0080    5.0709   -2.8385 C   0  0  0  1  0  0  0  0  0  0  0  0
    2.3488    3.7323   -2.9563 C   0  0  0  1  0  0  0  0  0  0  0  0
    1.6956    2.7831   -2.1930 C   0  0  0  1  0  0  0  0  0  0  0  0
    2.7111    5.9065   -3.6392 O   0  0  0  1  0  0  0  0  0  0  0  0
    2.3965    7.3058   -3.5648 C   0  0  0  1  0  0  0  0  0  0  0  0
    3.2087   -1.1864   -0.2910 N   0  0  0  1  0  0  0  0  0  0  0  0
    4.2567   -0.4800   -1.0071 C   0  0  0  1  0  0  0  0  0  0  0  0
    3.8023   -0.0810   -2.4170 C   0  0  0  1  0  0  0  0  0  0  0  0
    3.8973   -1.3651   -3.2316 C   0  0  0  1  0  0  0  0  0  0  0  0
    5.0221   -2.1778   -2.5797 C   0  0  0  1  0  0  0  0  0  0  0  0
    5.4390   -1.4008   -1.3210 C   0  0  0  1  0  0  0  0  0  0  0  0
    6.1722   -2.3040   -3.5111 N   0  0  0  1  0  0  0  0  0  0  0  0
   -0.6586   -1.5203    1.6494 H   0  0  0  1  0  0  0  0  0  0  0  0
   -2.3680    1.0369    1.1453 H   0  0  0  1  0  0  0  0  0  0  0  0
   -0.3836    4.7947   -0.5255 H   0  0  0  1  0  0  0  0  0  0  0  0
    0.7658    6.4613   -1.8624 H   0  0  0  1  0  0  0  0  0  0  0  0
    3.0960    3.4424   -3.6190 H   0  0  0  1  0  0  0  0  0  0  0  0
    1.9484    1.7784   -2.2844 H   0  0  0  1  0  0  0  0  0  0  0  0
    1.4282    7.4771   -3.9866 H   0  0  0  1  0  0  0  0  0  0  0  0
    3.1272    7.8649   -4.1111 H   0  0  0  1  0  0  0  0  0  0  0  0
    2.3998    7.6180   -2.5414 H   0  0  0  1  0  0  0  0  0  0  0  0
    3.3876   -2.1050   -0.0003 H   0  0  0  1  0  0  0  0  0  0  0  0
    4.5649    0.3729   -0.4392 H   0  0  0  1  0  0  0  0  0  0  0  0
    4.4463    0.6713   -2.8222 H   0  0  0  1  0  0  0  0  0  0  0  0
    2.7957    0.2816   -2.4004 H   0  0  0  1  0  0  0  0  0  0  0  0
    4.1369   -1.1449   -4.2509 H   0  0  0  1  0  0  0  0  0  0  0  0
    2.9738   -1.9039   -3.1901 H   0  0  0  1  0  0  0  0  0  0  0  0
    4.6692   -3.1523   -2.3138 H   0  0  0  1  0  0  0  0  0  0  0  0
    5.6174   -2.0726   -0.5075 H   0  0  0  1  0  0  0  0  0  0  0  0
    6.3218   -0.8264   -1.5101 H   0  0  0  1  0  0  0  0  0  0  0  0
    6.4191   -1.4174   -3.8479 H   0  0  0  1  0  0  0  0  0  0  0  0
    5.9217   -2.8807   -4.2628 H   0  0  0  1  0  0  0  0  0  0  0  0
  1  2  4  0  0  0  0
  1  6  4  0  0  0  0
  1 18  1  0  0  0  0
  2  3  4  0  0  0  0
  3  4  4  0  0  0  0
  3 25  1  0  0  0  0
  4  5  4  0  0  0  0
  4  7  4  0  0  0  0
  5  6  4  0  0  0  0
  5  9  4  0  0  0  0
  7  8  4  0  0  0  0
  7 26  1  0  0  0  0
  8  9  4  0  0  0  0
  9 10  1  0  0  0  0
 10 11  4  0  0  0  0
 10 15  4  0  0  0  0
 11 12  4  0  0  0  0
 11 27  1  0  0  0  0
 12 13  4  0  0  0  0
 12 28  1  0  0  0  0
 13 14  4  0  0  0  0
 13 16  1  0  0  0  0
 14 15  4  0  0  0  0
 14 29  1  0  0  0  0
 15 30  1  0  0  0  0
 16 17  1  0  0  0  0
 17 31  1  0  0  0  0
 17 32  1  0  0  0  0
 17 33  1  0  0  0  0
 18 19  1  0  0  0  0
 18 34  1  0  0  0  0
 19 20  1  0  0  0  0
 19 23  1  0  0  0  0
 19 35  1  0  0  0  0
 20 21  1  0  0  0  0
 20 36  1  0  0  0  0
 20 37  1  0  0  0  0
 21 22  1  0  0  0  0
 21 38  1  0  0  0  0
 21 39  1  0  0  0  0
 22 23  1  0  0  0  0
 22 24  1  0  0  0  0
 22 40  1  0  0  0  0
 23 41  1  0  0  0  0
 23 42  1  0  0  0  0
 24 43  1  0  0  0  0
 24 44  1  0  0  0  0
M  END
> <ConfClashScore>
0 

> <ConfOneFourInteractionScore>
-0.985399 

> <ConfScore>
0.0129357 

> <ConfScorePBest>
0.00231373 

> <ConfTolerance>
0.452187 

$$$$
c22.sdf
 OpenBabel04162418103D

 44 47  0  0  0  0  0  0  0  0999 V2000
    2.0197   -0.6392    0.0355 C   0  0  0  1  0  0  0  0  0  0  0  0
    1.2518   -1.3875    0.8339 N   0  0  0  1  0  0  0  0  0  0  0  0
    0.0433   -0.9045    1.1852 C   0  0  0  1  0  0  0  0  0  0  0  0
   -0.3546    0.3699    0.6858 C   0  0  0  1  0  0  0  0  0  0  0  0
    0.5673    1.0067   -0.1358 C   0  0  0  1  0  0  0  0  0  0  0  0
    1.7893    0.5503   -0.4996 N   0  0  0  1  0  0  0  0  0  0  0  0
   -1.4463    1.2603    0.7340 C   0  0  0  1  0  0  0  0  0  0  0  0
   -1.2256    2.3419    0.0229 N   0  0  0  1  0  0  0  0  0  0  0  0
    0.0213    2.1841   -0.5156 N   0  0  0  1  0  0  0  0  0  0  0  0
    0.6594    3.1324   -1.3626 C   0  0  0  1  0  0  0  0  0  0  0  0
    1.6187    2.7163   -2.2664 C   0  0  0  1  0  0  0  0  0  0  0  0
    2.2366    3.6395   -3.0954 C   0  0  0  1  0  0  0  0  0  0  0  0
    1.8972    4.9769   -3.0146 C   0  0  0  1  0  0  0  0  0  0  0  0
    0.9351    5.3942   -2.1081 C   0  0  0  1  0  0  0  0  0  0  0  0
    0.3189    4.4737   -1.2814 C   0  0  0  1  0  0  0  0  0  0  0  0
    2.6010    5.8593   -3.7629 O   0  0  0  1  0  0  0  0  0  0  0  0
    3.6541    5.3304   -4.5837 C   0  0  0  1  0  0  0  0  0  0  0  0
    3.2173   -1.1807   -0.2739 N   0  0  0  1  0  0  0  0  0  0  0  0
    4.2651   -0.4756   -1.0175 C   0  0  0  1  0  0  0  0  0  0  0  0
    3.7939   -0.0958   -2.4273 C   0  0  0  1  0  0  0  0  0  0  0  0
    3.8822   -1.3903   -3.2261 C   0  0  0  1  0  0  0  0  0  0  0  0
    5.0158   -2.1924   -2.5765 C   0  0  0  1  0  0  0  0  0  0  0  0
    5.4455   -1.3983   -1.3328 C   0  0  0  1  0  0  0  0  0  0  0  0
    6.1569   -2.3289   -3.5203 N   0  0  0  1  0  0  0  0  0  0  0  0
   -0.5859   -1.4505    1.8079 H   0  0  0  1  0  0  0  0  0  0  0  0
   -2.3207    1.0822    1.2681 H   0  0  0  1  0  0  0  0  0  0  0  0
    1.8770    1.7105   -2.3244 H   0  0  0  1  0  0  0  0  0  0  0  0
    2.9555    3.3259   -3.7783 H   0  0  0  1  0  0  0  0  0  0  0  0
    0.6768    6.3999   -2.0500 H   0  0  0  1  0  0  0  0  0  0  0  0
   -0.4000    4.7873   -0.5985 H   0  0  0  1  0  0  0  0  0  0  0  0
    4.1083    6.1250   -5.1379 H   0  0  0  1  0  0  0  0  0  0  0  0
    3.2489    4.6089   -5.2622 H   0  0  0  1  0  0  0  0  0  0  0  0
    4.3895    4.8631   -3.9627 H   0  0  0  1  0  0  0  0  0  0  0  0
    3.3965   -2.0995    0.0160 H   0  0  0  1  0  0  0  0  0  0  0  0
    4.5781    0.3852   -0.4643 H   0  0  0  1  0  0  0  0  0  0  0  0
    4.4319    0.6522   -2.8495 H   0  0  0  1  0  0  0  0  0  0  0  0
    2.7869    0.2652   -2.4040 H   0  0  0  1  0  0  0  0  0  0  0  0
    4.1098   -1.1830   -4.2508 H   0  0  0  1  0  0  0  0  0  0  0  0
    2.9602   -1.9301   -3.1671 H   0  0  0  1  0  0  0  0  0  0  0  0
    4.6678   -3.1640   -2.2939 H   0  0  0  1  0  0  0  0  0  0  0  0
    6.3250   -0.8249   -1.5394 H   0  0  0  1  0  0  0  0  0  0  0  0
    5.6344   -2.0591   -0.5127 H   0  0  0  1  0  0  0  0  0  0  0  0
    6.5585   -1.4489   -3.6774 H   0  0  0  1  0  0  0  0  0  0  0  0
    5.8357   -2.6975   -4.3697 H   0  0  0  1  0  0  0  0  0  0  0  0
  1  2  4  0  0  0  0
  1  6  4  0  0  0  0
  1 18  1  0  0  0  0
  2  3  4  0  0  0  0
  3  4  4  0  0  0  0
  3 25  1  0  0  0  0
  4  5  4  0  0  0  0
  4  7  4  0  0  0  0
  5  6  4  0  0  0  0
  5  9  4  0  0  0  0
  7  8  4  0  0  0  0
  7 26  1  0  0  0  0
  8  9  4  0  0  0  0
  9 10  1  0  0  0  0
 10 11  4  0  0  0  0
 10 15  4  0  0  0  0
 11 12  4  0  0  0  0
 11 27  1  0  0  0  0
 12 13  4  0  0  0  0
 12 28  1  0  0  0  0
 13 14  4  0  0  0  0
 13 16  1  0  0  0  0
 14 15  4  0  0  0  0
 14 29  1  0  0  0  0
 15 30  1  0  0  0  0
 16 17  1  0  0  0  0
 17 31  1  0  0  0  0
 17 32  1  0  0  0  0
 17 33  1  0  0  0  0
 18 19  1  0  0  0  0
 18 34  1  0  0  0  0
 19 20  1  0  0  0  0
 19 23  1  0  0  0  0
 19 35  1  0  0  0  0
 20 21  1  0  0  0  0
 20 36  1  0  0  0  0
 20 37  1  0  0  0  0
 21 22  1  0  0  0  0
 21 38  1  0  0  0  0
 21 39  1  0  0  0  0
 22 23  1  0  0  0  0
 22 24  1  0  0  0  0
 22 40  1  0  0  0  0
 23 41  1  0  0  0  0
 23 42  1  0  0  0  0
 24 43  1  0  0  0  0
 24 44  1  0  0  0  0
M  END
> <ConfClashScore>
0 

> <ConfOneFourInteractionScore>
-0.985399 

> <ConfScore>
0.0129357 

> <ConfScorePBest>
0.0023004 

> <ConfTolerance>
0.502405 

$$$$
c22.sdf
 OpenBabel04162418103D

 44 47  0  0  0  0  0  0  0  0999 V2000
    2.5593    0.2113    0.5168 C   0  0  0  1  0  0  0  0  0  0  0  0
    2.4113    1.3042   -0.2386 N   0  0  0  1  0  0  0  0  0  0  0  0
    1.4162    2.1591    0.0717 C   0  0  0  1  0  0  0  0  0  0  0  0
    0.5805    1.8589    1.1867 C   0  0  0  1  0  0  0  0  0  0  0  0
    0.8813    0.6825    1.8623 C   0  0  0  1  0  0  0  0  0  0  0  0
    1.8680   -0.1979    1.5698 N   0  0  0  1  0  0  0  0  0  0  0  0
   -0.5150    2.3927    1.8951 C   0  0  0  1  0  0  0  0  0  0  0  0
   -0.8651    1.6264    2.9023 N   0  0  0  1  0  0  0  0  0  0  0  0
    0.0000    0.5677    2.8814 N   0  0  0  1  0  0  0  0  0  0  0  0
   -0.0239   -0.5122    3.8095 C   0  0  0  1  0  0  0  0  0  0  0  0
   -1.2001   -0.8416    4.4561 C   0  0  0  1  0  0  0  0  0  0  0  0
   -1.2246   -1.8961    5.3555 C   0  0  0  1  0  0  0  0  0  0  0  0
   -0.0716   -2.6147    5.6096 C   0  0  0  1  0  0  0  0  0  0  0  0
    1.1080   -2.2842    4.9610 C   0  0  0  1  0  0  0  0  0  0  0  0
    1.1326   -1.2328    4.0642 C   0  0  0  1  0  0  0  0  0  0  0  0
    0.0273   -3.6575    6.4679 O   0  0  0  1  0  0  0  0  0  0  0  0
   -1.1390   -3.9858    7.2389 C   0  0  0  1  0  0  0  0  0  0  0  0
    3.5842   -0.6128    0.1441 N   0  0  0  1  0  0  0  0  0  0  0  0
    4.3609   -0.3729   -1.0757 C   0  0  0  1  0  0  0  0  0  0  0  0
    3.4348   -0.3377   -2.2961 C   0  0  0  1  0  0  0  0  0  0  0  0
    4.2427   -0.9896   -3.4061 C   0  0  0  1  0  0  0  0  0  0  0  0
    4.9399   -2.1336   -2.6620 C   0  0  0  1  0  0  0  0  0  0  0  0
    5.3438   -1.5267   -1.3155 C   0  0  0  1  0  0  0  0  0  0  0  0
    6.1275   -2.5894   -3.4042 N   0  0  0  1  0  0  0  0  0  0  0  0
    1.2615    3.0200   -0.4908 H   0  0  0  1  0  0  0  0  0  0  0  0
   -0.9886    3.2855    1.6498 H   0  0  0  1  0  0  0  0  0  0  0  0
   -2.0667   -0.2983    4.2680 H   0  0  0  1  0  0  0  0  0  0  0  0
   -2.1106   -2.1465    5.8391 H   0  0  0  1  0  0  0  0  0  0  0  0
    1.9747   -2.8275    5.1491 H   0  0  0  1  0  0  0  0  0  0  0  0
    2.0186   -0.9823    3.5806 H   0  0  0  1  0  0  0  0  0  0  0  0
   -1.9635   -4.1647    6.5807 H   0  0  0  1  0  0  0  0  0  0  0  0
   -1.3749   -3.1721    7.8925 H   0  0  0  1  0  0  0  0  0  0  0  0
   -0.9478   -4.8651    7.8178 H   0  0  0  1  0  0  0  0  0  0  0  0
    3.8055   -1.3839    0.7070 H   0  0  0  1  0  0  0  0  0  0  0  0
    4.8905    0.5525   -0.9857 H   0  0  0  1  0  0  0  0  0  0  0  0
    3.1852    0.6707   -2.5523 H   0  0  0  1  0  0  0  0  0  0  0  0
    2.5384   -0.8903   -2.1064 H   0  0  0  1  0  0  0  0  0  0  0  0
    3.6072   -1.3612   -4.1827 H   0  0  0  1  0  0  0  0  0  0  0  0
    4.9533   -0.3065   -3.8224 H   0  0  0  1  0  0  0  0  0  0  0  0
    4.2701   -2.9559   -2.5201 H   0  0  0  1  0  0  0  0  0  0  0  0
    5.2616   -2.2559   -0.5368 H   0  0  0  1  0  0  0  0  0  0  0  0
    6.3481   -1.1599   -1.3567 H   0  0  0  1  0  0  0  0  0  0  0  0
    6.7271   -1.8301   -3.5602 H   0  0  0  1  0  0  0  0  0  0  0  0
    5.8495   -2.9679   -4.2644 H   0  0  0  1  0  0  0  0  0  0  0  0
  1  2  4  0  0  0  0
  1  6  4  0  0  0  0
  1 18  1  0  0  0  0
  2  3  4  0  0  0  0
  3  4  4  0  0  0  0
  3 25  1  0  0  0  0
  4  5  4  0  0  0  0
  4  7  4  0  0  0  0
  5  6  4  0  0  0  0
  5  9  4  0  0  0  0
  7  8  4  0  0  0  0
  7 26  1  0  0  0  0
  8  9  4  0  0  0  0
  9 10  1  0  0  0  0
 10 11  4  0  0  0  0
 10 15  4  0  0  0  0
 11 12  4  0  0  0  0
 11 27  1  0  0  0  0
 12 13  4  0  0  0  0
 12 28  1  0  0  0  0
 13 14  4  0  0  0  0
 13 16  1  0  0  0  0
 14 15  4  0  0  0  0
 14 29  1  0  0  0  0
 15 30  1  0  0  0  0
 16 17  1  0  0  0  0
 17 31  1  0  0  0  0
 17 32  1  0  0  0  0
 17 33  1  0  0  0  0
 18 19  1  0  0  0  0
 18 34  1  0  0  0  0
 19 20  1  0  0  0  0
 19 23  1  0  0  0  0
 19 35  1  0  0  0  0
 20 21  1  0  0  0  0
 20 36  1  0  0  0  0
 20 37  1  0  0  0  0
 21 22  1  0  0  0  0
 21 38  1  0  0  0  0
 21 39  1  0  0  0  0
 22 23  1  0  0  0  0
 22 24  1  0  0  0  0
 22 40  1  0  0  0  0
 23 41  1  0  0  0  0
 23 42  1  0  0  0  0
 24 43  1  0  0  0  0
 24 44  1  0  0  0  0
M  END
> <ConfClashScore>
0 

> <ConfOneFourInteractionScore>
-0.985399 

> <ConfScore>
0.0129357 

> <ConfScorePBest>
0.00228707 

> <ConfTolerance>
0.380878 

$$$$
c22.sdf
 OpenBabel04162418103D

 44 47  0  0  0  0  0  0  0  0999 V2000
    3.7032    0.0467    1.3118 C   0  0  0  1  0  0  0  0  0  0  0  0
    3.1542   -0.6086    2.3395 N   0  0  0  1  0  0  0  0  0  0  0  0
    3.0696    0.0282    3.5247 C   0  0  0  1  0  0  0  0  0  0  0  0
    3.5619    1.3625    3.6200 C   0  0  0  1  0  0  0  0  0  0  0  0
    4.0955    1.8899    2.4505 C   0  0  0  1  0  0  0  0  0  0  0  0
    4.2003    1.2728    1.2495 N   0  0  0  1  0  0  0  0  0  0  0  0
    3.6884    2.4068    4.5582 C   0  0  0  1  0  0  0  0  0  0  0  0
    4.2484    3.4712    4.0313 N   0  0  0  1  0  0  0  0  0  0  0  0
    4.5001    3.1504    2.7260 N   0  0  0  1  0  0  0  0  0  0  0  0
    5.1063    4.0254    1.7844 C   0  0  0  1  0  0  0  0  0  0  0  0
    4.8545    3.8694    0.4344 C   0  0  0  1  0  0  0  0  0  0  0  0
    5.4415    4.7262   -0.4836 C   0  0  0  1  0  0  0  0  0  0  0  0
    6.2828    5.7332   -0.0494 C   0  0  0  1  0  0  0  0  0  0  0  0
    6.5353    5.8896    1.3046 C   0  0  0  1  0  0  0  0  0  0  0  0
    5.9500    5.0353    2.2200 C   0  0  0  1  0  0  0  0  0  0  0  0
    6.7996    6.5008   -1.0337 O   0  0  0  1  0  0  0  0  0  0  0  0
    7.5278    7.6910   -0.6936 C   0  0  0  1  0  0  0  0  0  0  0  0
    3.7591   -0.6430    0.1686 N   0  0  0  1  0  0  0  0  0  0  0  0
    4.3982   -0.3642   -1.1205 C   0  0  0  1  0  0  0  0  0  0  0  0
    3.3537   -0.3646   -2.2417 C   0  0  0  1  0  0  0  0  0  0  0  0
    4.0736   -0.9758   -3.4325 C   0  0  0  1  0  0  0  0  0  0  0  0
    4.8908   -2.0913   -2.7716 C   0  0  0  1  0  0  0  0  0  0  0  0
    5.4011   -1.4727   -1.4671 C   0  0  0  1  0  0  0  0  0  0  0  0
    6.0337   -2.4975   -3.6460 N   0  0  0  1  0  0  0  0  0  0  0  0
    2.6537   -0.4443    4.3525 H   0  0  0  1  0  0  0  0  0  0  0  0
    3.3759    2.3421    5.5480 H   0  0  0  1  0  0  0  0  0  0  0  0
    4.2246    3.1092    0.1074 H   0  0  0  1  0  0  0  0  0  0  0  0
    5.2488    4.6113   -1.4991 H   0  0  0  1  0  0  0  0  0  0  0  0
    7.1651    6.6498    1.6317 H   0  0  0  1  0  0  0  0  0  0  0  0
    6.1426    5.1502    3.2355 H   0  0  0  1  0  0  0  0  0  0  0  0
    7.7415    8.2455   -1.5834 H   0  0  0  1  0  0  0  0  0  0  0  0
    8.4448    7.4224   -0.2121 H   0  0  0  1  0  0  0  0  0  0  0  0
    6.9396    8.2919   -0.0319 H   0  0  0  1  0  0  0  0  0  0  0  0
    3.2817   -1.4983    0.1978 H   0  0  0  1  0  0  0  0  0  0  0  0
    4.8937    0.5831   -1.0760 H   0  0  0  1  0  0  0  0  0  0  0  0
    3.0364    0.6330   -2.4631 H   0  0  0  1  0  0  0  0  0  0  0  0
    2.5056   -0.9568   -1.9680 H   0  0  0  1  0  0  0  0  0  0  0  0
    3.3801   -1.3717   -4.1447 H   0  0  0  1  0  0  0  0  0  0  0  0
    4.7087   -0.2605   -3.9120 H   0  0  0  1  0  0  0  0  0  0  0  0
    4.2747   -2.9427   -2.5705 H   0  0  0  1  0  0  0  0  0  0  0  0
    6.3794   -1.0621   -1.6056 H   0  0  0  1  0  0  0  0  0  0  0  0
    5.4290   -2.2081   -0.6904 H   0  0  0  1  0  0  0  0  0  0  0  0
    6.4570   -3.3014   -3.2785 H   0  0  0  1  0  0  0  0  0  0  0  0
    6.6903   -1.7710   -3.6835 H   0  0  0  1  0  0  0  0  0  0  0  0
  1  2  4  0  0  0  0
  1  6  4  0  0  0  0
  1 18  1  0  0  0  0
  2  3  4  0  0  0  0
  3  4  4  0  0  0  0
  3 25  1  0  0  0  0
  4  5  4  0  0  0  0
  4  7  4  0  0  0  0
  5  6  4  0  0  0  0
  5  9  4  0  0  0  0
  7  8  4  0  0  0  0
  7 26  1  0  0  0  0
  8  9  4  0  0  0  0
  9 10  1  0  0  0  0
 10 11  4  0  0  0  0
 10 15  4  0  0  0  0
 11 12  4  0  0  0  0
 11 27  1  0  0  0  0
 12 13  4  0  0  0  0
 12 28  1  0  0  0  0
 13 14  4  0  0  0  0
 13 16  1  0  0  0  0
 14 15  4  0  0  0  0
 14 29  1  0  0  0  0
 15 30  1  0  0  0  0
 16 17  1  0  0  0  0
 17 31  1  0  0  0  0
 17 32  1  0  0  0  0
 17 33  1  0  0  0  0
 18 19  1  0  0  0  0
 18 34  1  0  0  0  0
 19 20  1  0  0  0  0
 19 23  1  0  0  0  0
 19 35  1  0  0  0  0
 20 21  1  0  0  0  0
 20 36  1  0  0  0  0
 20 37  1  0  0  0  0
 21 22  1  0  0  0  0
 21 38  1  0  0  0  0
 21 39  1  0  0  0  0
 22 23  1  0  0  0  0
 22 24  1  0  0  0  0
 22 40  1  0  0  0  0
 23 41  1  0  0  0  0
 23 42  1  0  0  0  0
 24 43  1  0  0  0  0
 24 44  1  0  0  0  0
M  END
> <ConfClashScore>
0 

> <ConfOneFourInteractionScore>
-0.984337 

> <ConfScore>
0.013489 

> <ConfScorePBest>
0.00227374 

> <ConfTolerance>
0.386057 

$$$$
c22.sdf
 OpenBabel04162418103D

 44 47  0  0  0  0  0  0  0  0999 V2000
    4.1522    0.4815    1.0824 C   0  0  0  1  0  0  0  0  0  0  0  0
    3.1829    0.6310    1.9909 N   0  0  0  1  0  0  0  0  0  0  0  0
    3.5024    1.1994    3.1708 C   0  0  0  1  0  0  0  0  0  0  0  0
    4.8488    1.6149    3.3866 C   0  0  0  1  0  0  0  0  0  0  0  0
    5.7234    1.3867    2.3314 C   0  0  0  1  0  0  0  0  0  0  0  0
    5.4334    0.8125    1.1397 N   0  0  0  1  0  0  0  0  0  0  0  0
    5.6479    2.2338    4.3690 C   0  0  0  1  0  0  0  0  0  0  0  0
    6.8917    2.3709    3.9712 N   0  0  0  1  0  0  0  0  0  0  0  0
    6.9377    1.8462    2.7093 N   0  0  0  1  0  0  0  0  0  0  0  0
    8.1007    1.7915    1.9061 C   0  0  0  1  0  0  0  0  0  0  0  0
    9.3489    1.7629    2.4988 C   0  0  0  1  0  0  0  0  0  0  0  0
   10.4885    1.7039    1.7117 C   0  0  0  1  0  0  0  0  0  0  0  0
   10.3767    1.6791    0.3343 C   0  0  0  1  0  0  0  0  0  0  0  0
    9.1247    1.7078   -0.2599 C   0  0  0  1  0  0  0  0  0  0  0  0
    7.9884    1.7666    0.5247 C   0  0  0  1  0  0  0  0  0  0  0  0
   11.5504    1.6270   -0.3250 O   0  0  0  1  0  0  0  0  0  0  0  0
   11.4402    1.5200   -1.7634 C   0  0  0  1  0  0  0  0  0  0  0  0
    3.7660   -0.0952   -0.0698 N   0  0  0  1  0  0  0  0  0  0  0  0
    4.6031   -0.3283   -1.2500 C   0  0  0  1  0  0  0  0  0  0  0  0
    3.7583   -0.2403   -2.5263 C   0  0  0  1  0  0  0  0  0  0  0  0
    3.7588   -1.6480   -3.1091 C   0  0  0  1  0  0  0  0  0  0  0  0
    5.0948   -2.2544   -2.6605 C   0  0  0  1  0  0  0  0  0  0  0  0
    5.1850   -1.7504   -1.2176 C   0  0  0  1  0  0  0  0  0  0  0  0
    6.2314   -1.7470   -3.4891 N   0  0  0  1  0  0  0  0  0  0  0  0
    2.7814    1.3320    3.9084 H   0  0  0  1  0  0  0  0  0  0  0  0
    5.2950    2.5443    5.2967 H   0  0  0  1  0  0  0  0  0  0  0  0
    9.4333    1.7857    3.5351 H   0  0  0  1  0  0  0  0  0  0  0  0
   11.4277    1.6783    2.1577 H   0  0  0  1  0  0  0  0  0  0  0  0
    9.0404    1.6850   -1.2962 H   0  0  0  1  0  0  0  0  0  0  0  0
    7.0492    1.7922    0.0788 H   0  0  0  1  0  0  0  0  0  0  0  0
   10.9180    0.6208   -2.0157 H   0  0  0  1  0  0  0  0  0  0  0  0
   12.4190    1.4969   -2.1951 H   0  0  0  1  0  0  0  0  0  0  0  0
   10.9022    2.3632   -2.1433 H   0  0  0  1  0  0  0  0  0  0  0  0
    2.8326   -0.3885   -0.1257 H   0  0  0  1  0  0  0  0  0  0  0  0
    5.3918    0.3944   -1.2768 H   0  0  0  1  0  0  0  0  0  0  0  0
    2.7604    0.0684   -2.2941 H   0  0  0  1  0  0  0  0  0  0  0  0
    4.1944    0.4509   -3.2169 H   0  0  0  1  0  0  0  0  0  0  0  0
    3.6995   -1.6143   -4.1769 H   0  0  0  1  0  0  0  0  0  0  0  0
    2.9382   -2.2162   -2.7235 H   0  0  0  1  0  0  0  0  0  0  0  0
    5.0726   -3.3234   -2.7010 H   0  0  0  1  0  0  0  0  0  0  0  0
    6.2034   -1.7316   -0.8899 H   0  0  0  1  0  0  0  0  0  0  0  0
    4.6114   -2.3755   -0.5655 H   0  0  0  1  0  0  0  0  0  0  0  0
    6.3777   -0.7972   -3.2971 H   0  0  0  1  0  0  0  0  0  0  0  0
    6.0182   -1.8590   -4.4391 H   0  0  0  1  0  0  0  0  0  0  0  0
  1  2  4  0  0  0  0
  1  6  4  0  0  0  0
  1 18  1  0  0  0  0
  2  3  4  0  0  0  0
  3  4  4  0  0  0  0
  3 25  1  0  0  0  0
  4  5  4  0  0  0  0
  4  7  4  0  0  0  0
  5  6  4  0  0  0  0
  5  9  4  0  0  0  0
  7  8  4  0  0  0  0
  7 26  1  0  0  0  0
  8  9  4  0  0  0  0
  9 10  1  0  0  0  0
 10 11  4  0  0  0  0
 10 15  4  0  0  0  0
 11 12  4  0  0  0  0
 11 27  1  0  0  0  0
 12 13  4  0  0  0  0
 12 28  1  0  0  0  0
 13 14  4  0  0  0  0
 13 16  1  0  0  0  0
 14 15  4  0  0  0  0
 14 29  1  0  0  0  0
 15 30  1  0  0  0  0
 16 17  1  0  0  0  0
 17 31  1  0  0  0  0
 17 32  1  0  0  0  0
 17 33  1  0  0  0  0
 18 19  1  0  0  0  0
 18 34  1  0  0  0  0
 19 20  1  0  0  0  0
 19 23  1  0  0  0  0
 19 35  1  0  0  0  0
 20 21  1  0  0  0  0
 20 36  1  0  0  0  0
 20 37  1  0  0  0  0
 21 22  1  0  0  0  0
 21 38  1  0  0  0  0
 21 39  1  0  0  0  0
 22 23  1  0  0  0  0
 22 24  1  0  0  0  0
 22 40  1  0  0  0  0
 23 41  1  0  0  0  0
 23 42  1  0  0  0  0
 24 43  1  0  0  0  0
 24 44  1  0  0  0  0
M  END
> <ConfClashScore>
0 

> <ConfOneFourInteractionScore>
-0.984337 

> <ConfScore>
0.0135219 

> <ConfScorePBest>
0.00226041 

> <ConfTolerance>
0.428707 

$$$$
c22.sdf
 OpenBabel04162418103D

 44 47  0  0  0  0  0  0  0  0999 V2000
    2.9377   -0.7535    0.7413 C   0  0  0  1  0  0  0  0  0  0  0  0
    2.6307   -0.3232    1.9691 N   0  0  0  1  0  0  0  0  0  0  0  0
    1.6598   -0.9713    2.6434 C   0  0  0  1  0  0  0  0  0  0  0  0
    1.0173   -2.0798    2.0188 C   0  0  0  1  0  0  0  0  0  0  0  0
    1.4664   -2.3917    0.7415 C   0  0  0  1  0  0  0  0  0  0  0  0
    2.4328   -1.7556    0.0375 N   0  0  0  1  0  0  0  0  0  0  0  0
    0.0214   -3.0429    2.2787 C   0  0  0  1  0  0  0  0  0  0  0  0
   -0.1387   -3.8646    1.2672 N   0  0  0  1  0  0  0  0  0  0  0  0
    0.7566   -3.4609    0.3157 N   0  0  0  1  0  0  0  0  0  0  0  0
    0.9172   -4.0744   -0.9357 C   0  0  0  1  0  0  0  0  0  0  0  0
    0.5503   -3.5058   -2.1408 C   0  0  0  1  0  0  0  0  0  0  0  0
    0.7578   -4.1965   -3.3245 C   0  0  0  1  0  0  0  0  0  0  0  0
    1.3268   -5.4558   -3.2994 C   0  0  0  1  0  0  0  0  0  0  0  0
    1.6948   -6.0260   -2.0906 C   0  0  0  1  0  0  0  0  0  0  0  0
    1.4879   -5.3374   -0.9102 C   0  0  0  1  0  0  0  0  0  0  0  0
    1.6104   -6.0892   -4.4623 O   0  0  0  1  0  0  0  0  0  0  0  0
    1.4588   -5.3342   -5.6746 C   0  0  0  1  0  0  0  0  0  0  0  0
    3.9115   -0.0606    0.1241 N   0  0  0  1  0  0  0  0  0  0  0  0
    4.5118   -0.2948   -1.1922 C   0  0  0  1  0  0  0  0  0  0  0  0
    3.4324   -0.3389   -2.2793 C   0  0  0  1  0  0  0  0  0  0  0  0
    4.1402   -1.0886   -3.3960 C   0  0  0  1  0  0  0  0  0  0  0  0
    4.9391   -2.1817   -2.6784 C   0  0  0  1  0  0  0  0  0  0  0  0
    5.1706   -1.6759   -1.2482 C   0  0  0  1  0  0  0  0  0  0  0  0
    6.2460   -2.4034   -3.3665 N   0  0  0  1  0  0  0  0  0  0  0  0
    1.3852   -0.6687    3.5998 H   0  0  0  1  0  0  0  0  0  0  0  0
   -0.5210   -3.0961    3.1645 H   0  0  0  1  0  0  0  0  0  0  0  0
    0.1185   -2.5599   -2.1594 H   0  0  0  1  0  0  0  0  0  0  0  0
    0.4854   -3.7670   -4.2317 H   0  0  0  1  0  0  0  0  0  0  0  0
    2.1266   -6.9719   -2.0720 H   0  0  0  1  0  0  0  0  0  0  0  0
    1.7603   -5.7668   -0.0030 H   0  0  0  1  0  0  0  0  0  0  0  0
    0.4480   -4.9936   -5.7592 H   0  0  0  1  0  0  0  0  0  0  0  0
    1.6971   -5.9547   -6.5131 H   0  0  0  1  0  0  0  0  0  0  0  0
    2.1183   -4.4919   -5.6547 H   0  0  0  1  0  0  0  0  0  0  0  0
    4.2678    0.7046    0.6221 H   0  0  0  1  0  0  0  0  0  0  0  0
    5.2267    0.4736   -1.4006 H   0  0  0  1  0  0  0  0  0  0  0  0
    3.1521    0.6461   -2.5891 H   0  0  0  1  0  0  0  0  0  0  0  0
    2.5650   -0.8684   -1.9445 H   0  0  0  1  0  0  0  0  0  0  0  0
    3.4305   -1.5201   -4.0706 H   0  0  0  1  0  0  0  0  0  0  0  0
    4.7937   -0.4350   -3.9350 H   0  0  0  1  0  0  0  0  0  0  0  0
    4.3841   -3.0964   -2.6626 H   0  0  0  1  0  0  0  0  0  0  0  0
    4.7157   -2.3362   -0.5397 H   0  0  0  1  0  0  0  0  0  0  0  0
    6.2180   -1.5992   -1.0436 H   0  0  0  1  0  0  0  0  0  0  0  0
    6.7432   -1.5597   -3.4040 H   0  0  0  1  0  0  0  0  0  0  0  0
    6.0846   -2.7279   -4.2770 H   0  0  0  1  0  0  0  0  0  0  0  0
  1  2  4  0  0  0  0
  1  6  4  0  0  0  0
  1 18  1  0  0  0  0
  2  3  4  0  0  0  0
  3  4  4  0  0  0  0
  3 25  1  0  0  0  0
  4  5  4  0  0  0  0
  4  7  4  0  0  0  0
  5  6  4  0  0  0  0
  5  9  4  0  0  0  0
  7  8  4  0  0  0  0
  7 26  1  0  0  0  0
  8  9  4  0  0  0  0
  9 10  1  0  0  0  0
 10 11  4  0  0  0  0
 10 15  4  0  0  0  0
 11 12  4  0  0  0  0
 11 27  1  0  0  0  0
 12 13  4  0  0  0  0
 12 28  1  0  0  0  0
 13 14  4  0  0  0  0
 13 16  1  0  0  0  0
 14 15  4  0  0  0  0
 14 29  1  0  0  0  0
 15 30  1  0  0  0  0
 16 17  1  0  0  0  0
 17 31  1  0  0  0  0
 17 32  1  0  0  0  0
 17 33  1  0  0  0  0
 18 19  1  0  0  0  0
 18 34  1  0  0  0  0
 19 20  1  0  0  0  0
 19 23  1  0  0  0  0
 19 35  1  0  0  0  0
 20 21  1  0  0  0  0
 20 36  1  0  0  0  0
 20 37  1  0  0  0  0
 21 22  1  0  0  0  0
 21 38  1  0  0  0  0
 21 39  1  0  0  0  0
 22 23  1  0  0  0  0
 22 24  1  0  0  0  0
 22 40  1  0  0  0  0
 23 41  1  0  0  0  0
 23 42  1  0  0  0  0
 24 43  1  0  0  0  0
 24 44  1  0  0  0  0
M  END
> <ConfClashScore>
0 

> <ConfOneFourInteractionScore>
-0.980204 

> <ConfScore>
0.0150163 

> <ConfScorePBest>
0.00224709 

> <ConfTolerance>
0.325417 

$$$$
c22.sdf
 OpenBabel04162418103D

 44 47  0  0  0  0  0  0  0  0999 V2000
    3.3181    0.3645    0.9287 C   0  0  0  1  0  0  0  0  0  0  0  0
    4.2714    1.2979    1.0133 N   0  0  0  1  0  0  0  0  0  0  0  0
    4.2682    2.1113    2.0883 C   0  0  0  1  0  0  0  0  0  0  0  0
    3.2576    1.9323    3.0775 C   0  0  0  1  0  0  0  0  0  0  0  0
    2.3501    0.9097    2.8297 C   0  0  0  1  0  0  0  0  0  0  0  0
    2.3241    0.0829    1.7575 N   0  0  0  1  0  0  0  0  0  0  0  0
    2.8444    2.4677    4.3141 C   0  0  0  1  0  0  0  0  0  0  0  0
    1.7863    1.8489    4.7848 N   0  0  0  1  0  0  0  0  0  0  0  0
    1.4809    0.8842    3.8651 N   0  0  0  1  0  0  0  0  0  0  0  0
    0.4033   -0.0171    3.9811 C   0  0  0  1  0  0  0  0  0  0  0  0
    0.3712   -1.2232    3.3069 C   0  0  0  1  0  0  0  0  0  0  0  0
   -0.7115   -2.0748    3.4614 C   0  0  0  1  0  0  0  0  0  0  0  0
   -1.7614   -1.7155    4.2854 C   0  0  0  1  0  0  0  0  0  0  0  0
   -1.7291   -0.5058    4.9615 C   0  0  0  1  0  0  0  0  0  0  0  0
   -0.6495    0.3434    4.8075 C   0  0  0  1  0  0  0  0  0  0  0  0
   -2.7587   -2.6187    4.3530 O   0  0  0  1  0  0  0  0  0  0  0  0
   -3.9322   -2.1819    5.0774 C   0  0  0  1  0  0  0  0  0  0  0  0
    3.3781   -0.4143   -0.1765 N   0  0  0  1  0  0  0  0  0  0  0  0
    4.4669   -0.3594   -1.1571 C   0  0  0  1  0  0  0  0  0  0  0  0
    3.9070   -0.1555   -2.5676 C   0  0  0  1  0  0  0  0  0  0  0  0
    3.7785   -1.5717   -3.1390 C   0  0  0  1  0  0  0  0  0  0  0  0
    5.0484   -2.2335   -2.6299 C   0  0  0  1  0  0  0  0  0  0  0  0
    5.2149   -1.6985   -1.2036 C   0  0  0  1  0  0  0  0  0  0  0  0
    6.2057   -1.8559   -3.4675 N   0  0  0  1  0  0  0  0  0  0  0  0
    4.9884    2.8541    2.1937 H   0  0  0  1  0  0  0  0  0  0  0  0
    3.3201    3.2574    4.7956 H   0  0  0  1  0  0  0  0  0  0  0  0
    1.1594   -1.4917    2.6838 H   0  0  0  1  0  0  0  0  0  0  0  0
   -0.7338   -2.9841    2.9573 H   0  0  0  1  0  0  0  0  0  0  0  0
   -2.5172   -0.2372    5.5847 H   0  0  0  1  0  0  0  0  0  0  0  0
   -0.6272    1.2528    5.3117 H   0  0  0  1  0  0  0  0  0  0  0  0
   -4.7057   -2.9146    4.9795 H   0  0  0  1  0  0  0  0  0  0  0  0
   -4.2716   -1.2495    4.6770 H   0  0  0  1  0  0  0  0  0  0  0  0
   -3.6871   -2.0584    6.1116 H   0  0  0  1  0  0  0  0  0  0  0  0
    2.6508   -1.0529   -0.3305 H   0  0  0  1  0  0  0  0  0  0  0  0
    5.1372    0.4348   -0.9024 H   0  0  0  1  0  0  0  0  0  0  0  0
    4.5781    0.4313   -3.1594 H   0  0  0  1  0  0  0  0  0  0  0  0
    2.9516    0.3247   -2.5292 H   0  0  0  1  0  0  0  0  0  0  0  0
    2.9060   -2.0646   -2.7639 H   0  0  0  1  0  0  0  0  0  0  0  0
    3.7490   -1.5582   -4.2085 H   0  0  0  1  0  0  0  0  0  0  0  0
    4.9437   -3.2983   -2.6244 H   0  0  0  1  0  0  0  0  0  0  0  0
    4.7921   -2.3838   -0.4991 H   0  0  0  1  0  0  0  0  0  0  0  0
    6.2513   -1.5519   -0.9815 H   0  0  0  1  0  0  0  0  0  0  0  0
    6.2609   -0.8794   -3.5282 H   0  0  0  1  0  0  0  0  0  0  0  0
    6.0957   -2.2331   -4.3653 H   0  0  0  1  0  0  0  0  0  0  0  0
  1  2  4  0  0  0  0
  1  6  4  0  0  0  0
  1 18  1  0  0  0  0
  2  3  4  0  0  0  0
  3  4  4  0  0  0  0
  3 25  1  0  0  0  0
  4  5  4  0  0  0  0
  4  7  4  0  0  0  0
  5  6  4  0  0  0  0
  5  9  4  0  0  0  0
  7  8  4  0  0  0  0
  7 26  1  0  0  0  0
  8  9  4  0  0  0  0
  9 10  1  0  0  0  0
 10 11  4  0  0  0  0
 10 15  4  0  0  0  0
 11 12  4  0  0  0  0
 11 27  1  0  0  0  0
 12 13  4  0  0  0  0
 12 28  1  0  0  0  0
 13 14  4  0  0  0  0
 13 16  1  0  0  0  0
 14 15  4  0  0  0  0
 14 29  1  0  0  0  0
 15 30  1  0  0  0  0
 16 17  1  0  0  0  0
 17 31  1  0  0  0  0
 17 32  1  0  0  0  0
 17 33  1  0  0  0  0
 18 19  1  0  0  0  0
 18 34  1  0  0  0  0
 19 20  1  0  0  0  0
 19 23  1  0  0  0  0
 19 35  1  0  0  0  0
 20 21  1  0  0  0  0
 20 36  1  0  0  0  0
 20 37  1  0  0  0  0
 21 22  1  0  0  0  0
 21 38  1  0  0  0  0
 21 39  1  0  0  0  0
 22 23  1  0  0  0  0
 22 24  1  0  0  0  0
 22 40  1  0  0  0  0
 23 41  1  0  0  0  0
 23 42  1  0  0  0  0
 24 43  1  0  0  0  0
 24 44  1  0  0  0  0
M  END
> <ConfClashScore>
0 

> <ConfOneFourInteractionScore>
-0.984337 

> <ConfScore>
0.0164914 

> <ConfScorePBest>
0.00223376 

> <ConfTolerance>
0.447307 

$$$$
c22.sdf
 OpenBabel04162418103D

 44 47  0  0  0  0  0  0  0  0999 V2000
    4.4511   -0.7179    1.3812 C   0  0  0  1  0  0  0  0  0  0  0  0
    3.6866   -0.9243    2.4582 N   0  0  0  1  0  0  0  0  0  0  0  0
    4.2994   -1.1049    3.6452 C   0  0  0  1  0  0  0  0  0  0  0  0
    5.7234   -1.0614    3.6925 C   0  0  0  1  0  0  0  0  0  0  0  0
    6.3572   -0.8314    2.4776 C   0  0  0  1  0  0  0  0  0  0  0  0
    5.7694   -0.6538    1.2705 N   0  0  0  1  0  0  0  0  0  0  0  0
    6.7809   -1.1662    4.6185 C   0  0  0  1  0  0  0  0  0  0  0  0
    7.9514   -1.0235    4.0409 N   0  0  0  1  0  0  0  0  0  0  0  0
    7.6882   -0.8161    2.7152 N   0  0  0  1  0  0  0  0  0  0  0  0
    8.6836   -0.6111    1.7175 C   0  0  0  1  0  0  0  0  0  0  0  0
    8.6160    0.4945    0.8909 C   0  0  0  1  0  0  0  0  0  0  0  0
    9.5878    0.6967   -0.0766 C   0  0  0  1  0  0  0  0  0  0  0  0
   10.6213   -0.2099   -0.2183 C   0  0  0  1  0  0  0  0  0  0  0  0
   10.6889   -1.3188    0.6108 C   0  0  0  1  0  0  0  0  0  0  0  0
    9.7200   -1.5206    1.5756 C   0  0  0  1  0  0  0  0  0  0  0  0
   11.6212   -0.1209   -1.1273 O   0  0  0  1  0  0  0  0  0  0  0  0
   11.5908    0.9964   -2.0290 C   0  0  0  1  0  0  0  0  0  0  0  0
    3.7736   -0.5483    0.2257 N   0  0  0  1  0  0  0  0  0  0  0  0
    4.4149   -0.3266   -1.0713 C   0  0  0  1  0  0  0  0  0  0  0  0
    3.3806   -0.3579   -2.1896 C   0  0  0  1  0  0  0  0  0  0  0  0
    4.1372   -0.9118   -3.4039 C   0  0  0  1  0  0  0  0  0  0  0  0
    4.9718   -2.0213   -2.7584 C   0  0  0  1  0  0  0  0  0  0  0  0
    5.3913   -1.4652   -1.3884 C   0  0  0  1  0  0  0  0  0  0  0  0
    6.1742   -2.3236   -3.5911 N   0  0  0  1  0  0  0  0  0  0  0  0
    3.7447   -1.2726    4.5087 H   0  0  0  1  0  0  0  0  0  0  0  0
    6.6499   -1.3359    5.6362 H   0  0  0  1  0  0  0  0  0  0  0  0
    7.8361    1.1746    0.9949 H   0  0  0  1  0  0  0  0  0  0  0  0
    9.5392    1.5308   -0.6959 H   0  0  0  1  0  0  0  0  0  0  0  0
   11.4688   -1.9989    0.5069 H   0  0  0  1  0  0  0  0  0  0  0  0
    9.7686   -2.3546    2.1949 H   0  0  0  1  0  0  0  0  0  0  0  0
   11.0340    0.7339   -2.9042 H   0  0  0  1  0  0  0  0  0  0  0  0
   12.5905    1.2571   -2.3075 H   0  0  0  1  0  0  0  0  0  0  0  0
   11.1251    1.8307   -1.5473 H   0  0  0  1  0  0  0  0  0  0  0  0
    2.7945   -0.5752    0.2571 H   0  0  0  1  0  0  0  0  0  0  0  0
    4.9265    0.6132   -1.0607 H   0  0  0  1  0  0  0  0  0  0  0  0
    3.0130    0.6265   -2.3912 H   0  0  0  1  0  0  0  0  0  0  0  0
    2.5636   -0.9981   -1.9300 H   0  0  0  1  0  0  0  0  0  0  0  0
    4.7587   -0.1649   -3.8519 H   0  0  0  1  0  0  0  0  0  0  0  0
    3.4651   -1.3045   -4.1380 H   0  0  0  1  0  0  0  0  0  0  0  0
    4.3871   -2.9095   -2.6395 H   0  0  0  1  0  0  0  0  0  0  0  0
    6.3936   -1.0931   -1.4305 H   0  0  0  1  0  0  0  0  0  0  0  0
    5.3249   -2.2291   -0.6421 H   0  0  0  1  0  0  0  0  0  0  0  0
    5.8898   -2.6217   -4.4803 H   0  0  0  1  0  0  0  0  0  0  0  0
    6.6990   -3.0313   -3.1619 H   0  0  0  1  0  0  0  0  0  0  0  0
  1  2  4  0  0  0  0
  1  6  4  0  0  0  0
  1 18  1  0  0  0  0
  2  3  4  0  0  0  0
  3  4  4  0  0  0  0
  3 25  1  0  0  0  0
  4  5  4  0  0  0  0
  4  7  4  0  0  0  0
  5  6  4  0  0  0  0
  5  9  4  0  0  0  0
  7  8  4  0  0  0  0
  7 26  1  0  0  0  0
  8  9  4  0  0  0  0
  9 10  1  0  0  0  0
 10 11  4  0  0  0  0
 10 15  4  0  0  0  0
 11 12  4  0  0  0  0
 11 27  1  0  0  0  0
 12 13  4  0  0  0  0
 12 28  1  0  0  0  0
 13 14  4  0  0  0  0
 13 16  1  0  0  0  0
 14 15  4  0  0  0  0
 14 29  1  0  0  0  0
 15 30  1  0  0  0  0
 16 17  1  0  0  0  0
 17 31  1  0  0  0  0
 17 32  1  0  0  0  0
 17 33  1  0  0  0  0
 18 19  1  0  0  0  0
 18 34  1  0  0  0  0
 19 20  1  0  0  0  0
 19 23  1  0  0  0  0
 19 35  1  0  0  0  0
 20 21  1  0  0  0  0
 20 36  1  0  0  0  0
 20 37  1  0  0  0  0
 21 22  1  0  0  0  0
 21 38  1  0  0  0  0
 21 39  1  0  0  0  0
 22 23  1  0  0  0  0
 22 24  1  0  0  0  0
 22 40  1  0  0  0  0
 23 41  1  0  0  0  0
 23 42  1  0  0  0  0
 24 43  1  0  0  0  0
 24 44  1  0  0  0  0
M  END
> <ConfClashScore>
0 

> <ConfOneFourInteractionScore>
-0.985399 

> <ConfScore>
0.0169228 

> <ConfScorePBest>
0.00222043 

> <ConfTolerance>
0.399718 

$$$$
c22.sdf
 OpenBabel04162418103D

 44 47  0  0  0  0  0  0  0  0999 V2000
    4.5957   -0.4719    1.2964 C   0  0  0  1  0  0  0  0  0  0  0  0
    3.8739   -0.6052    2.4137 N   0  0  0  1  0  0  0  0  0  0  0  0
    4.5327   -0.7022    3.5858 C   0  0  0  1  0  0  0  0  0  0  0  0
    5.9573   -0.6525    3.5750 C   0  0  0  1  0  0  0  0  0  0  0  0
    6.5429   -0.5054    2.3236 C   0  0  0  1  0  0  0  0  0  0  0  0
    5.9084   -0.4127    1.1307 N   0  0  0  1  0  0  0  0  0  0  0  0
    7.0500   -0.6908    4.4646 C   0  0  0  1  0  0  0  0  0  0  0  0
    8.1968   -0.5858    3.8338 N   0  0  0  1  0  0  0  0  0  0  0  0
    7.8820   -0.4709    2.5081 N   0  0  0  1  0  0  0  0  0  0  0  0
    8.8373   -0.3331    1.4610 C   0  0  0  1  0  0  0  0  0  0  0  0
    9.7368   -1.3514    1.2080 C   0  0  0  1  0  0  0  0  0  0  0  0
   10.6632   -1.2194    0.1853 C   0  0  0  1  0  0  0  0  0  0  0  0
   10.6909   -0.0675   -0.5779 C   0  0  0  1  0  0  0  0  0  0  0  0
    9.7886    0.9538   -0.3240 C   0  0  0  1  0  0  0  0  0  0  0  0
    8.8649    0.8224    0.6957 C   0  0  0  1  0  0  0  0  0  0  0  0
   11.5730    0.1262   -1.5870 O   0  0  0  1  0  0  0  0  0  0  0  0
   12.4392   -0.9696   -1.9208 C   0  0  0  1  0  0  0  0  0  0  0  0
    3.8762   -0.3842    0.1631 N   0  0  0  1  0  0  0  0  0  0  0  0
    4.4012   -0.3286   -1.1898 C   0  0  0  1  0  0  0  0  0  0  0  0
    3.2380   -0.4986   -2.1857 C   0  0  0  1  0  0  0  0  0  0  0  0
    4.1422   -1.0620   -3.2938 C   0  0  0  1  0  0  0  0  0  0  0  0
    5.0265   -2.1545   -2.6409 C   0  0  0  1  0  0  0  0  0  0  0  0
    5.4586   -1.4376   -1.3630 C   0  0  0  1  0  0  0  0  0  0  0  0
    6.1887   -2.4994   -3.4941 N   0  0  0  1  0  0  0  0  0  0  0  0
    4.0123   -0.8111    4.4796 H   0  0  0  1  0  0  0  0  0  0  0  0
    6.9589   -0.7903    5.4958 H   0  0  0  1  0  0  0  0  0  0  0  0
    9.7187   -2.2166    1.7849 H   0  0  0  1  0  0  0  0  0  0  0  0
   11.3375   -1.9874   -0.0077 H   0  0  0  1  0  0  0  0  0  0  0  0
    9.8068    1.8190   -0.9008 H   0  0  0  1  0  0  0  0  0  0  0  0
    8.1906    1.5903    0.8888 H   0  0  0  1  0  0  0  0  0  0  0  0
   12.8419   -1.3924   -1.0241 H   0  0  0  1  0  0  0  0  0  0  0  0
   13.2383   -0.6168   -2.5387 H   0  0  0  1  0  0  0  0  0  0  0  0
   11.8827   -1.7160   -2.4481 H   0  0  0  1  0  0  0  0  0  0  0  0
    2.9014   -0.3550    0.2601 H   0  0  0  1  0  0  0  0  0  0  0  0
    4.8639    0.6220   -1.3546 H   0  0  0  1  0  0  0  0  0  0  0  0
    2.4944   -1.1924   -1.8530 H   0  0  0  1  0  0  0  0  0  0  0  0
    2.7700    0.4263   -2.4512 H   0  0  0  1  0  0  0  0  0  0  0  0
    4.7564   -0.2847   -3.6981 H   0  0  0  1  0  0  0  0  0  0  0  0
    3.5464   -1.4885   -4.0735 H   0  0  0  1  0  0  0  0  0  0  0  0
    4.4656   -3.0400   -2.4262 H   0  0  0  1  0  0  0  0  0  0  0  0
    6.4367   -1.0179   -1.4734 H   0  0  0  1  0  0  0  0  0  0  0  0
    5.4493   -2.1071   -0.5284 H   0  0  0  1  0  0  0  0  0  0  0  0
    6.6767   -1.6825   -3.7280 H   0  0  0  1  0  0  0  0  0  0  0  0
    5.8742   -2.9374   -4.3125 H   0  0  0  1  0  0  0  0  0  0  0  0
  1  2  4  0  0  0  0
  1  6  4  0  0  0  0
  1 18  1  0  0  0  0
  2  3  4  0  0  0  0
  3  4  4  0  0  0  0
  3 25  1  0  0  0  0
  4  5  4  0  0  0  0
  4  7  4  0  0  0  0
  5  6  4  0  0  0  0
  5  9  4  0  0  0  0
  7  8  4  0  0  0  0
  7 26  1  0  0  0  0
  8  9  4  0  0  0  0
  9 10  1  0  0  0  0
 10 11  4  0  0  0  0
 10 15  4  0  0  0  0
 11 12  4  0  0  0  0
 11 27  1  0  0  0  0
 12 13  4  0  0  0  0
 12 28  1  0  0  0  0
 13 14  4  0  0  0  0
 13 16  1  0  0  0  0
 14 15  4  0  0  0  0
 14 29  1  0  0  0  0
 15 30  1  0  0  0  0
 16 17  1  0  0  0  0
 17 31  1  0  0  0  0
 17 32  1  0  0  0  0
 17 33  1  0  0  0  0
 18 19  1  0  0  0  0
 18 34  1  0  0  0  0
 19 20  1  0  0  0  0
 19 23  1  0  0  0  0
 19 35  1  0  0  0  0
 20 21  1  0  0  0  0
 20 36  1  0  0  0  0
 20 37  1  0  0  0  0
 21 22  1  0  0  0  0
 21 38  1  0  0  0  0
 21 39  1  0  0  0  0
 22 23  1  0  0  0  0
 22 24  1  0  0  0  0
 22 40  1  0  0  0  0
 23 41  1  0  0  0  0
 23 42  1  0  0  0  0
 24 43  1  0  0  0  0
 24 44  1  0  0  0  0
M  END
> <ConfClashScore>
0 

> <ConfOneFourInteractionScore>
-0.985399 

> <ConfScore>
0.0173146 

> <ConfScorePBest>
0.0022071 

> <ConfTolerance>
0.462933 

$$$$
c22.sdf
 OpenBabel04162418103D

 44 47  0  0  0  0  0  0  0  0999 V2000
    3.3288   -1.6270    1.0331 C   0  0  0  1  0  0  0  0  0  0  0  0
    4.2604   -0.9210    1.6818 N   0  0  0  1  0  0  0  0  0  0  0  0
    4.3764   -1.0975    3.0132 C   0  0  0  1  0  0  0  0  0  0  0  0
    3.5084   -2.0267    3.6574 C   0  0  0  1  0  0  0  0  0  0  0  0
    2.6032   -2.6766    2.8275 C   0  0  0  1  0  0  0  0  0  0  0  0
    2.4590   -2.5149    1.4906 N   0  0  0  1  0  0  0  0  0  0  0  0
    3.2463   -2.5579    4.9364 C   0  0  0  1  0  0  0  0  0  0  0  0
    2.2750   -3.4411    4.9084 N   0  0  0  1  0  0  0  0  0  0  0  0
    1.8774   -3.5142    3.6021 N   0  0  0  1  0  0  0  0  0  0  0  0
    0.8373   -4.3599    3.1215 C   0  0  0  1  0  0  0  0  0  0  0  0
    1.1374   -5.6226    2.6467 C   0  0  0  1  0  0  0  0  0  0  0  0
    0.1243   -6.4478    2.1838 C   0  0  0  1  0  0  0  0  0  0  0  0
   -1.1853   -6.0059    2.1922 C   0  0  0  1  0  0  0  0  0  0  0  0
   -1.4861   -4.7393    2.6685 C   0  0  0  1  0  0  0  0  0  0  0  0
   -0.4760   -3.9164    3.1300 C   0  0  0  1  0  0  0  0  0  0  0  0
   -2.1267   -6.7965    1.6323 O   0  0  0  1  0  0  0  0  0  0  0  0
   -1.7433   -8.0584    1.0637 C   0  0  0  1  0  0  0  0  0  0  0  0
    3.2641   -1.3980   -0.3036 N   0  0  0  1  0  0  0  0  0  0  0  0
    4.2346   -0.5405   -0.9845 C   0  0  0  1  0  0  0  0  0  0  0  0
    3.6891   -0.0327   -2.3091 C   0  0  0  1  0  0  0  0  0  0  0  0
    3.8718   -1.2078   -3.2754 C   0  0  0  1  0  0  0  0  0  0  0  0
    5.0122   -2.0608   -2.7038 C   0  0  0  1  0  0  0  0  0  0  0  0
    5.4646   -1.3378   -1.4321 C   0  0  0  1  0  0  0  0  0  0  0  0
    6.1292   -2.1499   -3.6743 N   0  0  0  1  0  0  0  0  0  0  0  0
    5.0846   -0.5665    3.5592 H   0  0  0  1  0  0  0  0  0  0  0  0
    3.7600   -2.2836    5.7980 H   0  0  0  1  0  0  0  0  0  0  0  0
    2.1232   -5.9537    2.6366 H   0  0  0  1  0  0  0  0  0  0  0  0
    0.3496   -7.3995    1.8303 H   0  0  0  1  0  0  0  0  0  0  0  0
   -2.4719   -4.4082    2.6786 H   0  0  0  1  0  0  0  0  0  0  0  0
   -0.7013   -2.9647    3.4836 H   0  0  0  1  0  0  0  0  0  0  0  0
   -0.7513   -7.9858    0.6694 H   0  0  0  1  0  0  0  0  0  0  0  0
   -2.4216   -8.3156    0.2771 H   0  0  0  1  0  0  0  0  0  0  0  0
   -1.7715   -8.8138    1.8210 H   0  0  0  1  0  0  0  0  0  0  0  0
    2.5490   -1.8178   -0.8258 H   0  0  0  1  0  0  0  0  0  0  0  0
    4.5092    0.2692   -0.3411 H   0  0  0  1  0  0  0  0  0  0  0  0
    2.6545    0.2246   -2.2181 H   0  0  0  1  0  0  0  0  0  0  0  0
    4.2414    0.8207   -2.6431 H   0  0  0  1  0  0  0  0  0  0  0  0
    2.9716   -1.7834   -3.3332 H   0  0  0  1  0  0  0  0  0  0  0  0
    4.1297   -0.8495   -4.2501 H   0  0  0  1  0  0  0  0  0  0  0  0
    4.6625   -3.0447   -2.4704 H   0  0  0  1  0  0  0  0  0  0  0  0
    5.7530   -2.0416   -0.6795 H   0  0  0  1  0  0  0  0  0  0  0  0
    6.2842   -0.6825   -1.6412 H   0  0  0  1  0  0  0  0  0  0  0  0
    5.8723   -2.7370   -4.4157 H   0  0  0  1  0  0  0  0  0  0  0  0
    6.9212   -2.5155   -3.2278 H   0  0  0  1  0  0  0  0  0  0  0  0
  1  2  4  0  0  0  0
  1  6  4  0  0  0  0
  1 18  1  0  0  0  0
  2  3  4  0  0  0  0
  3  4  4  0  0  0  0
  3 25  1  0  0  0  0
  4  5  4  0  0  0  0
  4  7  4  0  0  0  0
  5  6  4  0  0  0  0
  5  9  4  0  0  0  0
  7  8  4  0  0  0  0
  7 26  1  0  0  0  0
  8  9  4  0  0  0  0
  9 10  1  0  0  0  0
 10 11  4  0  0  0  0
 10 15  4  0  0  0  0
 11 12  4  0  0  0  0
 11 27  1  0  0  0  0
 12 13  4  0  0  0  0
 12 28  1  0  0  0  0
 13 14  4  0  0  0  0
 13 16  1  0  0  0  0
 14 15  4  0  0  0  0
 14 29  1  0  0  0  0
 15 30  1  0  0  0  0
 16 17  1  0  0  0  0
 17 31  1  0  0  0  0
 17 32  1  0  0  0  0
 17 33  1  0  0  0  0
 18 19  1  0  0  0  0
 18 34  1  0  0  0  0
 19 20  1  0  0  0  0
 19 23  1  0  0  0  0
 19 35  1  0  0  0  0
 20 21  1  0  0  0  0
 20 36  1  0  0  0  0
 20 37  1  0  0  0  0
 21 22  1  0  0  0  0
 21 38  1  0  0  0  0
 21 39  1  0  0  0  0
 22 23  1  0  0  0  0
 22 24  1  0  0  0  0
 22 40  1  0  0  0  0
 23 41  1  0  0  0  0
 23 42  1  0  0  0  0
 24 43  1  0  0  0  0
 24 44  1  0  0  0  0
M  END
> <ConfClashScore>
0 

> <ConfOneFourInteractionScore>
-0.984337 

> <ConfScore>
0.0182484 

> <ConfScorePBest>
0.00219377 

> <ConfTolerance>
0.475499 

$$$$
c22.sdf
 OpenBabel04162418103D

 44 47  0  0  0  0  0  0  0  0999 V2000
    3.1504   -0.5776    0.7156 C   0  0  0  1  0  0  0  0  0  0  0  0
    2.6078   -1.5930    0.0362 N   0  0  0  1  0  0  0  0  0  0  0  0
    1.5946   -2.2710    0.6116 C   0  0  0  1  0  0  0  0  0  0  0  0
    1.1519   -1.8695    1.9057 C   0  0  0  1  0  0  0  0  0  0  0  0
    1.8267   -0.7899    2.4622 C   0  0  0  1  0  0  0  0  0  0  0  0
    2.8508   -0.0951    1.9121 N   0  0  0  1  0  0  0  0  0  0  0  0
    0.1867   -2.2096    2.8749 C   0  0  0  1  0  0  0  0  0  0  0  0
    0.2567   -1.4288    3.9283 N   0  0  0  1  0  0  0  0  0  0  0  0
    1.2723   -0.5498    3.6720 N   0  0  0  1  0  0  0  0  0  0  0  0
    1.6863    0.4707    4.5517 C   0  0  0  1  0  0  0  0  0  0  0  0
    3.0146    0.8503    4.5124 C   0  0  0  1  0  0  0  0  0  0  0  0
    3.4740    1.8528    5.3524 C   0  0  0  1  0  0  0  0  0  0  0  0
    2.6049    2.4690    6.2329 C   0  0  0  1  0  0  0  0  0  0  0  0
    1.2726    2.0882    6.2722 C   0  0  0  1  0  0  0  0  0  0  0  0
    0.8145    1.0886    5.4347 C   0  0  0  1  0  0  0  0  0  0  0  0
    3.1179    3.4366    7.0294 O   0  0  0  1  0  0  0  0  0  0  0  0
    2.1976    4.1532    7.8673 C   0  0  0  1  0  0  0  0  0  0  0  0
    4.1617    0.0550    0.0832 N   0  0  0  1  0  0  0  0  0  0  0  0
    4.6517   -0.3148   -1.2486 C   0  0  0  1  0  0  0  0  0  0  0  0
    3.5120   -0.2844   -2.2725 C   0  0  0  1  0  0  0  0  0  0  0  0
    3.7729   -1.4463   -3.2404 C   0  0  0  1  0  0  0  0  0  0  0  0
    5.0690   -2.1000   -2.7531 C   0  0  0  1  0  0  0  0  0  0  0  0
    5.1368   -1.7551   -1.2614 C   0  0  0  1  0  0  0  0  0  0  0  0
    6.2322   -1.5464   -3.4688 N   0  0  0  1  0  0  0  0  0  0  0  0
    1.1452   -3.0705    0.1214 H   0  0  0  1  0  0  0  0  0  0  0  0
   -0.4980   -2.9851    2.7686 H   0  0  0  1  0  0  0  0  0  0  0  0
    3.6695    0.3839    3.8528 H   0  0  0  1  0  0  0  0  0  0  0  0
    4.4726    2.1412    5.3201 H   0  0  0  1  0  0  0  0  0  0  0  0
    0.6177    2.5546    6.9319 H   0  0  0  1  0  0  0  0  0  0  0  0
   -0.1842    0.8002    5.4671 H   0  0  0  1  0  0  0  0  0  0  0  0
    1.5535    4.7532    7.2590 H   0  0  0  1  0  0  0  0  0  0  0  0
    2.7431    4.7834    8.5383 H   0  0  0  1  0  0  0  0  0  0  0  0
    1.6106    3.4568    8.4290 H   0  0  0  1  0  0  0  0  0  0  0  0
    4.5940    0.8058    0.5413 H   0  0  0  1  0  0  0  0  0  0  0  0
    5.4375    0.3513   -1.5378 H   0  0  0  1  0  0  0  0  0  0  0  0
    2.5699   -0.4149   -1.7822 H   0  0  0  1  0  0  0  0  0  0  0  0
    3.5136    0.6459   -2.8012 H   0  0  0  1  0  0  0  0  0  0  0  0
    2.9654   -2.1477   -3.2090 H   0  0  0  1  0  0  0  0  0  0  0  0
    3.8906   -1.0815   -4.2394 H   0  0  0  1  0  0  0  0  0  0  0  0
    5.0339   -3.1601   -2.8947 H   0  0  0  1  0  0  0  0  0  0  0  0
    6.1372   -1.8317   -0.8898 H   0  0  0  1  0  0  0  0  0  0  0  0
    4.4928   -2.3873   -0.6865 H   0  0  0  1  0  0  0  0  0  0  0  0
    6.0618   -1.5647   -4.4337 H   0  0  0  1  0  0  0  0  0  0  0  0
    7.0260   -2.0846   -3.2672 H   0  0  0  1  0  0  0  0  0  0  0  0
  1  2  4  0  0  0  0
  1  6  4  0  0  0  0
  1 18  1  0  0  0  0
  2  3  4  0  0  0  0
  3  4  4  0  0  0  0
  3 25  1  0  0  0  0
  4  5  4  0  0  0  0
  4  7  4  0  0  0  0
  5  6  4  0  0  0  0
  5  9  4  0  0  0  0
  7  8  4  0  0  0  0
  7 26  1  0  0  0  0
  8  9  4  0  0  0  0
  9 10  1  0  0  0  0
 10 11  4  0  0  0  0
 10 15  4  0  0  0  0
 11 12  4  0  0  0  0
 11 27  1  0  0  0  0
 12 13  4  0  0  0  0
 12 28  1  0  0  0  0
 13 14  4  0  0  0  0
 13 16  1  0  0  0  0
 14 15  4  0  0  0  0
 14 29  1  0  0  0  0
 15 30  1  0  0  0  0
 16 17  1  0  0  0  0
 17 31  1  0  0  0  0
 17 32  1  0  0  0  0
 17 33  1  0  0  0  0
 18 19  1  0  0  0  0
 18 34  1  0  0  0  0
 19 20  1  0  0  0  0
 19 23  1  0  0  0  0
 19 35  1  0  0  0  0
 20 21  1  0  0  0  0
 20 36  1  0  0  0  0
 20 37  1  0  0  0  0
 21 22  1  0  0  0  0
 21 38  1  0  0  0  0
 21 39  1  0  0  0  0
 22 23  1  0  0  0  0
 22 24  1  0  0  0  0
 22 40  1  0  0  0  0
 23 41  1  0  0  0  0
 23 42  1  0  0  0  0
 24 43  1  0  0  0  0
 24 44  1  0  0  0  0
M  END
> <ConfClashScore>
0 

> <ConfOneFourInteractionScore>
-0.980204 

> <ConfScore>
0.0186933 

> <ConfScorePBest>
0.00218045 

> <ConfTolerance>
0.305138 

$$$$
c22.sdf
 OpenBabel04162418103D

 44 47  0  0  0  0  0  0  0  0999 V2000
    3.2379   -1.8361    0.5507 C   0  0  0  1  0  0  0  0  0  0  0  0
    3.1009   -2.6701   -0.4851 N   0  0  0  1  0  0  0  0  0  0  0  0
    2.5878   -3.8942   -0.2495 C   0  0  0  1  0  0  0  0  0  0  0  0
    2.2142   -4.2334    1.0837 C   0  0  0  1  0  0  0  0  0  0  0  0
    2.4216   -3.2425    2.0353 C   0  0  0  1  0  0  0  0  0  0  0  0
    2.9408   -2.0087    1.8299 N   0  0  0  1  0  0  0  0  0  0  0  0
    1.6546   -5.3011    1.8141 C   0  0  0  1  0  0  0  0  0  0  0  0
    1.5323   -5.0095    3.0885 N   0  0  0  1  0  0  0  0  0  0  0  0
    2.0073   -3.7345    3.2247 N   0  0  0  1  0  0  0  0  0  0  0  0
    2.0589   -3.0193    4.4563 C   0  0  0  1  0  0  0  0  0  0  0  0
    3.0067   -2.0310    4.6434 C   0  0  0  1  0  0  0  0  0  0  0  0
    3.1131   -1.3966    5.8713 C   0  0  0  1  0  0  0  0  0  0  0  0
    2.2752   -1.7560    6.9100 C   0  0  0  1  0  0  0  0  0  0  0  0
    1.3247   -2.7474    6.7222 C   0  0  0  1  0  0  0  0  0  0  0  0
    1.2184   -3.3800    5.4980 C   0  0  0  1  0  0  0  0  0  0  0  0
    2.4841   -1.1919    8.1196 O   0  0  0  1  0  0  0  0  0  0  0  0
    1.7980   -1.7186    9.2791 C   0  0  0  1  0  0  0  0  0  0  0  0
    3.7661   -0.6168    0.2419 N   0  0  0  1  0  0  0  0  0  0  0  0
    4.3781   -0.3506   -1.0639 C   0  0  0  1  0  0  0  0  0  0  0  0
    3.3331   -0.4352   -2.1695 C   0  0  0  1  0  0  0  0  0  0  0  0
    4.1048   -0.9376   -3.3966 C   0  0  0  1  0  0  0  0  0  0  0  0
    5.0102   -2.0007   -2.7686 C   0  0  0  1  0  0  0  0  0  0  0  0
    5.4144   -1.4291   -1.4004 C   0  0  0  1  0  0  0  0  0  0  0  0
    6.2173   -2.2283   -3.6181 N   0  0  0  1  0  0  0  0  0  0  0  0
    2.4670   -4.5771   -1.0245 H   0  0  0  1  0  0  0  0  0  0  0  0
    1.3726   -6.2100    1.3945 H   0  0  0  1  0  0  0  0  0  0  0  0
    3.6399   -1.7632    3.8630 H   0  0  0  1  0  0  0  0  0  0  0  0
    3.8236   -0.6500    6.0109 H   0  0  0  1  0  0  0  0  0  0  0  0
    0.6915   -3.0151    7.5025 H   0  0  0  1  0  0  0  0  0  0  0  0
    0.5080   -4.1266    5.3583 H   0  0  0  1  0  0  0  0  0  0  0  0
    1.9113   -2.7822    9.3086 H   0  0  0  1  0  0  0  0  0  0  0  0
    0.7584   -1.4724    9.2205 H   0  0  0  1  0  0  0  0  0  0  0  0
    2.2170   -1.2909   10.1659 H   0  0  0  1  0  0  0  0  0  0  0  0
    3.7358    0.0996    0.9099 H   0  0  0  1  0  0  0  0  0  0  0  0
    4.8347    0.6170   -1.0537 H   0  0  0  1  0  0  0  0  0  0  0  0
    2.5577   -1.1230   -1.9039 H   0  0  0  1  0  0  0  0  0  0  0  0
    2.9068    0.5275   -2.3601 H   0  0  0  1  0  0  0  0  0  0  0  0
    4.6764   -0.1535   -3.8475 H   0  0  0  1  0  0  0  0  0  0  0  0
    3.4471   -1.3643   -4.1248 H   0  0  0  1  0  0  0  0  0  0  0  0
    4.4793   -2.9218   -2.6482 H   0  0  0  1  0  0  0  0  0  0  0  0
    5.4017   -2.1999   -0.6583 H   0  0  0  1  0  0  0  0  0  0  0  0
    6.3930   -0.9996   -1.4526 H   0  0  0  1  0  0  0  0  0  0  0  0
    5.9410   -2.5681   -4.4948 H   0  0  0  1  0  0  0  0  0  0  0  0
    6.8032   -2.8831   -3.1841 H   0  0  0  1  0  0  0  0  0  0  0  0
  1  2  4  0  0  0  0
  1  6  4  0  0  0  0
  1 18  1  0  0  0  0
  2  3  4  0  0  0  0
  3  4  4  0  0  0  0
  3 25  1  0  0  0  0
  4  5  4  0  0  0  0
  4  7  4  0  0  0  0
  5  6  4  0  0  0  0
  5  9  4  0  0  0  0
  7  8  4  0  0  0  0
  7 26  1  0  0  0  0
  8  9  4  0  0  0  0
  9 10  1  0  0  0  0
 10 11  4  0  0  0  0
 10 15  4  0  0  0  0
 11 12  4  0  0  0  0
 11 27  1  0  0  0  0
 12 13  4  0  0  0  0
 12 28  1  0  0  0  0
 13 14  4  0  0  0  0
 13 16  1  0  0  0  0
 14 15  4  0  0  0  0
 14 29  1  0  0  0  0
 15 30  1  0  0  0  0
 16 17  1  0  0  0  0
 17 31  1  0  0  0  0
 17 32  1  0  0  0  0
 17 33  1  0  0  0  0
 18 19  1  0  0  0  0
 18 34  1  0  0  0  0
 19 20  1  0  0  0  0
 19 23  1  0  0  0  0
 19 35  1  0  0  0  0
 20 21  1  0  0  0  0
 20 36  1  0  0  0  0
 20 37  1  0  0  0  0
 21 22  1  0  0  0  0
 21 38  1  0  0  0  0
 21 39  1  0  0  0  0
 22 23  1  0  0  0  0
 22 24  1  0  0  0  0
 22 40  1  0  0  0  0
 23 41  1  0  0  0  0
 23 42  1  0  0  0  0
 24 43  1  0  0  0  0
 24 44  1  0  0  0  0
M  END
> <ConfClashScore>
0 

> <ConfOneFourInteractionScore>
-0.980204 

> <ConfScore>
0.0186933 

> <ConfScorePBest>
0.00216712 

> <ConfTolerance>
0.444781 

$$$$
c22.sdf
 OpenBabel04162418103D

 44 47  0  0  0  0  0  0  0  0999 V2000
    3.3604   -0.5053    0.8841 C   0  0  0  1  0  0  0  0  0  0  0  0
    3.1299    0.0845    2.0614 N   0  0  0  1  0  0  0  0  0  0  0  0
    2.2403   -0.4910    2.8950 C   0  0  0  1  0  0  0  0  0  0  0  0
    1.5984   -1.6953    2.4835 C   0  0  0  1  0  0  0  0  0  0  0  0
    1.9620   -2.1706    1.2295 C   0  0  0  1  0  0  0  0  0  0  0  0
    2.8453   -1.6113    0.3686 N   0  0  0  1  0  0  0  0  0  0  0  0
    0.6655   -2.6416    2.9536 C   0  0  0  1  0  0  0  0  0  0  0  0
    0.4632   -3.6023    2.0816 N   0  0  0  1  0  0  0  0  0  0  0  0
    1.2665   -3.3100    1.0143 N   0  0  0  1  0  0  0  0  0  0  0  0
    1.3570   -4.0887   -0.1491 C   0  0  0  1  0  0  0  0  0  0  0  0
    1.2376   -5.4652   -0.1827 C   0  0  0  1  0  0  0  0  0  0  0  0
    1.3379   -6.1402   -1.3893 C   0  0  0  1  0  0  0  0  0  0  0  0
    1.5626   -5.4373   -2.5580 C   0  0  0  1  0  0  0  0  0  0  0  0
    1.6823   -4.0566   -2.5240 C   0  0  0  1  0  0  0  0  0  0  0  0
    1.5823   -3.3835   -1.3210 C   0  0  0  1  0  0  0  0  0  0  0  0
    1.6831   -5.9845   -3.7872 O   0  0  0  1  0  0  0  0  0  0  0  0
    1.5816   -7.4088   -3.9402 C   0  0  0  1  0  0  0  0  0  0  0  0
    4.2554    0.1227    0.1004 N   0  0  0  1  0  0  0  0  0  0  0  0
    4.6244   -0.2469   -1.2604 C   0  0  0  1  0  0  0  0  0  0  0  0
    3.3922   -0.3709   -2.1607 C   0  0  0  1  0  0  0  0  0  0  0  0
    3.8161   -1.3149   -3.2969 C   0  0  0  1  0  0  0  0  0  0  0  0
    5.0367   -2.0855   -2.7804 C   0  0  0  1  0  0  0  0  0  0  0  0
    5.1876   -1.6727   -1.3216 C   0  0  0  1  0  0  0  0  0  0  0  0
    6.2581   -1.7131   -3.5584 N   0  0  0  1  0  0  0  0  0  0  0  0
    2.0268   -0.0649    3.8194 H   0  0  0  1  0  0  0  0  0  0  0  0
    0.1944   -2.5857    3.8791 H   0  0  0  1  0  0  0  0  0  0  0  0
    1.0726   -5.9946    0.6971 H   0  0  0  1  0  0  0  0  0  0  0  0
    1.2441   -7.1756   -1.4152 H   0  0  0  1  0  0  0  0  0  0  0  0
    1.8474   -3.5273   -3.4039 H   0  0  0  1  0  0  0  0  0  0  0  0
    1.6761   -2.3481   -1.2951 H   0  0  0  1  0  0  0  0  0  0  0  0
    0.5680   -7.7136   -3.7831 H   0  0  0  1  0  0  0  0  0  0  0  0
    2.2136   -7.8902   -3.2234 H   0  0  0  1  0  0  0  0  0  0  0  0
    1.8875   -7.6839   -4.9279 H   0  0  0  1  0  0  0  0  0  0  0  0
    4.7037    0.9061    0.4822 H   0  0  0  1  0  0  0  0  0  0  0  0
    5.3218    0.4663   -1.6476 H   0  0  0  1  0  0  0  0  0  0  0  0
    2.5699   -0.7854   -1.6158 H   0  0  0  1  0  0  0  0  0  0  0  0
    3.1156    0.5860   -2.5516 H   0  0  0  1  0  0  0  0  0  0  0  0
    4.0750   -0.7521   -4.1693 H   0  0  0  1  0  0  0  0  0  0  0  0
    3.0220   -1.9925   -3.5316 H   0  0  0  1  0  0  0  0  0  0  0  0
    4.8729   -3.1402   -2.8559 H   0  0  0  1  0  0  0  0  0  0  0  0
    6.2172   -1.6844   -1.0307 H   0  0  0  1  0  0  0  0  0  0  0  0
    4.6291   -2.3265   -0.6848 H   0  0  0  1  0  0  0  0  0  0  0  0
    6.2156   -2.1205   -4.4487 H   0  0  0  1  0  0  0  0  0  0  0  0
    7.0553   -2.0366   -3.0891 H   0  0  0  1  0  0  0  0  0  0  0  0
  1  2  4  0  0  0  0
  1  6  4  0  0  0  0
  1 18  1  0  0  0  0
  2  3  4  0  0  0  0
  3  4  4  0  0  0  0
  3 25  1  0  0  0  0
  4  5  4  0  0  0  0
  4  7  4  0  0  0  0
  5  6  4  0  0  0  0
  5  9  4  0  0  0  0
  7  8  4  0  0  0  0
  7 26  1  0  0  0  0
  8  9  4  0  0  0  0
  9 10  1  0  0  0  0
 10 11  4  0  0  0  0
 10 15  4  0  0  0  0
 11 12  4  0  0  0  0
 11 27  1  0  0  0  0
 12 13  4  0  0  0  0
 12 28  1  0  0  0  0
 13 14  4  0  0  0  0
 13 16  1  0  0  0  0
 14 15  4  0  0  0  0
 14 29  1  0  0  0  0
 15 30  1  0  0  0  0
 16 17  1  0  0  0  0
 17 31  1  0  0  0  0
 17 32  1  0  0  0  0
 17 33  1  0  0  0  0
 18 19  1  0  0  0  0
 18 34  1  0  0  0  0
 19 20  1  0  0  0  0
 19 23  1  0  0  0  0
 19 35  1  0  0  0  0
 20 21  1  0  0  0  0
 20 36  1  0  0  0  0
 20 37  1  0  0  0  0
 21 22  1  0  0  0  0
 21 38  1  0  0  0  0
 21 39  1  0  0  0  0
 22 23  1  0  0  0  0
 22 24  1  0  0  0  0
 22 40  1  0  0  0  0
 23 41  1  0  0  0  0
 23 42  1  0  0  0  0
 24 43  1  0  0  0  0
 24 44  1  0  0  0  0
M  END
> <ConfClashScore>
0 

> <ConfOneFourInteractionScore>
-0.980204 

> <ConfScore>
0.0186933 

> <ConfScorePBest>
0.00215379 

> <ConfTolerance>
0.314479 

$$$$
c22.sdf
 OpenBabel04162418103D

 44 47  0  0  0  0  0  0  0  0999 V2000
    5.3341    0.3324    0.9104 C   0  0  0  1  0  0  0  0  0  0  0  0
    6.5605    0.1141    0.4251 N   0  0  0  1  0  0  0  0  0  0  0  0
    7.6064    0.2393    1.2663 C   0  0  0  1  0  0  0  0  0  0  0  0
    7.3527    0.5906    2.6243 C   0  0  0  1  0  0  0  0  0  0  0  0
    6.0163    0.7751    2.9566 C   0  0  0  1  0  0  0  0  0  0  0  0
    4.9469    0.6635    2.1330 N   0  0  0  1  0  0  0  0  0  0  0  0
    8.0427    0.8173    3.8323 C   0  0  0  1  0  0  0  0  0  0  0  0
    7.2234    1.1184    4.8133 N   0  0  0  1  0  0  0  0  0  0  0  0
    5.9687    1.0919    4.2702 N   0  0  0  1  0  0  0  0  0  0  0  0
    4.7835    1.3592    4.9848 C   0  0  0  1  0  0  0  0  0  0  0  0
    4.8915    2.0869    6.1549 C   0  0  0  1  0  0  0  0  0  0  0  0
    3.7568    2.3827    6.8941 C   0  0  0  1  0  0  0  0  0  0  0  0
    2.5181    1.9456    6.4640 C   0  0  0  1  0  0  0  0  0  0  0  0
    2.4100    1.2158    5.2904 C   0  0  0  1  0  0  0  0  0  0  0  0
    3.5414    0.9207    4.5532 C   0  0  0  1  0  0  0  0  0  0  0  0
    1.3447    2.1681    7.1022 O   0  0  0  1  0  0  0  0  0  0  0  0
    1.3644    3.0776    8.2135 C   0  0  0  1  0  0  0  0  0  0  0  0
    4.3095    0.1903   -0.0077 N   0  0  0  1  0  0  0  0  0  0  0  0
    4.6573   -0.2642   -1.3579 C   0  0  0  1  0  0  0  0  0  0  0  0
    3.4118   -0.3848   -2.2429 C   0  0  0  1  0  0  0  0  0  0  0  0
    3.8285   -1.3399   -3.3649 C   0  0  0  1  0  0  0  0  0  0  0  0
    4.9598   -2.1934   -2.7763 C   0  0  0  1  0  0  0  0  0  0  0  0
    5.1733   -1.6937   -1.3435 C   0  0  0  1  0  0  0  0  0  0  0  0
    6.1915   -2.0217   -3.5652 N   0  0  0  1  0  0  0  0  0  0  0  0
    8.5785    0.0828    0.9314 H   0  0  0  1  0  0  0  0  0  0  0  0
    9.0757    0.7538    3.9344 H   0  0  0  1  0  0  0  0  0  0  0  0
    5.8239    2.4124    6.4807 H   0  0  0  1  0  0  0  0  0  0  0  0
    3.8375    2.9337    7.7724 H   0  0  0  1  0  0  0  0  0  0  0  0
    1.4776    0.8902    4.9645 H   0  0  0  1  0  0  0  0  0  0  0  0
    3.4607    0.3697    3.6749 H   0  0  0  1  0  0  0  0  0  0  0  0
    1.7617    4.0194    7.8973 H   0  0  0  1  0  0  0  0  0  0  0  0
    1.9780    2.6754    8.9924 H   0  0  0  1  0  0  0  0  0  0  0  0
    0.3682    3.2156    8.5789 H   0  0  0  1  0  0  0  0  0  0  0  0
    3.3810    0.3871    0.2362 H   0  0  0  1  0  0  0  0  0  0  0  0
    5.3751    0.4039   -1.7859 H   0  0  0  1  0  0  0  0  0  0  0  0
    3.1376    0.5696   -2.6414 H   0  0  0  1  0  0  0  0  0  0  0  0
    2.5914   -0.7891   -1.6876 H   0  0  0  1  0  0  0  0  0  0  0  0
    3.0049   -1.9586   -3.6544 H   0  0  0  1  0  0  0  0  0  0  0  0
    4.1777   -0.7899   -4.2137 H   0  0  0  1  0  0  0  0  0  0  0  0
    4.6803   -3.2262   -2.7708 H   0  0  0  1  0  0  0  0  0  0  0  0
    6.2113   -1.7183   -1.0853 H   0  0  0  1  0  0  0  0  0  0  0  0
    4.6182   -2.2890   -0.6489 H   0  0  0  1  0  0  0  0  0  0  0  0
    6.9295   -2.4942   -3.1264 H   0  0  0  1  0  0  0  0  0  0  0  0
    6.4073   -1.0680   -3.6302 H   0  0  0  1  0  0  0  0  0  0  0  0
  1  2  4  0  0  0  0
  1  6  4  0  0  0  0
  1 18  1  0  0  0  0
  2  3  4  0  0  0  0
  3  4  4  0  0  0  0
  3 25  1  0  0  0  0
  4  5  4  0  0  0  0
  4  7  4  0  0  0  0
  5  6  4  0  0  0  0
  5  9  4  0  0  0  0
  7  8  4  0  0  0  0
  7 26  1  0  0  0  0
  8  9  4  0  0  0  0
  9 10  1  0  0  0  0
 10 11  4  0  0  0  0
 10 15  4  0  0  0  0
 11 12  4  0  0  0  0
 11 27  1  0  0  0  0
 12 13  4  0  0  0  0
 12 28  1  0  0  0  0
 13 14  4  0  0  0  0
 13 16  1  0  0  0  0
 14 15  4  0  0  0  0
 14 29  1  0  0  0  0
 15 30  1  0  0  0  0
 16 17  1  0  0  0  0
 17 31  1  0  0  0  0
 17 32  1  0  0  0  0
 17 33  1  0  0  0  0
 18 19  1  0  0  0  0
 18 34  1  0  0  0  0
 19 20  1  0  0  0  0
 19 23  1  0  0  0  0
 19 35  1  0  0  0  0
 20 21  1  0  0  0  0
 20 36  1  0  0  0  0
 20 37  1  0  0  0  0
 21 22  1  0  0  0  0
 21 38  1  0  0  0  0
 21 39  1  0  0  0  0
 22 23  1  0  0  0  0
 22 24  1  0  0  0  0
 22 40  1  0  0  0  0
 23 41  1  0  0  0  0
 23 42  1  0  0  0  0
 24 43  1  0  0  0  0
 24 44  1  0  0  0  0
M  END
> <ConfClashScore>
0 

> <ConfOneFourInteractionScore>
-0.981848 

> <ConfScore>
0.0212463 

> <ConfScorePBest>
0.00214046 

> <ConfTolerance>
0.341266 

$$$$
c22.sdf
 OpenBabel04162418103D

 44 47  0  0  0  0  0  0  0  0999 V2000
    2.6007   -0.6202    0.2030 C   0  0  0  1  0  0  0  0  0  0  0  0
    2.2172   -1.5334   -0.6948 N   0  0  0  1  0  0  0  0  0  0  0  0
    1.0510   -2.1765   -0.4860 C   0  0  0  1  0  0  0  0  0  0  0  0
    0.2875   -1.8481    0.6721 C   0  0  0  1  0  0  0  0  0  0  0  0
    0.8353   -0.8714    1.4945 C   0  0  0  1  0  0  0  0  0  0  0  0
    2.0058   -0.2144    1.3146 N   0  0  0  1  0  0  0  0  0  0  0  0
   -0.9248   -2.1909    1.3042 C   0  0  0  1  0  0  0  0  0  0  0  0
   -1.1103   -1.5052    2.4085 N   0  0  0  1  0  0  0  0  0  0  0  0
   -0.0201   -0.6882    2.5256 N   0  0  0  1  0  0  0  0  0  0  0  0
    0.1869    0.2331    3.5917 C   0  0  0  1  0  0  0  0  0  0  0  0
    1.1439   -0.0836    4.5372 C   0  0  0  1  0  0  0  0  0  0  0  0
    1.3247    0.7350    5.6411 C   0  0  0  1  0  0  0  0  0  0  0  0
    0.5446    1.8649    5.7991 C   0  0  0  1  0  0  0  0  0  0  0  0
   -0.4153    2.1823    4.8506 C   0  0  0  1  0  0  0  0  0  0  0  0
   -0.5957    1.3662    3.7499 C   0  0  0  1  0  0  0  0  0  0  0  0
    0.8064    2.5791    6.9110 O   0  0  0  1  0  0  0  0  0  0  0  0
    0.0098    3.7758    7.0716 C   0  0  0  1  0  0  0  0  0  0  0  0
    3.7743   -0.0196   -0.0643 N   0  0  0  1  0  0  0  0  0  0  0  0
    4.6144   -0.3456   -1.2205 C   0  0  0  1  0  0  0  0  0  0  0  0
    3.8247   -0.1685   -2.5243 C   0  0  0  1  0  0  0  0  0  0  0  0
    3.8163   -1.5387   -3.2102 C   0  0  0  1  0  0  0  0  0  0  0  0
    5.0423   -2.2480   -2.6590 C   0  0  0  1  0  0  0  0  0  0  0  0
    5.0214   -1.8214   -1.1872 C   0  0  0  1  0  0  0  0  0  0  0  0
    6.2878   -1.7865   -3.3399 N   0  0  0  1  0  0  0  0  0  0  0  0
    0.7152   -2.8975   -1.1562 H   0  0  0  1  0  0  0  0  0  0  0  0
   -1.5917   -2.9010    0.9400 H   0  0  0  1  0  0  0  0  0  0  0  0
    1.7282   -0.9360    4.4205 H   0  0  0  1  0  0  0  0  0  0  0  0
    2.0476    0.4989    6.3506 H   0  0  0  1  0  0  0  0  0  0  0  0
   -0.9996    3.0347    4.9674 H   0  0  0  1  0  0  0  0  0  0  0  0
   -1.3186    1.6023    3.0404 H   0  0  0  1  0  0  0  0  0  0  0  0
   -0.9943    3.5054    7.3238 H   0  0  0  1  0  0  0  0  0  0  0  0
    0.0104    4.3299    6.1562 H   0  0  0  1  0  0  0  0  0  0  0  0
    0.4240    4.3774    7.8535 H   0  0  0  1  0  0  0  0  0  0  0  0
    4.0861    0.6771    0.5503 H   0  0  0  1  0  0  0  0  0  0  0  0
    5.4814    0.2816   -1.2202 H   0  0  0  1  0  0  0  0  0  0  0  0
    4.3012    0.5565   -3.1505 H   0  0  0  1  0  0  0  0  0  0  0  0
    2.8242    0.1456   -2.3117 H   0  0  0  1  0  0  0  0  0  0  0  0
    3.8880   -1.4302   -4.2723 H   0  0  0  1  0  0  0  0  0  0  0  0
    2.9254   -2.0785   -2.9656 H   0  0  0  1  0  0  0  0  0  0  0  0
    4.9540   -3.3099   -2.7573 H   0  0  0  1  0  0  0  0  0  0  0  0
    4.3077   -2.3979   -0.6367 H   0  0  0  1  0  0  0  0  0  0  0  0
    5.9897   -1.9365   -0.7466 H   0  0  0  1  0  0  0  0  0  0  0  0
    6.2885   -0.8079   -3.3923 H   0  0  0  1  0  0  0  0  0  0  0  0
    6.3236   -2.1618   -4.2445 H   0  0  0  1  0  0  0  0  0  0  0  0
  1  2  4  0  0  0  0
  1  6  4  0  0  0  0
  1 18  1  0  0  0  0
  2  3  4  0  0  0  0
  3  4  4  0  0  0  0
  3 25  1  0  0  0  0
  4  5  4  0  0  0  0
  4  7  4  0  0  0  0
  5  6  4  0  0  0  0
  5  9  4  0  0  0  0
  7  8  4  0  0  0  0
  7 26  1  0  0  0  0
  8  9  4  0  0  0  0
  9 10  1  0  0  0  0
 10 11  4  0  0  0  0
 10 15  4  0  0  0  0
 11 12  4  0  0  0  0
 11 27  1  0  0  0  0
 12 13  4  0  0  0  0
 12 28  1  0  0  0  0
 13 14  4  0  0  0  0
 13 16  1  0  0  0  0
 14 15  4  0  0  0  0
 14 29  1  0  0  0  0
 15 30  1  0  0  0  0
 16 17  1  0  0  0  0
 17 31  1  0  0  0  0
 17 32  1  0  0  0  0
 17 33  1  0  0  0  0
 18 19  1  0  0  0  0
 18 34  1  0  0  0  0
 19 20  1  0  0  0  0
 19 23  1  0  0  0  0
 19 35  1  0  0  0  0
 20 21  1  0  0  0  0
 20 36  1  0  0  0  0
 20 37  1  0  0  0  0
 21 22  1  0  0  0  0
 21 38  1  0  0  0  0
 21 39  1  0  0  0  0
 22 23  1  0  0  0  0
 22 24  1  0  0  0  0
 22 40  1  0  0  0  0
 23 41  1  0  0  0  0
 23 42  1  0  0  0  0
 24 43  1  0  0  0  0
 24 44  1  0  0  0  0
M  END
> <ConfClashScore>
0 

> <ConfOneFourInteractionScore>
-0.980204 

> <ConfScore>
0.0231122 

> <ConfScorePBest>
0.00212713 

> <ConfTolerance>
0.301617 

$$$$
c22.sdf
 OpenBabel04162418103D

 44 47  0  0  0  0  0  0  0  0999 V2000
    3.5668   -1.8677    0.8920 C   0  0  0  1  0  0  0  0  0  0  0  0
    2.5071   -2.4796    1.4304 N   0  0  0  1  0  0  0  0  0  0  0  0
    2.6913   -3.1858    2.5638 C   0  0  0  1  0  0  0  0  0  0  0  0
    3.9981   -3.2393    3.1307 C   0  0  0  1  0  0  0  0  0  0  0  0
    4.9804   -2.5399    2.4405 C   0  0  0  1  0  0  0  0  0  0  0  0
    4.8269   -1.8291    1.2980 N   0  0  0  1  0  0  0  0  0  0  0  0
    4.6779   -3.7870    4.2373 C   0  0  0  1  0  0  0  0  0  0  0  0
    5.9518   -3.4686    4.2340 N   0  0  0  1  0  0  0  0  0  0  0  0
    6.1383   -2.6963    3.1211 N   0  0  0  1  0  0  0  0  0  0  0  0
    7.3861   -2.1316    2.7308 C   0  0  0  1  0  0  0  0  0  0  0  0
    8.4014   -2.9496    2.2724 C   0  0  0  1  0  0  0  0  0  0  0  0
    9.6141   -2.3994    1.8875 C   0  0  0  1  0  0  0  0  0  0  0  0
    9.8098   -1.0335    1.9671 C   0  0  0  1  0  0  0  0  0  0  0  0
    8.7913   -0.2132    2.4269 C   0  0  0  1  0  0  0  0  0  0  0  0
    7.5821   -0.7617    2.8108 C   0  0  0  1  0  0  0  0  0  0  0  0
   11.0341   -0.6129    1.5695 O   0  0  0  1  0  0  0  0  0  0  0  0
   11.2654    0.8043    1.5458 C   0  0  0  1  0  0  0  0  0  0  0  0
    3.3151   -1.1882   -0.2324 N   0  0  0  1  0  0  0  0  0  0  0  0
    4.2946   -0.4689   -1.0532 C   0  0  0  1  0  0  0  0  0  0  0  0
    3.7114   -0.0916   -2.4211 C   0  0  0  1  0  0  0  0  0  0  0  0
    3.7525   -1.3833   -3.2283 C   0  0  0  1  0  0  0  0  0  0  0  0
    4.9421   -2.1735   -2.6708 C   0  0  0  1  0  0  0  0  0  0  0  0
    5.4576   -1.3771   -1.4616 C   0  0  0  1  0  0  0  0  0  0  0  0
    6.0179   -2.2957   -3.7097 N   0  0  0  1  0  0  0  0  0  0  0  0
    1.8962   -3.6813    3.0154 H   0  0  0  1  0  0  0  0  0  0  0  0
    4.2254   -4.3725    4.9681 H   0  0  0  1  0  0  0  0  0  0  0  0
    8.2557   -3.9778    2.2163 H   0  0  0  1  0  0  0  0  0  0  0  0
   10.3768   -3.0144    1.5388 H   0  0  0  1  0  0  0  0  0  0  0  0
    8.9371    0.8150    2.4831 H   0  0  0  1  0  0  0  0  0  0  0  0
    6.8194   -0.1467    3.1595 H   0  0  0  1  0  0  0  0  0  0  0  0
   11.9151    1.0737    2.3521 H   0  0  0  1  0  0  0  0  0  0  0  0
   10.3335    1.3193    1.6517 H   0  0  0  1  0  0  0  0  0  0  0  0
   11.7198    1.0758    0.6160 H   0  0  0  1  0  0  0  0  0  0  0  0
    2.3841   -1.1692   -0.5378 H   0  0  0  1  0  0  0  0  0  0  0  0
    4.6395    0.3943   -0.5232 H   0  0  0  1  0  0  0  0  0  0  0  0
    4.3062    0.6648   -2.8892 H   0  0  0  1  0  0  0  0  0  0  0  0
    2.7052    0.2575   -2.3189 H   0  0  0  1  0  0  0  0  0  0  0  0
    2.8441   -1.9339   -3.0998 H   0  0  0  1  0  0  0  0  0  0  0  0
    3.8977   -1.1711   -4.2669 H   0  0  0  1  0  0  0  0  0  0  0  0
    4.6282   -3.1497   -2.3651 H   0  0  0  1  0  0  0  0  0  0  0  0
    6.3118   -0.7930   -1.7339 H   0  0  0  1  0  0  0  0  0  0  0  0
    5.7170   -2.0374   -0.6606 H   0  0  0  1  0  0  0  0  0  0  0  0
    6.7139   -2.9068   -3.3897 H   0  0  0  1  0  0  0  0  0  0  0  0
    6.4103   -1.4137   -3.8786 H   0  0  0  1  0  0  0  0  0  0  0  0
  1  2  4  0  0  0  0
  1  6  4  0  0  0  0
  1 18  1  0  0  0  0
  2  3  4  0  0  0  0
  3  4  4  0  0  0  0
  3 25  1  0  0  0  0
  4  5  4  0  0  0  0
  4  7  4  0  0  0  0
  5  6  4  0  0  0  0
  5  9  4  0  0  0  0
  7  8  4  0  0  0  0
  7 26  1  0  0  0  0
  8  9  4  0  0  0  0
  9 10  1  0  0  0  0
 10 11  4  0  0  0  0
 10 15  4  0  0  0  0
 11 12  4  0  0  0  0
 11 27  1  0  0  0  0
 12 13  4  0  0  0  0
 12 28  1  0  0  0  0
 13 14  4  0  0  0  0
 13 16  1  0  0  0  0
 14 15  4  0  0  0  0
 14 29  1  0  0  0  0
 15 30  1  0  0  0  0
 16 17  1  0  0  0  0
 17 31  1  0  0  0  0
 17 32  1  0  0  0  0
 17 33  1  0  0  0  0
 18 19  1  0  0  0  0
 18 34  1  0  0  0  0
 19 20  1  0  0  0  0
 19 23  1  0  0  0  0
 19 35  1  0  0  0  0
 20 21  1  0  0  0  0
 20 36  1  0  0  0  0
 20 37  1  0  0  0  0
 21 22  1  0  0  0  0
 21 38  1  0  0  0  0
 21 39  1  0  0  0  0
 22 23  1  0  0  0  0
 22 24  1  0  0  0  0
 22 40  1  0  0  0  0
 23 41  1  0  0  0  0
 23 42  1  0  0  0  0
 24 43  1  0  0  0  0
 24 44  1  0  0  0  0
M  END
> <ConfClashScore>
0 

> <ConfOneFourInteractionScore>
-0.985399 

> <ConfScore>
0.0239961 

> <ConfScorePBest>
0.0021138 

> <ConfTolerance>
0.547047 

$$$$
c22.sdf
 OpenBabel04162418103D

 44 47  0  0  0  0  0  0  0  0999 V2000
    4.8699    0.9282    0.8893 C   0  0  0  1  0  0  0  0  0  0  0  0
    6.1119    1.2201    0.4901 N   0  0  0  1  0  0  0  0  0  0  0  0
    6.8916    1.9407    1.3207 C   0  0  0  1  0  0  0  0  0  0  0  0
    6.3572    2.3479    2.5779 C   0  0  0  1  0  0  0  0  0  0  0  0
    5.0496    1.9519    2.8304 C   0  0  0  1  0  0  0  0  0  0  0  0
    4.2410    1.2353    2.0137 N   0  0  0  1  0  0  0  0  0  0  0  0
    6.7341    3.0531    3.7387 C   0  0  0  1  0  0  0  0  0  0  0  0
    5.7615    3.0983    4.6196 N   0  0  0  1  0  0  0  0  0  0  0  0
    4.7187    2.4160    4.0566 N   0  0  0  1  0  0  0  0  0  0  0  0
    3.4554    2.2207    4.6775 C   0  0  0  1  0  0  0  0  0  0  0  0
    2.6767    1.1322    4.3324 C   0  0  0  1  0  0  0  0  0  0  0  0
    1.4469    0.9388    4.9419 C   0  0  0  1  0  0  0  0  0  0  0  0
    0.9969    1.8373    5.8909 C   0  0  0  1  0  0  0  0  0  0  0  0
    1.7780    2.9289    6.2370 C   0  0  0  1  0  0  0  0  0  0  0  0
    3.0042    3.1219    5.6293 C   0  0  0  1  0  0  0  0  0  0  0  0
   -0.1785    1.7561    6.5442 O   0  0  0  1  0  0  0  0  0  0  0  0
   -1.1143    0.7946    6.0034 C   0  0  0  1  0  0  0  0  0  0  0  0
    4.1457    0.2105    0.0118 N   0  0  0  1  0  0  0  0  0  0  0  0
    4.6620   -0.2731   -1.2696 C   0  0  0  1  0  0  0  0  0  0  0  0
    3.5651   -0.2426   -2.3514 C   0  0  0  1  0  0  0  0  0  0  0  0
    3.9450   -1.3287   -3.3732 C   0  0  0  1  0  0  0  0  0  0  0  0
    4.9729   -2.2607   -2.6716 C   0  0  0  1  0  0  0  0  0  0  0  0
    5.0489   -1.7883   -1.1806 C   0  0  0  1  0  0  0  0  0  0  0  0
    6.3061   -2.1368   -3.3194 N   0  0  0  1  0  0  0  0  0  0  0  0
    7.8632    2.1943    1.0499 H   0  0  0  1  0  0  0  0  0  0  0  0
    7.6693    3.4854    3.8802 H   0  0  0  1  0  0  0  0  0  0  0  0
    3.0135    0.4583    3.6154 H   0  0  0  1  0  0  0  0  0  0  0  0
    0.8627    0.1176    4.6851 H   0  0  0  1  0  0  0  0  0  0  0  0
    1.4412    3.6028    6.9540 H   0  0  0  1  0  0  0  0  0  0  0  0
    3.5884    3.9431    5.8860 H   0  0  0  1  0  0  0  0  0  0  0  0
   -0.6004   -0.1165    5.7786 H   0  0  0  1  0  0  0  0  0  0  0  0
   -1.5517    1.1871    5.1092 H   0  0  0  1  0  0  0  0  0  0  0  0
   -1.8830    0.6022    6.7224 H   0  0  0  1  0  0  0  0  0  0  0  0
    3.2175   -0.0011    0.2443 H   0  0  0  1  0  0  0  0  0  0  0  0
    5.5035    0.3195   -1.5622 H   0  0  0  1  0  0  0  0  0  0  0  0
    3.5353    0.7172   -2.8233 H   0  0  0  1  0  0  0  0  0  0  0  0
    2.6104   -0.4576   -1.9185 H   0  0  0  1  0  0  0  0  0  0  0  0
    3.0774   -1.8857   -3.6593 H   0  0  0  1  0  0  0  0  0  0  0  0
    4.3844   -0.8817   -4.2404 H   0  0  0  1  0  0  0  0  0  0  0  0
    4.6447   -3.2779   -2.7215 H   0  0  0  1  0  0  0  0  0  0  0  0
    4.3540   -2.3271   -0.5709 H   0  0  0  1  0  0  0  0  0  0  0  0
    6.0371   -1.9101   -0.7888 H   0  0  0  1  0  0  0  0  0  0  0  0
    6.6521   -1.2298   -3.1850 H   0  0  0  1  0  0  0  0  0  0  0  0
    6.2204   -2.3145   -4.2794 H   0  0  0  1  0  0  0  0  0  0  0  0
  1  2  4  0  0  0  0
  1  6  4  0  0  0  0
  1 18  1  0  0  0  0
  2  3  4  0  0  0  0
  3  4  4  0  0  0  0
  3 25  1  0  0  0  0
  4  5  4  0  0  0  0
  4  7  4  0  0  0  0
  5  6  4  0  0  0  0
  5  9  4  0  0  0  0
  7  8  4  0  0  0  0
  7 26  1  0  0  0  0
  8  9  4  0  0  0  0
  9 10  1  0  0  0  0
 10 11  4  0  0  0  0
 10 15  4  0  0  0  0
 11 12  4  0  0  0  0
 11 27  1  0  0  0  0
 12 13  4  0  0  0  0
 12 28  1  0  0  0  0
 13 14  4  0  0  0  0
 13 16  1  0  0  0  0
 14 15  4  0  0  0  0
 14 29  1  0  0  0  0
 15 30  1  0  0  0  0
 16 17  1  0  0  0  0
 17 31  1  0  0  0  0
 17 32  1  0  0  0  0
 17 33  1  0  0  0  0
 18 19  1  0  0  0  0
 18 34  1  0  0  0  0
 19 20  1  0  0  0  0
 19 23  1  0  0  0  0
 19 35  1  0  0  0  0
 20 21  1  0  0  0  0
 20 36  1  0  0  0  0
 20 37  1  0  0  0  0
 21 22  1  0  0  0  0
 21 38  1  0  0  0  0
 21 39  1  0  0  0  0
 22 23  1  0  0  0  0
 22 24  1  0  0  0  0
 22 40  1  0  0  0  0
 23 41  1  0  0  0  0
 23 42  1  0  0  0  0
 24 43  1  0  0  0  0
 24 44  1  0  0  0  0
M  END
> <ConfClashScore>
0 

> <ConfOneFourInteractionScore>
-0.984337 

> <ConfScore>
0.0263026 

> <ConfScorePBest>
0.00210048 

> <ConfTolerance>
0.351081 

$$$$
c22.sdf
 OpenBabel04162418103D

 44 47  0  0  0  0  0  0  0  0999 V2000
    3.8666   -0.6766    1.2434 C   0  0  0  1  0  0  0  0  0  0  0  0
    5.0567   -1.2574    1.4257 N   0  0  0  1  0  0  0  0  0  0  0  0
    5.3528   -1.7233    2.6556 C   0  0  0  1  0  0  0  0  0  0  0  0
    4.3851   -1.5788    3.6921 C   0  0  0  1  0  0  0  0  0  0  0  0
    3.1998   -0.9546    3.3234 C   0  0  0  1  0  0  0  0  0  0  0  0
    2.8776   -0.4709    2.1001 N   0  0  0  1  0  0  0  0  0  0  0  0
    4.2028   -1.8868    5.0555 C   0  0  0  1  0  0  0  0  0  0  0  0
    3.0300   -1.4902    5.4929 N   0  0  0  1  0  0  0  0  0  0  0  0
    2.4094   -0.9132    4.4197 N   0  0  0  1  0  0  0  0  0  0  0  0
    1.1236   -0.3528    4.4519 C   0  0  0  1  0  0  0  0  0  0  0  0
    0.5742    0.2871    5.5467 C   0  0  0  1  0  0  0  0  0  0  0  0
   -0.7066    0.8120    5.4719 C   0  0  0  1  0  0  0  0  0  0  0  0
   -1.4362    0.6907    4.3043 C   0  0  0  1  0  0  0  0  0  0  0  0
   -0.8850    0.0488    3.2063 C   0  0  0  1  0  0  0  0  0  0  0  0
    0.3921   -0.4746    3.2807 C   0  0  0  1  0  0  0  0  0  0  0  0
   -2.6683    1.2336    4.3512 O   0  0  0  1  0  0  0  0  0  0  0  0
   -3.3588    1.2952    3.0816 C   0  0  0  1  0  0  0  0  0  0  0  0
    3.6376   -0.2315   -0.0052 N   0  0  0  1  0  0  0  0  0  0  0  0
    4.5339   -0.3669   -1.1544 C   0  0  0  1  0  0  0  0  0  0  0  0
    3.7713   -0.0993   -2.4572 C   0  0  0  1  0  0  0  0  0  0  0  0
    3.7546   -1.4314   -3.1965 C   0  0  0  1  0  0  0  0  0  0  0  0
    5.0378   -2.1421   -2.7468 C   0  0  0  1  0  0  0  0  0  0  0  0
    5.0596   -1.8077   -1.2529 C   0  0  0  1  0  0  0  0  0  0  0  0
    6.2402   -1.5951   -3.4473 N   0  0  0  1  0  0  0  0  0  0  0  0
    6.2685   -2.1788    2.8442 H   0  0  0  1  0  0  0  0  0  0  0  0
    4.9115   -2.3698    5.6438 H   0  0  0  1  0  0  0  0  0  0  0  0
    1.1216    0.3749    6.4266 H   0  0  0  1  0  0  0  0  0  0  0  0
   -1.1186    1.2971    6.2944 H   0  0  0  1  0  0  0  0  0  0  0  0
   -1.4324   -0.0390    2.3264 H   0  0  0  1  0  0  0  0  0  0  0  0
    0.8041   -0.9597    2.4582 H   0  0  0  1  0  0  0  0  0  0  0  0
   -4.2989    1.7898    3.2099 H   0  0  0  1  0  0  0  0  0  0  0  0
   -3.5249    0.3028    2.7177 H   0  0  0  1  0  0  0  0  0  0  0  0
   -2.7633    1.8386    2.3780 H   0  0  0  1  0  0  0  0  0  0  0  0
    2.7865    0.2288   -0.1607 H   0  0  0  1  0  0  0  0  0  0  0  0
    5.3490    0.3191   -1.0544 H   0  0  0  1  0  0  0  0  0  0  0  0
    4.2735    0.6453   -3.0388 H   0  0  0  1  0  0  0  0  0  0  0  0
    2.7734    0.2247   -2.2471 H   0  0  0  1  0  0  0  0  0  0  0  0
    2.8918   -2.0029   -2.9248 H   0  0  0  1  0  0  0  0  0  0  0  0
    3.7609   -1.2755   -4.2551 H   0  0  0  1  0  0  0  0  0  0  0  0
    4.9784   -3.1978   -2.9107 H   0  0  0  1  0  0  0  0  0  0  0  0
    4.4250   -2.4763   -0.7096 H   0  0  0  1  0  0  0  0  0  0  0  0
    6.0564   -1.8702   -0.8691 H   0  0  0  1  0  0  0  0  0  0  0  0
    6.0962   -1.6253   -4.4162 H   0  0  0  1  0  0  0  0  0  0  0  0
    7.0255   -2.1342   -3.2170 H   0  0  0  1  0  0  0  0  0  0  0  0
  1  2  4  0  0  0  0
  1  6  4  0  0  0  0
  1 18  1  0  0  0  0
  2  3  4  0  0  0  0
  3  4  4  0  0  0  0
  3 25  1  0  0  0  0
  4  5  4  0  0  0  0
  4  7  4  0  0  0  0
  5  6  4  0  0  0  0
  5  9  4  0  0  0  0
  7  8  4  0  0  0  0
  7 26  1  0  0  0  0
  8  9  4  0  0  0  0
  9 10  1  0  0  0  0
 10 11  4  0  0  0  0
 10 15  4  0  0  0  0
 11 12  4  0  0  0  0
 11 27  1  0  0  0  0
 12 13  4  0  0  0  0
 12 28  1  0  0  0  0
 13 14  4  0  0  0  0
 13 16  1  0  0  0  0
 14 15  4  0  0  0  0
 14 29  1  0  0  0  0
 15 30  1  0  0  0  0
 16 17  1  0  0  0  0
 17 31  1  0  0  0  0
 17 32  1  0  0  0  0
 17 33  1  0  0  0  0
 18 19  1  0  0  0  0
 18 34  1  0  0  0  0
 19 20  1  0  0  0  0
 19 23  1  0  0  0  0
 19 35  1  0  0  0  0
 20 21  1  0  0  0  0
 20 36  1  0  0  0  0
 20 37  1  0  0  0  0
 21 22  1  0  0  0  0
 21 38  1  0  0  0  0
 21 39  1  0  0  0  0
 22 23  1  0  0  0  0
 22 24  1  0  0  0  0
 22 40  1  0  0  0  0
 23 41  1  0  0  0  0
 23 42  1  0  0  0  0
 24 43  1  0  0  0  0
 24 44  1  0  0  0  0
M  END
> <ConfClashScore>
0 

> <ConfOneFourInteractionScore>
-0.985399 

> <ConfScore>
0.0264668 

> <ConfScorePBest>
0.00208715 

> <ConfTolerance>
0.393511 

$$$$
c22.sdf
 OpenBabel04162418103D

 44 47  0  0  0  0  0  0  0  0999 V2000
    2.3589   -0.5089    0.4854 C   0  0  0  1  0  0  0  0  0  0  0  0
    1.5740   -1.3074    1.2157 N   0  0  0  1  0  0  0  0  0  0  0  0
    0.5990   -0.7371    1.9514 C   0  0  0  1  0  0  0  0  0  0  0  0
    0.4517    0.6801    1.9094 C   0  0  0  1  0  0  0  0  0  0  0  0
    1.3522    1.3528    1.0925 C   0  0  0  1  0  0  0  0  0  0  0  0
    2.3446    0.8084    0.3489 N   0  0  0  1  0  0  0  0  0  0  0  0
   -0.3613    1.7016    2.4407 C   0  0  0  1  0  0  0  0  0  0  0  0
   -0.0014    2.8874    2.0064 N   0  0  0  1  0  0  0  0  0  0  0  0
    1.0596    2.6706    1.1715 N   0  0  0  1  0  0  0  0  0  0  0  0
    1.7557    3.6857    0.4847 C   0  0  0  1  0  0  0  0  0  0  0  0
    3.0736    3.4921    0.1163 C   0  0  0  1  0  0  0  0  0  0  0  0
    3.7565    4.4883   -0.5639 C   0  0  0  1  0  0  0  0  0  0  0  0
    3.1212    5.6773   -0.8691 C   0  0  0  1  0  0  0  0  0  0  0  0
    1.7993    5.8713   -0.4995 C   0  0  0  1  0  0  0  0  0  0  0  0
    1.1183    4.8780    0.1787 C   0  0  0  1  0  0  0  0  0  0  0  0
    3.8216    6.6991   -1.4490 O   0  0  0  1  0  0  0  0  0  0  0  0
    3.1121    7.9381   -1.6816 C   0  0  0  1  0  0  0  0  0  0  0  0
    3.3124   -1.1423   -0.2211 N   0  0  0  1  0  0  0  0  0  0  0  0
    4.3048   -0.4541   -1.0585 C   0  0  0  1  0  0  0  0  0  0  0  0
    3.7350   -0.1186   -2.4429 C   0  0  0  1  0  0  0  0  0  0  0  0
    3.7753   -1.4362   -3.2070 C   0  0  0  1  0  0  0  0  0  0  0  0
    4.9559   -2.2141   -2.6140 C   0  0  0  1  0  0  0  0  0  0  0  0
    5.4660   -1.3814   -1.4273 C   0  0  0  1  0  0  0  0  0  0  0  0
    6.0453   -2.3769   -3.6450 N   0  0  0  1  0  0  0  0  0  0  0  0
   -0.0328   -1.3191    2.5377 H   0  0  0  1  0  0  0  0  0  0  0  0
   -1.1508    1.5362    3.0972 H   0  0  0  1  0  0  0  0  0  0  0  0
    3.5530    2.5991    0.3494 H   0  0  0  1  0  0  0  0  0  0  0  0
    4.7470    4.3411   -0.8447 H   0  0  0  1  0  0  0  0  0  0  0  0
    1.3200    6.7643   -0.7326 H   0  0  0  1  0  0  0  0  0  0  0  0
    0.1278    5.0252    0.4595 H   0  0  0  1  0  0  0  0  0  0  0  0
    2.2675    7.7532   -2.3119 H   0  0  0  1  0  0  0  0  0  0  0  0
    3.7656    8.6390   -2.1577 H   0  0  0  1  0  0  0  0  0  0  0  0
    2.7786    8.3386   -0.7471 H   0  0  0  1  0  0  0  0  0  0  0  0
    3.3474   -2.1206   -0.1747 H   0  0  0  1  0  0  0  0  0  0  0  0
    4.6503    0.4241   -0.5542 H   0  0  0  1  0  0  0  0  0  0  0  0
    2.7299    0.2391   -2.3606 H   0  0  0  1  0  0  0  0  0  0  0  0
    4.3378    0.6188   -2.9304 H   0  0  0  1  0  0  0  0  0  0  0  0
    2.8628   -1.9775   -3.0683 H   0  0  0  1  0  0  0  0  0  0  0  0
    3.9303   -1.2590   -4.2508 H   0  0  0  1  0  0  0  0  0  0  0  0
    4.6339   -3.1781   -2.2793 H   0  0  0  1  0  0  0  0  0  0  0  0
    6.3256   -0.8111   -1.7114 H   0  0  0  1  0  0  0  0  0  0  0  0
    5.7151   -2.0165   -0.6030 H   0  0  0  1  0  0  0  0  0  0  0  0
    6.9206   -2.3123   -3.2091 H   0  0  0  1  0  0  0  0  0  0  0  0
    5.9640   -1.6712   -4.3201 H   0  0  0  1  0  0  0  0  0  0  0  0
  1  2  4  0  0  0  0
  1  6  4  0  0  0  0
  1 18  1  0  0  0  0
  2  3  4  0  0  0  0
  3  4  4  0  0  0  0
  3 25  1  0  0  0  0
  4  5  4  0  0  0  0
  4  7  4  0  0  0  0
  5  6  4  0  0  0  0
  5  9  4  0  0  0  0
  7  8  4  0  0  0  0
  7 26  1  0  0  0  0
  8  9  4  0  0  0  0
  9 10  1  0  0  0  0
 10 11  4  0  0  0  0
 10 15  4  0  0  0  0
 11 12  4  0  0  0  0
 11 27  1  0  0  0  0
 12 13  4  0  0  0  0
 12 28  1  0  0  0  0
 13 14  4  0  0  0  0
 13 16  1  0  0  0  0
 14 15  4  0  0  0  0
 14 29  1  0  0  0  0
 15 30  1  0  0  0  0
 16 17  1  0  0  0  0
 17 31  1  0  0  0  0
 17 32  1  0  0  0  0
 17 33  1  0  0  0  0
 18 19  1  0  0  0  0
 18 34  1  0  0  0  0
 19 20  1  0  0  0  0
 19 23  1  0  0  0  0
 19 35  1  0  0  0  0
 20 21  1  0  0  0  0
 20 36  1  0  0  0  0
 20 37  1  0  0  0  0
 21 22  1  0  0  0  0
 21 38  1  0  0  0  0
 21 39  1  0  0  0  0
 22 23  1  0  0  0  0
 22 24  1  0  0  0  0
 22 40  1  0  0  0  0
 23 41  1  0  0  0  0
 23 42  1  0  0  0  0
 24 43  1  0  0  0  0
 24 44  1  0  0  0  0
M  END
> <ConfClashScore>
0 

> <ConfOneFourInteractionScore>
-0.984337 

> <ConfScore>
0.0272515 

> <ConfScorePBest>
0.00207382 

> <ConfTolerance>
0.655577 

$$$$
c22.sdf
 OpenBabel04162418103D

 44 47  0  0  0  0  0  0  0  0999 V2000
    3.2526   -1.7721    0.6046 C   0  0  0  1  0  0  0  0  0  0  0  0
    2.7089   -1.7879    1.8257 N   0  0  0  1  0  0  0  0  0  0  0  0
    2.1231   -2.9277    2.2438 C   0  0  0  1  0  0  0  0  0  0  0  0
    2.1179   -4.0537    1.3697 C   0  0  0  1  0  0  0  0  0  0  0  0
    2.7334   -3.8606    0.1391 C   0  0  0  1  0  0  0  0  0  0  0  0
    3.3227   -2.7271   -0.3105 N   0  0  0  1  0  0  0  0  0  0  0  0
    1.6827   -5.3938    1.3309 C   0  0  0  1  0  0  0  0  0  0  0  0
    1.9883   -5.9735    0.1930 N   0  0  0  1  0  0  0  0  0  0  0  0
    2.6391   -5.0235   -0.5444 N   0  0  0  1  0  0  0  0  0  0  0  0
    3.1462   -5.2298   -1.8486 C   0  0  0  1  0  0  0  0  0  0  0  0
    2.6109   -4.5340   -2.9161 C   0  0  0  1  0  0  0  0  0  0  0  0
    3.1114   -4.7323   -4.1935 C   0  0  0  1  0  0  0  0  0  0  0  0
    4.1421   -5.6297   -4.4004 C   0  0  0  1  0  0  0  0  0  0  0  0
    4.6789   -6.3274   -3.3296 C   0  0  0  1  0  0  0  0  0  0  0  0
    4.1799   -6.1298   -2.0559 C   0  0  0  1  0  0  0  0  0  0  0  0
    4.6275   -5.8272   -5.6491 O   0  0  0  1  0  0  0  0  0  0  0  0
    3.9086   -5.2232   -6.7358 C   0  0  0  1  0  0  0  0  0  0  0  0
    3.8166   -0.6035    0.2496 N   0  0  0  1  0  0  0  0  0  0  0  0
    4.3871   -0.3406   -1.0748 C   0  0  0  1  0  0  0  0  0  0  0  0
    3.3151   -0.4620   -2.1507 C   0  0  0  1  0  0  0  0  0  0  0  0
    4.0645   -0.9628   -3.3921 C   0  0  0  1  0  0  0  0  0  0  0  0
    5.0098   -1.9978   -2.7761 C   0  0  0  1  0  0  0  0  0  0  0  0
    5.4377   -1.4004   -1.4263 C   0  0  0  1  0  0  0  0  0  0  0  0
    6.1985   -2.2097   -3.6552 N   0  0  0  1  0  0  0  0  0  0  0  0
    1.6838   -2.9844    3.1848 H   0  0  0  1  0  0  0  0  0  0  0  0
    1.1803   -5.8663    2.1093 H   0  0  0  1  0  0  0  0  0  0  0  0
    1.8327   -3.8618   -2.7611 H   0  0  0  1  0  0  0  0  0  0  0  0
    2.7114   -4.2058   -4.9962 H   0  0  0  1  0  0  0  0  0  0  0  0
    5.4571   -6.9997   -3.4846 H   0  0  0  1  0  0  0  0  0  0  0  0
    4.5799   -6.6563   -1.2532 H   0  0  0  1  0  0  0  0  0  0  0  0
    4.4718   -5.3291   -7.6393 H   0  0  0  1  0  0  0  0  0  0  0  0
    3.7578   -4.1842   -6.5295 H   0  0  0  1  0  0  0  0  0  0  0  0
    2.9605   -5.7063   -6.8481 H   0  0  0  1  0  0  0  0  0  0  0  0
    3.8479    0.1144    0.9159 H   0  0  0  1  0  0  0  0  0  0  0  0
    4.8223    0.6369   -1.0886 H   0  0  0  1  0  0  0  0  0  0  0  0
    2.5625   -1.1631   -1.8559 H   0  0  0  1  0  0  0  0  0  0  0  0
    2.8625    0.4887   -2.3412 H   0  0  0  1  0  0  0  0  0  0  0  0
    4.6063   -0.1721   -3.8677 H   0  0  0  1  0  0  0  0  0  0  0  0
    3.3972   -1.4129   -4.0970 H   0  0  0  1  0  0  0  0  0  0  0  0
    4.5028   -2.9288   -2.6303 H   0  0  0  1  0  0  0  0  0  0  0  0
    6.4048   -0.9502   -1.5101 H   0  0  0  1  0  0  0  0  0  0  0  0
    5.4620   -2.1618   -0.6749 H   0  0  0  1  0  0  0  0  0  0  0  0
    5.9317   -2.7187   -4.4490 H   0  0  0  1  0  0  0  0  0  0  0  0
    6.8838   -2.7082   -3.1629 H   0  0  0  1  0  0  0  0  0  0  0  0
  1  2  4  0  0  0  0
  1  6  4  0  0  0  0
  1 18  1  0  0  0  0
  2  3  4  0  0  0  0
  3  4  4  0  0  0  0
  3 25  1  0  0  0  0
  4  5  4  0  0  0  0
  4  7  4  0  0  0  0
  5  6  4  0  0  0  0
  5  9  4  0  0  0  0
  7  8  4  0  0  0  0
  7 26  1  0  0  0  0
  8  9  4  0  0  0  0
  9 10  1  0  0  0  0
 10 11  4  0  0  0  0
 10 15  4  0  0  0  0
 11 12  4  0  0  0  0
 11 27  1  0  0  0  0
 12 13  4  0  0  0  0
 12 28  1  0  0  0  0
 13 14  4  0  0  0  0
 13 16  1  0  0  0  0
 14 15  4  0  0  0  0
 14 29  1  0  0  0  0
 15 30  1  0  0  0  0
 16 17  1  0  0  0  0
 17 31  1  0  0  0  0
 17 32  1  0  0  0  0
 17 33  1  0  0  0  0
 18 19  1  0  0  0  0
 18 34  1  0  0  0  0
 19 20  1  0  0  0  0
 19 23  1  0  0  0  0
 19 35  1  0  0  0  0
 20 21  1  0  0  0  0
 20 36  1  0  0  0  0
 20 37  1  0  0  0  0
 21 22  1  0  0  0  0
 21 38  1  0  0  0  0
 21 39  1  0  0  0  0
 22 23  1  0  0  0  0
 22 24  1  0  0  0  0
 22 40  1  0  0  0  0
 23 41  1  0  0  0  0
 23 42  1  0  0  0  0
 24 43  1  0  0  0  0
 24 44  1  0  0  0  0
M  END
> <ConfClashScore>
0 

> <ConfOneFourInteractionScore>
-0.980204 

> <ConfScore>
0.0293765 

> <ConfScorePBest>
0.00206049 

> <ConfTolerance>
0.369118 

$$$$
c22.sdf
 OpenBabel04162418103D

 44 47  0  0  0  0  0  0  0  0999 V2000
    2.8671    0.9046    0.1072 C   0  0  0  1  0  0  0  0  0  0  0  0
    2.1394    0.8968    1.2286 N   0  0  0  1  0  0  0  0  0  0  0  0
    1.2852    1.9187    1.4369 C   0  0  0  1  0  0  0  0  0  0  0  0
    1.1975    2.9471    0.4537 C   0  0  0  1  0  0  0  0  0  0  0  0
    2.0238    2.7914   -0.6525 C   0  0  0  1  0  0  0  0  0  0  0  0
    2.8955    1.7814   -0.8852 N   0  0  0  1  0  0  0  0  0  0  0  0
    0.4998    4.1446    0.1970 C   0  0  0  1  0  0  0  0  0  0  0  0
    0.8582    4.6830   -0.9457 N   0  0  0  1  0  0  0  0  0  0  0  0
    1.8018    3.8444   -1.4712 N   0  0  0  1  0  0  0  0  0  0  0  0
    2.4584    4.0510   -2.7069 C   0  0  0  1  0  0  0  0  0  0  0  0
    3.0809    5.2575   -2.9654 C   0  0  0  1  0  0  0  0  0  0  0  0
    3.7289    5.4580   -4.1742 C   0  0  0  1  0  0  0  0  0  0  0  0
    3.7480    4.4533   -5.1233 C   0  0  0  1  0  0  0  0  0  0  0  0
    3.1235    3.2432   -4.8639 C   0  0  0  1  0  0  0  0  0  0  0  0
    2.4774    3.0432   -3.6586 C   0  0  0  1  0  0  0  0  0  0  0  0
    4.4054    4.7658   -6.2652 O   0  0  0  1  0  0  0  0  0  0  0  0
    4.4660    3.7527   -7.2883 C   0  0  0  1  0  0  0  0  0  0  0  0
    3.7006   -0.1414   -0.0358 N   0  0  0  1  0  0  0  0  0  0  0  0
    4.5813   -0.3318   -1.1904 C   0  0  0  1  0  0  0  0  0  0  0  0
    3.7723   -0.2186   -2.5293 C   0  0  0  1  0  0  0  0  0  0  0  0
    3.7662   -1.6155   -3.1774 C   0  0  0  1  0  0  0  0  0  0  0  0
    5.1024   -2.2441   -2.6572 C   0  0  0  1  0  0  0  0  0  0  0  0
    5.1500   -1.7470   -1.2072 C   0  0  0  1  0  0  0  0  0  0  0  0
    6.2639   -1.7525   -3.4315 N   0  0  0  1  0  0  0  0  0  0  0  0
    0.7021    1.9559    2.2972 H   0  0  0  1  0  0  0  0  0  0  0  0
   -0.2127    4.5524    0.8355 H   0  0  0  1  0  0  0  0  0  0  0  0
    3.0632    6.0150   -2.2530 H   0  0  0  1  0  0  0  0  0  0  0  0
    4.2008    6.3645   -4.3672 H   0  0  0  1  0  0  0  0  0  0  0  0
    3.1413    2.4857   -5.5763 H   0  0  0  1  0  0  0  0  0  0  0  0
    2.0055    2.1367   -3.4656 H   0  0  0  1  0  0  0  0  0  0  0  0
    3.7505    2.9863   -7.0748 H   0  0  0  1  0  0  0  0  0  0  0  0
    5.4476    3.3276   -7.3113 H   0  0  0  1  0  0  0  0  0  0  0  0
    4.2447    4.1921   -8.2385 H   0  0  0  1  0  0  0  0  0  0  0  0
    3.7197   -0.8161    0.6747 H   0  0  0  1  0  0  0  0  0  0  0  0
    5.3688    0.3920   -1.1621 H   0  0  0  1  0  0  0  0  0  0  0  0
    4.2420    0.4865   -3.1828 H   0  0  0  1  0  0  0  0  0  0  0  0
    2.7698    0.0954   -2.3263 H   0  0  0  1  0  0  0  0  0  0  0  0
    3.7635   -1.5450   -4.2451 H   0  0  0  1  0  0  0  0  0  0  0  0
    2.9206   -2.1863   -2.8550 H   0  0  0  1  0  0  0  0  0  0  0  0
    5.0709   -3.3128   -2.7001 H   0  0  0  1  0  0  0  0  0  0  0  0
    6.1610   -1.7388   -0.8567 H   0  0  0  1  0  0  0  0  0  0  0  0
    4.5606   -2.3852   -0.5825 H   0  0  0  1  0  0  0  0  0  0  0  0
    6.2862   -0.7733   -3.4016 H   0  0  0  1  0  0  0  0  0  0  0  0
    6.1849   -2.0490   -4.3622 H   0  0  0  1  0  0  0  0  0  0  0  0
  1  2  4  0  0  0  0
  1  6  4  0  0  0  0
  1 18  1  0  0  0  0
  2  3  4  0  0  0  0
  3  4  4  0  0  0  0
  3 25  1  0  0  0  0
  4  5  4  0  0  0  0
  4  7  4  0  0  0  0
  5  6  4  0  0  0  0
  5  9  4  0  0  0  0
  7  8  4  0  0  0  0
  7 26  1  0  0  0  0
  8  9  4  0  0  0  0
  9 10  1  0  0  0  0
 10 11  4  0  0  0  0
 10 15  4  0  0  0  0
 11 12  4  0  0  0  0
 11 27  1  0  0  0  0
 12 13  4  0  0  0  0
 12 28  1  0  0  0  0
 13 14  4  0  0  0  0
 13 16  1  0  0  0  0
 14 15  4  0  0  0  0
 14 29  1  0  0  0  0
 15 30  1  0  0  0  0
 16 17  1  0  0  0  0
 17 31  1  0  0  0  0
 17 32  1  0  0  0  0
 17 33  1  0  0  0  0
 18 19  1  0  0  0  0
 18 34  1  0  0  0  0
 19 20  1  0  0  0  0
 19 23  1  0  0  0  0
 19 35  1  0  0  0  0
 20 21  1  0  0  0  0
 20 36  1  0  0  0  0
 20 37  1  0  0  0  0
 21 22  1  0  0  0  0
 21 38  1  0  0  0  0
 21 39  1  0  0  0  0
 22 23  1  0  0  0  0
 22 24  1  0  0  0  0
 22 40  1  0  0  0  0
 23 41  1  0  0  0  0
 23 42  1  0  0  0  0
 24 43  1  0  0  0  0
 24 44  1  0  0  0  0
M  END
> <ConfClashScore>
0.000152506 

> <ConfOneFourInteractionScore>
-0.985399 

> <ConfScore>
0.0309361 

> <ConfScorePBest>
0.00204716 

> <ConfTolerance>
0.351447 

$$$$
c22.sdf
 OpenBabel04162418103D

 44 47  0  0  0  0  0  0  0  0999 V2000
    5.0363    1.3143    0.5280 C   0  0  0  1  0  0  0  0  0  0  0  0
    4.6462    1.6016    1.7740 N   0  0  0  1  0  0  0  0  0  0  0  0
    5.2813    2.5981    2.4229 C   0  0  0  1  0  0  0  0  0  0  0  0
    6.3268    3.2946    1.7495 C   0  0  0  1  0  0  0  0  0  0  0  0
    6.5964    2.8663    0.4555 C   0  0  0  1  0  0  0  0  0  0  0  0
    5.9814    1.8655   -0.2185 N   0  0  0  1  0  0  0  0  0  0  0  0
    7.2345    4.3525    1.9586 C   0  0  0  1  0  0  0  0  0  0  0  0
    7.9952    4.5578    0.9082 N   0  0  0  1  0  0  0  0  0  0  0  0
    7.5993    3.6373   -0.0223 N   0  0  0  1  0  0  0  0  0  0  0  0
    8.1677    3.5077   -1.3216 C   0  0  0  1  0  0  0  0  0  0  0  0
    7.8548    4.4247   -2.3072 C   0  0  0  1  0  0  0  0  0  0  0  0
    8.4122    4.3016   -3.5703 C   0  0  0  1  0  0  0  0  0  0  0  0
    9.2768    3.2590   -3.8458 C   0  0  0  1  0  0  0  0  0  0  0  0
    9.5905    2.3394   -2.8571 C   0  0  0  1  0  0  0  0  0  0  0  0
    9.0347    2.4620   -1.5976 C   0  0  0  1  0  0  0  0  0  0  0  0
    9.7646    3.0707   -5.1627 O   0  0  0  1  0  0  0  0  0  0  0  0
    9.1557    3.8481   -6.2054 C   0  0  0  1  0  0  0  0  0  0  0  0
    4.3575    0.2988   -0.0648 N   0  0  0  1  0  0  0  0  0  0  0  0
    4.6668   -0.2209   -1.4009 C   0  0  0  1  0  0  0  0  0  0  0  0
    3.3992   -0.4357   -2.2167 C   0  0  0  1  0  0  0  0  0  0  0  0
    3.7367   -1.4793   -3.2727 C   0  0  0  1  0  0  0  0  0  0  0  0
    4.9954   -2.1924   -2.7740 C   0  0  0  1  0  0  0  0  0  0  0  0
    5.2623   -1.6763   -1.3235 C   0  0  0  1  0  0  0  0  0  0  0  0
    6.1562   -1.8656   -3.6581 N   0  0  0  1  0  0  0  0  0  0  0  0
    5.0138    2.8534    3.3950 H   0  0  0  1  0  0  0  0  0  0  0  0
    7.2946    4.9037    2.8385 H   0  0  0  1  0  0  0  0  0  0  0  0
    7.2012    5.2070   -2.1011 H   0  0  0  1  0  0  0  0  0  0  0  0
    8.1799    4.9939   -4.3108 H   0  0  0  1  0  0  0  0  0  0  0  0
   10.2441    1.5571   -3.0632 H   0  0  0  1  0  0  0  0  0  0  0  0
    9.2670    1.7697   -0.8571 H   0  0  0  1  0  0  0  0  0  0  0  0
    8.1286    4.0266   -5.9645 H   0  0  0  1  0  0  0  0  0  0  0  0
    9.2172    3.3138   -7.1305 H   0  0  0  1  0  0  0  0  0  0  0  0
    9.6677    4.7830   -6.2982 H   0  0  0  1  0  0  0  0  0  0  0  0
    3.6171   -0.1111    0.4293 H   0  0  0  1  0  0  0  0  0  0  0  0
    5.3390    0.4474   -1.8973 H   0  0  0  1  0  0  0  0  0  0  0  0
    2.6098   -0.7892   -1.5868 H   0  0  0  1  0  0  0  0  0  0  0  0
    3.1008    0.4796   -2.6837 H   0  0  0  1  0  0  0  0  0  0  0  0
    3.9253   -1.0076   -4.2144 H   0  0  0  1  0  0  0  0  0  0  0  0
    2.9315   -2.1762   -3.3772 H   0  0  0  1  0  0  0  0  0  0  0  0
    4.8398   -3.2510   -2.7654 H   0  0  0  1  0  0  0  0  0  0  0  0
    6.3085   -1.6602   -1.0997 H   0  0  0  1  0  0  0  0  0  0  0  0
    4.7505   -2.2709   -0.5958 H   0  0  0  1  0  0  0  0  0  0  0  0
    6.9455   -2.3635   -3.3590 H   0  0  0  1  0  0  0  0  0  0  0  0
    6.3404   -0.9041   -3.6130 H   0  0  0  1  0  0  0  0  0  0  0  0
  1  2  4  0  0  0  0
  1  6  4  0  0  0  0
  1 18  1  0  0  0  0
  2  3  4  0  0  0  0
  3  4  4  0  0  0  0
  3 25  1  0  0  0  0
  4  5  4  0  0  0  0
  4  7  4  0  0  0  0
  5  6  4  0  0  0  0
  5  9  4  0  0  0  0
  7  8  4  0  0  0  0
  7 26  1  0  0  0  0
  8  9  4  0  0  0  0
  9 10  1  0  0  0  0
 10 11  4  0  0  0  0
 10 15  4  0  0  0  0
 11 12  4  0  0  0  0
 11 27  1  0  0  0  0
 12 13  4  0  0  0  0
 12 28  1  0  0  0  0
 13 14  4  0  0  0  0
 13 16  1  0  0  0  0
 14 15  4  0  0  0  0
 14 29  1  0  0  0  0
 15 30  1  0  0  0  0
 16 17  1  0  0  0  0
 17 31  1  0  0  0  0
 17 32  1  0  0  0  0
 17 33  1  0  0  0  0
 18 19  1  0  0  0  0
 18 34  1  0  0  0  0
 19 20  1  0  0  0  0
 19 23  1  0  0  0  0
 19 35  1  0  0  0  0
 20 21  1  0  0  0  0
 20 36  1  0  0  0  0
 20 37  1  0  0  0  0
 21 22  1  0  0  0  0
 21 38  1  0  0  0  0
 21 39  1  0  0  0  0
 22 23  1  0  0  0  0
 22 24  1  0  0  0  0
 22 40  1  0  0  0  0
 23 41  1  0  0  0  0
 23 42  1  0  0  0  0
 24 43  1  0  0  0  0
 24 44  1  0  0  0  0
M  END
> <ConfClashScore>
0 

> <ConfOneFourInteractionScore>
-0.984337 

> <ConfScore>
0.0334452 

> <ConfScorePBest>
0.00203384 

> <ConfTolerance>
0.53255 

$$$$
c22.sdf
 OpenBabel04162418103D

 44 47  0  0  0  0  0  0  0  0999 V2000
    3.1416   -1.3946    0.6630 C   0  0  0  1  0  0  0  0  0  0  0  0
    2.8404   -1.3777    1.9653 N   0  0  0  1  0  0  0  0  0  0  0  0
    2.1426   -2.4160    2.4678 C   0  0  0  1  0  0  0  0  0  0  0  0
    1.7684   -3.4758    1.5912 C   0  0  0  1  0  0  0  0  0  0  0  0
    2.1699   -3.3306    0.2689 C   0  0  0  1  0  0  0  0  0  0  0  0
    2.8639   -2.2976   -0.2652 N   0  0  0  1  0  0  0  0  0  0  0  0
    1.0945   -4.7136    1.6128 C   0  0  0  1  0  0  0  0  0  0  0  0
    1.0718   -5.2779    0.4274 N   0  0  0  1  0  0  0  0  0  0  0  0
    1.7381   -4.4210   -0.4042 N   0  0  0  1  0  0  0  0  0  0  0  0
    1.9477   -4.6453   -1.7850 C   0  0  0  1  0  0  0  0  0  0  0  0
    2.6891   -5.7341   -2.2033 C   0  0  0  1  0  0  0  0  0  0  0  0
    2.8900   -5.9569   -3.5567 C   0  0  0  1  0  0  0  0  0  0  0  0
    2.3535   -5.0874   -4.4875 C   0  0  0  1  0  0  0  0  0  0  0  0
    1.6099   -3.9954   -4.0677 C   0  0  0  1  0  0  0  0  0  0  0  0
    1.4095   -3.7731   -2.7183 C   0  0  0  1  0  0  0  0  0  0  0  0
    2.4750   -5.3568   -5.8056 O   0  0  0  1  0  0  0  0  0  0  0  0
    3.3054   -6.4488   -6.2305 C   0  0  0  1  0  0  0  0  0  0  0  0
    3.8451   -0.3125    0.2210 N   0  0  0  1  0  0  0  0  0  0  0  0
    4.4656   -0.2877   -1.1044 C   0  0  0  1  0  0  0  0  0  0  0  0
    3.4132   -0.3158   -2.1990 C   0  0  0  1  0  0  0  0  0  0  0  0
    4.0985   -0.9443   -3.4093 C   0  0  0  1  0  0  0  0  0  0  0  0
    4.9614   -2.0489   -2.7699 C   0  0  0  1  0  0  0  0  0  0  0  0
    5.2717   -1.5718   -1.3597 C   0  0  0  1  0  0  0  0  0  0  0  0
    6.2305   -2.2358   -3.5485 N   0  0  0  1  0  0  0  0  0  0  0  0
    1.8827   -2.4431    3.4744 H   0  0  0  1  0  0  0  0  0  0  0  0
    0.6669   -5.1297    2.4647 H   0  0  0  1  0  0  0  0  0  0  0  0
    3.0962   -6.3862   -1.5029 H   0  0  0  1  0  0  0  0  0  0  0  0
    3.4445   -6.7784   -3.8717 H   0  0  0  1  0  0  0  0  0  0  0  0
    1.2028   -3.3433   -4.7681 H   0  0  0  1  0  0  0  0  0  0  0  0
    0.8550   -2.9516   -2.4033 H   0  0  0  1  0  0  0  0  0  0  0  0
    3.0550   -7.3263   -5.6718 H   0  0  0  1  0  0  0  0  0  0  0  0
    4.3329   -6.2012   -6.0637 H   0  0  0  1  0  0  0  0  0  0  0  0
    3.1470   -6.6325   -7.2727 H   0  0  0  1  0  0  0  0  0  0  0  0
    3.9373    0.4683    0.8059 H   0  0  0  1  0  0  0  0  0  0  0  0
    5.0869    0.5790   -1.1918 H   0  0  0  1  0  0  0  0  0  0  0  0
    3.0862    0.6769   -2.4284 H   0  0  0  1  0  0  0  0  0  0  0  0
    2.5745   -0.9069   -1.8957 H   0  0  0  1  0  0  0  0  0  0  0  0
    4.7056   -0.2292   -3.9240 H   0  0  0  1  0  0  0  0  0  0  0  0
    3.3816   -1.3581   -4.0874 H   0  0  0  1  0  0  0  0  0  0  0  0
    4.4215   -2.9721   -2.7398 H   0  0  0  1  0  0  0  0  0  0  0  0
    4.9907   -2.3236   -0.6521 H   0  0  0  1  0  0  0  0  0  0  0  0
    6.3181   -1.3679   -1.2676 H   0  0  0  1  0  0  0  0  0  0  0  0
    6.0170   -2.5534   -4.4506 H   0  0  0  1  0  0  0  0  0  0  0  0
    6.7970   -2.8951   -3.0959 H   0  0  0  1  0  0  0  0  0  0  0  0
  1  2  4  0  0  0  0
  1  6  4  0  0  0  0
  1 18  1  0  0  0  0
  2  3  4  0  0  0  0
  3  4  4  0  0  0  0
  3 25  1  0  0  0  0
  4  5  4  0  0  0  0
  4  7  4  0  0  0  0
  5  6  4  0  0  0  0
  5  9  4  0  0  0  0
  7  8  4  0  0  0  0
  7 26  1  0  0  0  0
  8  9  4  0  0  0  0
  9 10  1  0  0  0  0
 10 11  4  0  0  0  0
 10 15  4  0  0  0  0
 11 12  4  0  0  0  0
 11 27  1  0  0  0  0
 12 13  4  0  0  0  0
 12 28  1  0  0  0  0
 13 14  4  0  0  0  0
 13 16  1  0  0  0  0
 14 15  4  0  0  0  0
 14 29  1  0  0  0  0
 15 30  1  0  0  0  0
 16 17  1  0  0  0  0
 17 31  1  0  0  0  0
 17 32  1  0  0  0  0
 17 33  1  0  0  0  0
 18 19  1  0  0  0  0
 18 34  1  0  0  0  0
 19 20  1  0  0  0  0
 19 23  1  0  0  0  0
 19 35  1  0  0  0  0
 20 21  1  0  0  0  0
 20 36  1  0  0  0  0
 20 37  1  0  0  0  0
 21 22  1  0  0  0  0
 21 38  1  0  0  0  0
 21 39  1  0  0  0  0
 22 23  1  0  0  0  0
 22 24  1  0  0  0  0
 22 40  1  0  0  0  0
 23 41  1  0  0  0  0
 23 42  1  0  0  0  0
 24 43  1  0  0  0  0
 24 44  1  0  0  0  0
M  END
> <ConfClashScore>
0 

> <ConfOneFourInteractionScore>
-0.980204 

> <ConfScore>
0.0374724 

> <ConfScorePBest>
0.00202051 

> <ConfTolerance>
0.280607 

$$$$
c22.sdf
 OpenBabel04162418103D

 44 47  0  0  0  0  0  0  0  0999 V2000
    3.6524   -2.2233    0.8009 C   0  0  0  1  0  0  0  0  0  0  0  0
    4.9124   -2.0988    1.2298 N   0  0  0  1  0  0  0  0  0  0  0  0
    5.2912   -2.8227    2.3021 C   0  0  0  1  0  0  0  0  0  0  0  0
    4.3360   -3.6835    2.9174 C   0  0  0  1  0  0  0  0  0  0  0  0
    3.0740   -3.6919    2.3361 C   0  0  0  1  0  0  0  0  0  0  0  0
    2.6632   -2.9717    1.2653 N   0  0  0  1  0  0  0  0  0  0  0  0
    4.2321   -4.6033    3.9804 C   0  0  0  1  0  0  0  0  0  0  0  0
    3.0297   -5.1252    4.0583 N   0  0  0  1  0  0  0  0  0  0  0  0
    2.3132   -4.5605    3.0397 N   0  0  0  1  0  0  0  0  0  0  0  0
    0.9467   -4.8490    2.7573 C   0  0  0  1  0  0  0  0  0  0  0  0
    0.4714   -4.7250    1.4655 C   0  0  0  1  0  0  0  0  0  0  0  0
   -0.8299   -5.0979    1.1672 C   0  0  0  1  0  0  0  0  0  0  0  0
   -1.6538   -5.5885    2.1625 C   0  0  0  1  0  0  0  0  0  0  0  0
   -1.1769   -5.7128    3.4582 C   0  0  0  1  0  0  0  0  0  0  0  0
    0.1206   -5.3411    3.7558 C   0  0  0  1  0  0  0  0  0  0  0  0
   -2.9395   -5.9784    1.9927 O   0  0  0  1  0  0  0  0  0  0  0  0
   -3.4277   -6.0606    0.6446 C   0  0  0  1  0  0  0  0  0  0  0  0
    3.3422   -1.4752   -0.2638 N   0  0  0  1  0  0  0  0  0  0  0  0
    4.2412   -0.5663   -0.9810 C   0  0  0  1  0  0  0  0  0  0  0  0
    3.5818   -0.0549   -2.2649 C   0  0  0  1  0  0  0  0  0  0  0  0
    4.0510   -1.0073   -3.3729 C   0  0  0  1  0  0  0  0  0  0  0  0
    4.9787   -2.0245   -2.6999 C   0  0  0  1  0  0  0  0  0  0  0  0
    5.4925   -1.3098   -1.4609 C   0  0  0  1  0  0  0  0  0  0  0  0
    6.1204   -2.3919   -3.6153 N   0  0  0  1  0  0  0  0  0  0  0  0
    6.2604   -2.7544    2.6729 H   0  0  0  1  0  0  0  0  0  0  0  0
    5.0132   -4.8399    4.6249 H   0  0  0  1  0  0  0  0  0  0  0  0
    1.0900   -4.3521    0.7173 H   0  0  0  1  0  0  0  0  0  0  0  0
   -1.1864   -5.0084    0.1943 H   0  0  0  1  0  0  0  0  0  0  0  0
   -1.7955   -6.0858    4.2064 H   0  0  0  1  0  0  0  0  0  0  0  0
    0.4771   -5.4306    4.7287 H   0  0  0  1  0  0  0  0  0  0  0  0
   -2.7889   -6.7000    0.0718 H   0  0  0  1  0  0  0  0  0  0  0  0
   -3.4374   -5.0835    0.2088 H   0  0  0  1  0  0  0  0  0  0  0  0
   -4.4205   -6.4597    0.6488 H   0  0  0  1  0  0  0  0  0  0  0  0
    2.4230   -1.5413   -0.5973 H   0  0  0  1  0  0  0  0  0  0  0  0
    4.5081    0.2496   -0.3424 H   0  0  0  1  0  0  0  0  0  0  0  0
    3.8967    0.9461   -2.4739 H   0  0  0  1  0  0  0  0  0  0  0  0
    2.5160   -0.0826   -2.1745 H   0  0  0  1  0  0  0  0  0  0  0  0
    3.2125   -1.5051   -3.8133 H   0  0  0  1  0  0  0  0  0  0  0  0
    4.5811   -0.4649   -4.1277 H   0  0  0  1  0  0  0  0  0  0  0  0
    4.4387   -2.9079   -2.4302 H   0  0  0  1  0  0  0  0  0  0  0  0
    6.2805   -0.6281   -1.7041 H   0  0  0  1  0  0  0  0  0  0  0  0
    5.8370   -2.0063   -0.7253 H   0  0  0  1  0  0  0  0  0  0  0  0
    5.7867   -2.9549   -4.3447 H   0  0  0  1  0  0  0  0  0  0  0  0
    6.8001   -2.8832   -3.1084 H   0  0  0  1  0  0  0  0  0  0  0  0
  1  2  4  0  0  0  0
  1  6  4  0  0  0  0
  1 18  1  0  0  0  0
  2  3  4  0  0  0  0
  3  4  4  0  0  0  0
  3 25  1  0  0  0  0
  4  5  4  0  0  0  0
  4  7  4  0  0  0  0
  5  6  4  0  0  0  0
  5  9  4  0  0  0  0
  7  8  4  0  0  0  0
  7 26  1  0  0  0  0
  8  9  4  0  0  0  0
  9 10  1  0  0  0  0
 10 11  4  0  0  0  0
 10 15  4  0  0  0  0
 11 12  4  0  0  0  0
 11 27  1  0  0  0  0
 12 13  4  0  0  0  0
 12 28  1  0  0  0  0
 13 14  4  0  0  0  0
 13 16  1  0  0  0  0
 14 15  4  0  0  0  0
 14 29  1  0  0  0  0
 15 30  1  0  0  0  0
 16 17  1  0  0  0  0
 17 31  1  0  0  0  0
 17 32  1  0  0  0  0
 17 33  1  0  0  0  0
 18 19  1  0  0  0  0
 18 34  1  0  0  0  0
 19 20  1  0  0  0  0
 19 23  1  0  0  0  0
 19 35  1  0  0  0  0
 20 21  1  0  0  0  0
 20 36  1  0  0  0  0
 20 37  1  0  0  0  0
 21 22  1  0  0  0  0
 21 38  1  0  0  0  0
 21 39  1  0  0  0  0
 22 23  1  0  0  0  0
 22 24  1  0  0  0  0
 22 40  1  0  0  0  0
 23 41  1  0  0  0  0
 23 42  1  0  0  0  0
 24 43  1  0  0  0  0
 24 44  1  0  0  0  0
M  END
> <ConfClashScore>
0 

> <ConfOneFourInteractionScore>
-0.985399 

> <ConfScore>
0.0386089 

> <ConfScorePBest>
0.00200718 

> <ConfTolerance>
0.428734 

$$$$
c22.sdf
 OpenBabel04162418103D

 44 47  0  0  0  0  0  0  0  0999 V2000
    3.1100   -1.5662    1.0298 C   0  0  0  1  0  0  0  0  0  0  0  0
    2.0629   -2.3258    1.3672 N   0  0  0  1  0  0  0  0  0  0  0  0
    1.8811   -2.6107    2.6722 C   0  0  0  1  0  0  0  0  0  0  0  0
    2.8061   -2.0860    3.6214 C   0  0  0  1  0  0  0  0  0  0  0  0
    3.8324   -1.3119    3.0941 C   0  0  0  1  0  0  0  0  0  0  0  0
    4.0442   -1.0151    1.7898 N   0  0  0  1  0  0  0  0  0  0  0  0
    3.0432   -2.0728    5.0107 C   0  0  0  1  0  0  0  0  0  0  0  0
    4.1093   -1.3702    5.3172 N   0  0  0  1  0  0  0  0  0  0  0  0
    4.5973   -0.8992    4.1299 N   0  0  0  1  0  0  0  0  0  0  0  0
    5.7570   -0.0826    4.0014 C   0  0  0  1  0  0  0  0  0  0  0  0
    6.7977   -0.2139    4.9013 C   0  0  0  1  0  0  0  0  0  0  0  0
    7.9287    0.5772    4.7729 C   0  0  0  1  0  0  0  0  0  0  0  0
    8.0134    1.5010    3.7483 C   0  0  0  1  0  0  0  0  0  0  0  0
    6.9695    1.6325    2.8458 C   0  0  0  1  0  0  0  0  0  0  0  0
    5.8418    0.8438    2.9737 C   0  0  0  1  0  0  0  0  0  0  0  0
    9.0615    2.3292    3.5261 O   0  0  0  1  0  0  0  0  0  0  0  0
   10.1642    2.2527    4.4431 C   0  0  0  1  0  0  0  0  0  0  0  0
    3.2341   -1.3238   -0.2875 N   0  0  0  1  0  0  0  0  0  0  0  0
    4.2440   -0.5228   -0.9811 C   0  0  0  1  0  0  0  0  0  0  0  0
    3.7333   -0.0316   -2.3418 C   0  0  0  1  0  0  0  0  0  0  0  0
    3.8434   -1.2449   -3.2569 C   0  0  0  1  0  0  0  0  0  0  0  0
    5.0132   -2.0669   -2.7032 C   0  0  0  1  0  0  0  0  0  0  0  0
    5.4445   -1.3759   -1.4000 C   0  0  0  1  0  0  0  0  0  0  0  0
    6.1277   -2.0814   -3.6662 N   0  0  0  1  0  0  0  0  0  0  0  0
    1.0823   -3.2013    2.9801 H   0  0  0  1  0  0  0  0  0  0  0  0
    2.4461   -2.5606    5.7087 H   0  0  0  1  0  0  0  0  0  0  0  0
    6.7323   -0.9061    5.6746 H   0  0  0  1  0  0  0  0  0  0  0  0
    8.7135    0.4757    5.4477 H   0  0  0  1  0  0  0  0  0  0  0  0
    7.0349    2.3247    2.0724 H   0  0  0  1  0  0  0  0  0  0  0  0
    5.0569    0.9453    2.2989 H   0  0  0  1  0  0  0  0  0  0  0  0
   10.2108    1.2704    4.8646 H   0  0  0  1  0  0  0  0  0  0  0  0
   10.0276    2.9700    5.2253 H   0  0  0  1  0  0  0  0  0  0  0  0
   11.0756    2.4609    3.9227 H   0  0  0  1  0  0  0  0  0  0  0  0
    2.5566   -1.7397   -0.8605 H   0  0  0  1  0  0  0  0  0  0  0  0
    4.5427    0.2936   -0.3572 H   0  0  0  1  0  0  0  0  0  0  0  0
    2.7168    0.2942   -2.2680 H   0  0  0  1  0  0  0  0  0  0  0  0
    4.3402    0.7712   -2.7052 H   0  0  0  1  0  0  0  0  0  0  0  0
    2.9392   -1.8164   -3.2313 H   0  0  0  1  0  0  0  0  0  0  0  0
    4.0440   -0.9386   -4.2622 H   0  0  0  1  0  0  0  0  0  0  0  0
    4.6998   -3.0705   -2.5045 H   0  0  0  1  0  0  0  0  0  0  0  0
    5.6694   -2.1021   -0.6471 H   0  0  0  1  0  0  0  0  0  0  0  0
    6.3023   -0.7589   -1.5688 H   0  0  0  1  0  0  0  0  0  0  0  0
    5.8626   -2.5819   -4.4660 H   0  0  0  1  0  0  0  0  0  0  0  0
    6.9077   -2.5104   -3.2564 H   0  0  0  1  0  0  0  0  0  0  0  0
  1  2  4  0  0  0  0
  1  6  4  0  0  0  0
  1 18  1  0  0  0  0
  2  3  4  0  0  0  0
  3  4  4  0  0  0  0
  3 25  1  0  0  0  0
  4  5  4  0  0  0  0
  4  7  4  0  0  0  0
  5  6  4  0  0  0  0
  5  9  4  0  0  0  0
  7  8  4  0  0  0  0
  7 26  1  0  0  0  0
  8  9  4  0  0  0  0
  9 10  1  0  0  0  0
 10 11  4  0  0  0  0
 10 15  4  0  0  0  0
 11 12  4  0  0  0  0
 11 27  1  0  0  0  0
 12 13  4  0  0  0  0
 12 28  1  0  0  0  0
 13 14  4  0  0  0  0
 13 16  1  0  0  0  0
 14 15  4  0  0  0  0
 14 29  1  0  0  0  0
 15 30  1  0  0  0  0
 16 17  1  0  0  0  0
 17 31  1  0  0  0  0
 17 32  1  0  0  0  0
 17 33  1  0  0  0  0
 18 19  1  0  0  0  0
 18 34  1  0  0  0  0
 19 20  1  0  0  0  0
 19 23  1  0  0  0  0
 19 35  1  0  0  0  0
 20 21  1  0  0  0  0
 20 36  1  0  0  0  0
 20 37  1  0  0  0  0
 21 22  1  0  0  0  0
 21 38  1  0  0  0  0
 21 39  1  0  0  0  0
 22 23  1  0  0  0  0
 22 24  1  0  0  0  0
 22 40  1  0  0  0  0
 23 41  1  0  0  0  0
 23 42  1  0  0  0  0
 24 43  1  0  0  0  0
 24 44  1  0  0  0  0
M  END
> <ConfClashScore>
0 

> <ConfOneFourInteractionScore>
-0.984337 

> <ConfScore>
0.0406627 

> <ConfScorePBest>
0.00199385 

> <ConfTolerance>
0.555281 

$$$$
c22.sdf
 OpenBabel04162418103D

 44 47  0  0  0  0  0  0  0  0999 V2000
    3.1281   -0.6019    0.5780 C   0  0  0  1  0  0  0  0  0  0  0  0
    2.5679   -1.5855   -0.1333 N   0  0  0  1  0  0  0  0  0  0  0  0
    1.5903   -2.3098    0.4472 C   0  0  0  1  0  0  0  0  0  0  0  0
    1.2018   -1.9885    1.7805 C   0  0  0  1  0  0  0  0  0  0  0  0
    1.8877   -0.9320    2.3670 C   0  0  0  1  0  0  0  0  0  0  0  0
    2.8771   -0.1922    1.8123 N   0  0  0  1  0  0  0  0  0  0  0  0
    0.2858   -2.3970    2.7708 C   0  0  0  1  0  0  0  0  0  0  0  0
    0.3938   -1.6759    3.8628 N   0  0  0  1  0  0  0  0  0  0  0  0
    1.3858   -0.7688    3.6119 N   0  0  0  1  0  0  0  0  0  0  0  0
    1.8266    0.2066    4.5291 C   0  0  0  1  0  0  0  0  0  0  0  0
    2.0095    1.5293    4.1722 C   0  0  0  1  0  0  0  0  0  0  0  0
    2.4398    2.4486    5.1161 C   0  0  0  1  0  0  0  0  0  0  0  0
    2.6911    2.0416    6.4129 C   0  0  0  1  0  0  0  0  0  0  0  0
    2.5076    0.7150    6.7707 C   0  0  0  1  0  0  0  0  0  0  0  0
    2.0785   -0.2017    5.8296 C   0  0  0  1  0  0  0  0  0  0  0  0
    3.1158    2.8044    7.4389 O   0  0  0  1  0  0  0  0  0  0  0  0
    3.2837    4.2076    7.1300 C   0  0  0  1  0  0  0  0  0  0  0  0
    4.1018    0.0804   -0.0618 N   0  0  0  1  0  0  0  0  0  0  0  0
    4.6648   -0.3187   -1.3547 C   0  0  0  1  0  0  0  0  0  0  0  0
    3.5891   -0.2750   -2.4433 C   0  0  0  1  0  0  0  0  0  0  0  0
    3.7033   -1.5757   -3.2235 C   0  0  0  1  0  0  0  0  0  0  0  0
    5.0159   -2.2249   -2.7598 C   0  0  0  1  0  0  0  0  0  0  0  0
    5.1392   -1.7819   -1.3064 C   0  0  0  1  0  0  0  0  0  0  0  0
    6.1703   -1.7301   -3.5680 N   0  0  0  1  0  0  0  0  0  0  0  0
    1.1291   -3.0871   -0.0673 H   0  0  0  1  0  0  0  0  0  0  0  0
   -0.3934   -3.1754    2.6512 H   0  0  0  1  0  0  0  0  0  0  0  0
    1.8243    1.8347    3.1954 H   0  0  0  1  0  0  0  0  0  0  0  0
    2.5736    3.4446    4.8486 H   0  0  0  1  0  0  0  0  0  0  0  0
    2.6928    0.4095    7.7474 H   0  0  0  1  0  0  0  0  0  0  0  0
    1.9447   -1.1978    6.0971 H   0  0  0  1  0  0  0  0  0  0  0  0
    2.4136    4.5681    6.6221 H   0  0  0  1  0  0  0  0  0  0  0  0
    4.1409    4.3343    6.5022 H   0  0  0  1  0  0  0  0  0  0  0  0
    3.4208    4.7584    8.0371 H   0  0  0  1  0  0  0  0  0  0  0  0
    4.4530    0.8904    0.3636 H   0  0  0  1  0  0  0  0  0  0  0  0
    5.4777    0.3301   -1.6059 H   0  0  0  1  0  0  0  0  0  0  0  0
    3.7548    0.5596   -3.0920 H   0  0  0  1  0  0  0  0  0  0  0  0
    2.6187   -0.1954   -1.9996 H   0  0  0  1  0  0  0  0  0  0  0  0
    3.7358   -1.3785   -4.2746 H   0  0  0  1  0  0  0  0  0  0  0  0
    2.8736   -2.2154   -3.0056 H   0  0  0  1  0  0  0  0  0  0  0  0
    4.9610   -3.2911   -2.8310 H   0  0  0  1  0  0  0  0  0  0  0  0
    6.1522   -1.8476   -0.9682 H   0  0  0  1  0  0  0  0  0  0  0  0
    4.5114   -2.3697   -0.6699 H   0  0  0  1  0  0  0  0  0  0  0  0
    7.0054   -2.0827   -3.1956 H   0  0  0  1  0  0  0  0  0  0  0  0
    6.1899   -0.7506   -3.5435 H   0  0  0  1  0  0  0  0  0  0  0  0
  1  2  4  0  0  0  0
  1  6  4  0  0  0  0
  1 18  1  0  0  0  0
  2  3  4  0  0  0  0
  3  4  4  0  0  0  0
  3 25  1  0  0  0  0
  4  5  4  0  0  0  0
  4  7  4  0  0  0  0
  5  6  4  0  0  0  0
  5  9  4  0  0  0  0
  7  8  4  0  0  0  0
  7 26  1  0  0  0  0
  8  9  4  0  0  0  0
  9 10  1  0  0  0  0
 10 11  4  0  0  0  0
 10 15  4  0  0  0  0
 11 12  4  0  0  0  0
 11 27  1  0  0  0  0
 12 13  4  0  0  0  0
 12 28  1  0  0  0  0
 13 14  4  0  0  0  0
 13 16  1  0  0  0  0
 14 15  4  0  0  0  0
 14 29  1  0  0  0  0
 15 30  1  0  0  0  0
 16 17  1  0  0  0  0
 17 31  1  0  0  0  0
 17 32  1  0  0  0  0
 17 33  1  0  0  0  0
 18 19  1  0  0  0  0
 18 34  1  0  0  0  0
 19 20  1  0  0  0  0
 19 23  1  0  0  0  0
 19 35  1  0  0  0  0
 20 21  1  0  0  0  0
 20 36  1  0  0  0  0
 20 37  1  0  0  0  0
 21 22  1  0  0  0  0
 21 38  1  0  0  0  0
 21 39  1  0  0  0  0
 22 23  1  0  0  0  0
 22 24  1  0  0  0  0
 22 40  1  0  0  0  0
 23 41  1  0  0  0  0
 23 42  1  0  0  0  0
 24 43  1  0  0  0  0
 24 44  1  0  0  0  0
M  END
> <ConfClashScore>
0 

> <ConfOneFourInteractionScore>
-0.980204 

> <ConfScore>
0.0425272 

> <ConfScorePBest>
0.00198052 

> <ConfTolerance>
0.253861 

$$$$
c22.sdf
 OpenBabel04162418103D

 44 47  0  0  0  0  0  0  0  0999 V2000
    3.1156   -0.6601    0.7610 C   0  0  0  1  0  0  0  0  0  0  0  0
    2.6417   -1.7074    0.0786 N   0  0  0  1  0  0  0  0  0  0  0  0
    1.6591   -2.4386    0.6418 C   0  0  0  1  0  0  0  0  0  0  0  0
    1.1742   -2.0568    1.9267 C   0  0  0  1  0  0  0  0  0  0  0  0
    1.7785   -0.9386    2.4880 C   0  0  0  1  0  0  0  0  0  0  0  0
    2.7706   -0.1899    1.9502 N   0  0  0  1  0  0  0  0  0  0  0  0
    0.2144   -2.4463    2.8827 C   0  0  0  1  0  0  0  0  0  0  0  0
    0.2238   -1.6581    3.9329 N   0  0  0  1  0  0  0  0  0  0  0  0
    1.1925   -0.7247    3.6877 N   0  0  0  1  0  0  0  0  0  0  0  0
    1.5359    0.3250    4.5714 C   0  0  0  1  0  0  0  0  0  0  0  0
    2.8781    0.6046    4.7454 C   0  0  0  1  0  0  0  0  0  0  0  0
    3.2725    1.5644    5.6645 C   0  0  0  1  0  0  0  0  0  0  0  0
    2.3239    2.2379    6.4108 C   0  0  0  1  0  0  0  0  0  0  0  0
    0.9777    1.9573    6.2361 C   0  0  0  1  0  0  0  0  0  0  0  0
    0.5843    1.0004    5.3197 C   0  0  0  1  0  0  0  0  0  0  0  0
    2.7064    3.2368    7.2413 O   0  0  0  1  0  0  0  0  0  0  0  0
    4.1063    3.3373    7.5457 C   0  0  0  1  0  0  0  0  0  0  0  0
    4.0998    0.0255    0.1410 N   0  0  0  1  0  0  0  0  0  0  0  0
    4.5904   -0.2862   -1.2055 C   0  0  0  1  0  0  0  0  0  0  0  0
    3.4364   -0.2790   -2.2267 C   0  0  0  1  0  0  0  0  0  0  0  0
    3.8672   -1.2242   -3.3621 C   0  0  0  1  0  0  0  0  0  0  0  0
    5.0235   -2.0983   -2.7997 C   0  0  0  1  0  0  0  0  0  0  0  0
    5.1352   -1.7531   -1.2764 C   0  0  0  1  0  0  0  0  0  0  0  0
    6.2929   -1.7769   -3.4927 N   0  0  0  1  0  0  0  0  0  0  0  0
    1.2630   -3.2643    0.1490 H   0  0  0  1  0  0  0  0  0  0  0  0
   -0.4240   -3.2595    2.7699 H   0  0  0  1  0  0  0  0  0  0  0  0
    3.5922    0.0950    4.1868 H   0  0  0  1  0  0  0  0  0  0  0  0
    4.2823    1.7777    5.7926 H   0  0  0  1  0  0  0  0  0  0  0  0
    0.2636    2.4669    6.7947 H   0  0  0  1  0  0  0  0  0  0  0  0
   -0.4255    0.7870    5.1916 H   0  0  0  1  0  0  0  0  0  0  0  0
    4.4470    2.4153    7.9686 H   0  0  0  1  0  0  0  0  0  0  0  0
    4.2626    4.1303    8.2468 H   0  0  0  1  0  0  0  0  0  0  0  0
    4.6524    3.5410    6.6484 H   0  0  0  1  0  0  0  0  0  0  0  0
    4.5107    0.7758    0.6191 H   0  0  0  1  0  0  0  0  0  0  0  0
    5.3486    0.4166   -1.4810 H   0  0  0  1  0  0  0  0  0  0  0  0
    3.2815    0.7098   -2.6051 H   0  0  0  1  0  0  0  0  0  0  0  0
    2.5350   -0.6323   -1.7711 H   0  0  0  1  0  0  0  0  0  0  0  0
    3.0465   -1.8438   -3.6575 H   0  0  0  1  0  0  0  0  0  0  0  0
    4.2085   -0.6582   -4.2036 H   0  0  0  1  0  0  0  0  0  0  0  0
    4.7991   -3.1365   -2.9286 H   0  0  0  1  0  0  0  0  0  0  0  0
    6.1513   -1.8020   -0.9449 H   0  0  0  1  0  0  0  0  0  0  0  0
    4.5350   -2.4148   -0.6875 H   0  0  0  1  0  0  0  0  0  0  0  0
    6.2711   -2.1425   -4.4017 H   0  0  0  1  0  0  0  0  0  0  0  0
    7.0427   -2.1713   -3.0001 H   0  0  0  1  0  0  0  0  0  0  0  0
  1  2  4  0  0  0  0
  1  6  4  0  0  0  0
  1 18  1  0  0  0  0
  2  3  4  0  0  0  0
  3  4  4  0  0  0  0
  3 25  1  0  0  0  0
  4  5  4  0  0  0  0
  4  7  4  0  0  0  0
  5  6  4  0  0  0  0
  5  9  4  0  0  0  0
  7  8  4  0  0  0  0
  7 26  1  0  0  0  0
  8  9  4  0  0  0  0
  9 10  1  0  0  0  0
 10 11  4  0  0  0  0
 10 15  4  0  0  0  0
 11 12  4  0  0  0  0
 11 27  1  0  0  0  0
 12 13  4  0  0  0  0
 12 28  1  0  0  0  0
 13 14  4  0  0  0  0
 13 16  1  0  0  0  0
 14 15  4  0  0  0  0
 14 29  1  0  0  0  0
 15 30  1  0  0  0  0
 16 17  1  0  0  0  0
 17 31  1  0  0  0  0
 17 32  1  0  0  0  0
 17 33  1  0  0  0  0
 18 19  1  0  0  0  0
 18 34  1  0  0  0  0
 19 20  1  0  0  0  0
 19 23  1  0  0  0  0
 19 35  1  0  0  0  0
 20 21  1  0  0  0  0
 20 36  1  0  0  0  0
 20 37  1  0  0  0  0
 21 22  1  0  0  0  0
 21 38  1  0  0  0  0
 21 39  1  0  0  0  0
 22 23  1  0  0  0  0
 22 24  1  0  0  0  0
 22 40  1  0  0  0  0
 23 41  1  0  0  0  0
 23 42  1  0  0  0  0
 24 43  1  0  0  0  0
 24 44  1  0  0  0  0
M  END
> <ConfClashScore>
0.000406378 

> <ConfOneFourInteractionScore>
-0.980204 

> <ConfScore>
0.0446204 

> <ConfScorePBest>
0.00196719 

> <ConfTolerance>
0.424465 

$$$$
c22.sdf
 OpenBabel04162418103D

 44 47  0  0  0  0  0  0  0  0999 V2000
    1.9836   -0.8153   -0.0250 C   0  0  0  1  0  0  0  0  0  0  0  0
    1.1190   -1.7021    0.4781 N   0  0  0  1  0  0  0  0  0  0  0  0
   -0.1308   -1.2807    0.7568 C   0  0  0  1  0  0  0  0  0  0  0  0
   -0.4669    0.0800    0.4971 C   0  0  0  1  0  0  0  0  0  0  0  0
    0.5545    0.8597   -0.0316 C   0  0  0  1  0  0  0  0  0  0  0  0
    1.8192    0.4666   -0.3146 N   0  0  0  1  0  0  0  0  0  0  0  0
   -1.5624    0.9622    0.5876 C   0  0  0  1  0  0  0  0  0  0  0  0
   -1.2548    2.1672    0.1663 N   0  0  0  1  0  0  0  0  0  0  0  0
    0.0561    2.1029   -0.2171 N   0  0  0  1  0  0  0  0  0  0  0  0
    0.7979    3.1994   -0.7420 C   0  0  0  1  0  0  0  0  0  0  0  0
    1.3107    4.1582    0.1112 C   0  0  0  1  0  0  0  0  0  0  0  0
    2.0373    5.2227   -0.3993 C   0  0  0  1  0  0  0  0  0  0  0  0
    2.2444    5.3281   -1.7617 C   0  0  0  1  0  0  0  0  0  0  0  0
    1.7300    4.3663   -2.6173 C   0  0  0  1  0  0  0  0  0  0  0  0
    1.0055    3.3049   -2.1084 C   0  0  0  1  0  0  0  0  0  0  0  0
    2.9273    6.3166   -2.3712 O   0  0  0  1  0  0  0  0  0  0  0  0
    3.4237    7.3511   -1.4902 C   0  0  0  1  0  0  0  0  0  0  0  0
    3.2326   -1.3086   -0.2804 N   0  0  0  1  0  0  0  0  0  0  0  0
    4.2490   -0.5118   -0.9811 C   0  0  0  1  0  0  0  0  0  0  0  0
    3.7413   -0.0299   -2.3463 C   0  0  0  1  0  0  0  0  0  0  0  0
    3.8505   -1.2502   -3.2520 C   0  0  0  1  0  0  0  0  0  0  0  0
    5.0178   -2.0702   -2.6903 C   0  0  0  1  0  0  0  0  0  0  0  0
    5.4485   -1.3702   -1.3917 C   0  0  0  1  0  0  0  0  0  0  0  0
    6.1336   -2.0941   -3.6513 N   0  0  0  1  0  0  0  0  0  0  0  0
   -0.8354   -1.9350    1.1531 H   0  0  0  1  0  0  0  0  0  0  0  0
   -2.5009    0.6915    0.9448 H   0  0  0  1  0  0  0  0  0  0  0  0
    1.1515    4.0811    1.1360 H   0  0  0  1  0  0  0  0  0  0  0  0
    2.4266    5.9420    0.2430 H   0  0  0  1  0  0  0  0  0  0  0  0
    1.8892    4.4434   -3.6421 H   0  0  0  1  0  0  0  0  0  0  0  0
    0.6162    2.5856   -2.7507 H   0  0  0  1  0  0  0  0  0  0  0  0
    2.8407    7.3664   -0.5931 H   0  0  0  1  0  0  0  0  0  0  0  0
    3.3512    8.3003   -1.9787 H   0  0  0  1  0  0  0  0  0  0  0  0
    4.4465    7.1516   -1.2471 H   0  0  0  1  0  0  0  0  0  0  0  0
    3.4558   -2.2172    0.0113 H   0  0  0  1  0  0  0  0  0  0  0  0
    4.5483    0.3087   -0.3629 H   0  0  0  1  0  0  0  0  0  0  0  0
    2.7253    0.2984   -2.2765 H   0  0  0  1  0  0  0  0  0  0  0  0
    4.3503    0.7690   -2.7147 H   0  0  0  1  0  0  0  0  0  0  0  0
    4.0532   -0.9518   -4.2593 H   0  0  0  1  0  0  0  0  0  0  0  0
    2.9451   -1.8197   -3.2235 H   0  0  0  1  0  0  0  0  0  0  0  0
    4.7022   -3.0717   -2.4846 H   0  0  0  1  0  0  0  0  0  0  0  0
    6.3077   -0.7562   -1.5638 H   0  0  0  1  0  0  0  0  0  0  0  0
    5.6709   -2.0912   -0.6330 H   0  0  0  1  0  0  0  0  0  0  0  0
    5.8263   -2.4758   -4.5000 H   0  0  0  1  0  0  0  0  0  0  0  0
    6.8624   -2.6419   -3.2919 H   0  0  0  1  0  0  0  0  0  0  0  0
  1  2  4  0  0  0  0
  1  6  4  0  0  0  0
  1 18  1  0  0  0  0
  2  3  4  0  0  0  0
  3  4  4  0  0  0  0
  3 25  1  0  0  0  0
  4  5  4  0  0  0  0
  4  7  4  0  0  0  0
  5  6  4  0  0  0  0
  5  9  4  0  0  0  0
  7  8  4  0  0  0  0
  7 26  1  0  0  0  0
  8  9  4  0  0  0  0
  9 10  1  0  0  0  0
 10 11  4  0  0  0  0
 10 15  4  0  0  0  0
 11 12  4  0  0  0  0
 11 27  1  0  0  0  0
 12 13  4  0  0  0  0
 12 28  1  0  0  0  0
 13 14  4  0  0  0  0
 13 16  1  0  0  0  0
 14 15  4  0  0  0  0
 14 29  1  0  0  0  0
 15 30  1  0  0  0  0
 16 17  1  0  0  0  0
 17 31  1  0  0  0  0
 17 32  1  0  0  0  0
 17 33  1  0  0  0  0
 18 19  1  0  0  0  0
 18 34  1  0  0  0  0
 19 20  1  0  0  0  0
 19 23  1  0  0  0  0
 19 35  1  0  0  0  0
 20 21  1  0  0  0  0
 20 36  1  0  0  0  0
 20 37  1  0  0  0  0
 21 22  1  0  0  0  0
 21 38  1  0  0  0  0
 21 39  1  0  0  0  0
 22 23  1  0  0  0  0
 22 24  1  0  0  0  0
 22 40  1  0  0  0  0
 23 41  1  0  0  0  0
 23 42  1  0  0  0  0
 24 43  1  0  0  0  0
 24 44  1  0  0  0  0
M  END
> <ConfClashScore>
0 

> <ConfOneFourInteractionScore>
-0.985399 

> <ConfScore>
0.0449803 

> <ConfScorePBest>
0.00195387 

> <ConfTolerance>
0.661574 

$$$$
c22.sdf
 OpenBabel04162418103D

 44 47  0  0  0  0  0  0  0  0999 V2000
    3.7313    1.5075    0.1612 C   0  0  0  1  0  0  0  0  0  0  0  0
    3.6520    2.2588   -0.9417 N   0  0  0  1  0  0  0  0  0  0  0  0
    3.1517    3.5051   -0.8248 C   0  0  0  1  0  0  0  0  0  0  0  0
    2.7400    3.9581    0.4625 C   0  0  0  1  0  0  0  0  0  0  0  0
    2.8986    3.0458    1.4984 C   0  0  0  1  0  0  0  0  0  0  0  0
    3.3906    1.7871    1.4102 N   0  0  0  1  0  0  0  0  0  0  0  0
    2.2018    5.1005    1.0886 C   0  0  0  1  0  0  0  0  0  0  0  0
    2.0356    4.9176    2.3782 N   0  0  0  1  0  0  0  0  0  0  0  0
    2.4675    3.6451    2.6313 N   0  0  0  1  0  0  0  0  0  0  0  0
    2.4638    3.0417    3.8976 C   0  0  0  1  0  0  0  0  0  0  0  0
    1.2591    3.0886    4.5734 C   0  0  0  1  0  0  0  0  0  0  0  0
    1.1473    2.5164    5.8310 C   0  0  0  1  0  0  0  0  0  0  0  0
    2.2418    1.9036    6.4114 C   0  0  0  1  0  0  0  0  0  0  0  0
    3.4501    1.8567    5.7335 C   0  0  0  1  0  0  0  0  0  0  0  0
    3.5617    2.4272    4.4795 C   0  0  0  1  0  0  0  0  0  0  0  0
    2.1339    1.3492    7.6422 O   0  0  0  1  0  0  0  0  0  0  0  0
    0.8910    1.5327    8.3379 C   0  0  0  1  0  0  0  0  0  0  0  0
    4.2360    0.2749   -0.0270 N   0  0  0  1  0  0  0  0  0  0  0  0
    4.6795   -0.2353   -1.3238 C   0  0  0  1  0  0  0  0  0  0  0  0
    3.5005   -0.3254   -2.3119 C   0  0  0  1  0  0  0  0  0  0  0  0
    3.8696   -1.4328   -3.3146 C   0  0  0  1  0  0  0  0  0  0  0  0
    5.0097   -2.2638   -2.6613 C   0  0  0  1  0  0  0  0  0  0  0  0
    5.1724   -1.7171   -1.2029 C   0  0  0  1  0  0  0  0  0  0  0  0
    6.2704   -2.0880   -3.4180 N   0  0  0  1  0  0  0  0  0  0  0  0
    3.0677    4.1234   -1.6568 H   0  0  0  1  0  0  0  0  0  0  0  0
    1.9649    5.9816    0.5896 H   0  0  0  1  0  0  0  0  0  0  0  0
    0.4366    3.5532    4.1384 H   0  0  0  1  0  0  0  0  0  0  0  0
    0.2397    2.5481    6.3378 H   0  0  0  1  0  0  0  0  0  0  0  0
    4.2726    1.3921    6.1684 H   0  0  0  1  0  0  0  0  0  0  0  0
    4.4692    2.3955    3.9727 H   0  0  0  1  0  0  0  0  0  0  0  0
    0.9201    1.0029    9.2670 H   0  0  0  1  0  0  0  0  0  0  0  0
    0.0882    1.1571    7.7384 H   0  0  0  1  0  0  0  0  0  0  0  0
    0.7387    2.5749    8.5265 H   0  0  0  1  0  0  0  0  0  0  0  0
    4.3110   -0.3163    0.7511 H   0  0  0  1  0  0  0  0  0  0  0  0
    5.4538    0.3945   -1.7095 H   0  0  0  1  0  0  0  0  0  0  0  0
    3.3695    0.6071   -2.8199 H   0  0  0  1  0  0  0  0  0  0  0  0
    2.5998   -0.5792   -1.7931 H   0  0  0  1  0  0  0  0  0  0  0  0
    4.2080   -1.0008   -4.2332 H   0  0  0  1  0  0  0  0  0  0  0  0
    3.0210   -2.0563   -3.5044 H   0  0  0  1  0  0  0  0  0  0  0  0
    4.7471   -3.3009   -2.6408 H   0  0  0  1  0  0  0  0  0  0  0  0
    6.1945   -1.7578   -0.8891 H   0  0  0  1  0  0  0  0  0  0  0  0
    4.5656   -2.2690   -0.5158 H   0  0  0  1  0  0  0  0  0  0  0  0
    6.6919   -1.2418   -3.1595 H   0  0  0  1  0  0  0  0  0  0  0  0
    6.0756   -2.0755   -4.3784 H   0  0  0  1  0  0  0  0  0  0  0  0
  1  2  4  0  0  0  0
  1  6  4  0  0  0  0
  1 18  1  0  0  0  0
  2  3  4  0  0  0  0
  3  4  4  0  0  0  0
  3 25  1  0  0  0  0
  4  5  4  0  0  0  0
  4  7  4  0  0  0  0
  5  6  4  0  0  0  0
  5  9  4  0  0  0  0
  7  8  4  0  0  0  0
  7 26  1  0  0  0  0
  8  9  4  0  0  0  0
  9 10  1  0  0  0  0
 10 11  4  0  0  0  0
 10 15  4  0  0  0  0
 11 12  4  0  0  0  0
 11 27  1  0  0  0  0
 12 13  4  0  0  0  0
 12 28  1  0  0  0  0
 13 14  4  0  0  0  0
 13 16  1  0  0  0  0
 14 15  4  0  0  0  0
 14 29  1  0  0  0  0
 15 30  1  0  0  0  0
 16 17  1  0  0  0  0
 17 31  1  0  0  0  0
 17 32  1  0  0  0  0
 17 33  1  0  0  0  0
 18 19  1  0  0  0  0
 18 34  1  0  0  0  0
 19 20  1  0  0  0  0
 19 23  1  0  0  0  0
 19 35  1  0  0  0  0
 20 21  1  0  0  0  0
 20 36  1  0  0  0  0
 20 37  1  0  0  0  0
 21 22  1  0  0  0  0
 21 38  1  0  0  0  0
 21 39  1  0  0  0  0
 22 23  1  0  0  0  0
 22 24  1  0  0  0  0
 22 40  1  0  0  0  0
 23 41  1  0  0  0  0
 23 42  1  0  0  0  0
 24 43  1  0  0  0  0
 24 44  1  0  0  0  0
M  END
> <ConfClashScore>
0 

> <ConfOneFourInteractionScore>
-0.981848 

> <ConfScore>
0.0474229 

> <ConfScorePBest>
0.00194054 

> <ConfTolerance>
0.451641 

$$$$
c22.sdf
 OpenBabel04162418103D

 44 47  0  0  0  0  0  0  0  0999 V2000
    3.5193    0.9520    0.7005 C   0  0  0  1  0  0  0  0  0  0  0  0
    2.6060    0.8814    1.6742 N   0  0  0  1  0  0  0  0  0  0  0  0
    2.4361    1.9612    2.4631 C   0  0  0  1  0  0  0  0  0  0  0  0
    3.2305    3.1190    2.2169 C   0  0  0  1  0  0  0  0  0  0  0  0
    4.1264    3.0180    1.1598 C   0  0  0  1  0  0  0  0  0  0  0  0
    4.3239    1.9460    0.3560 N   0  0  0  1  0  0  0  0  0  0  0  0
    3.4205    4.4272    2.7061 C   0  0  0  1  0  0  0  0  0  0  0  0
    4.3429    5.0720    2.0297 N   0  0  0  1  0  0  0  0  0  0  0  0
    4.7795    4.1988    1.0722 N   0  0  0  1  0  0  0  0  0  0  0  0
    5.7810    4.4918    0.1173 C   0  0  0  1  0  0  0  0  0  0  0  0
    6.8790    3.6620   -0.0091 C   0  0  0  1  0  0  0  0  0  0  0  0
    7.8578    3.9462   -0.9486 C   0  0  0  1  0  0  0  0  0  0  0  0
    7.7384    5.0622   -1.7553 C   0  0  0  1  0  0  0  0  0  0  0  0
    6.6370    5.8943   -1.6283 C   0  0  0  1  0  0  0  0  0  0  0  0
    5.6611    5.6111   -0.6916 C   0  0  0  1  0  0  0  0  0  0  0  0
    8.6250    5.4410   -2.6962 O   0  0  0  1  0  0  0  0  0  0  0  0
    9.7065    4.5090   -2.9289 C   0  0  0  1  0  0  0  0  0  0  0  0
    3.6392   -0.1543   -0.0420 N   0  0  0  1  0  0  0  0  0  0  0  0
    4.5558   -0.3515   -1.1684 C   0  0  0  1  0  0  0  0  0  0  0  0
    3.8237   -0.1211   -2.4956 C   0  0  0  1  0  0  0  0  0  0  0  0
    3.7955   -1.4807   -3.1828 C   0  0  0  1  0  0  0  0  0  0  0  0
    5.0557   -2.1969   -2.6803 C   0  0  0  1  0  0  0  0  0  0  0  0
    5.0553   -1.8046   -1.2003 C   0  0  0  1  0  0  0  0  0  0  0  0
    6.2796   -1.7011   -3.3762 N   0  0  0  1  0  0  0  0  0  0  0  0
    1.7398    1.9499    3.2355 H   0  0  0  1  0  0  0  0  0  0  0  0
    2.8938    4.8327    3.5059 H   0  0  0  1  0  0  0  0  0  0  0  0
    6.9709    2.8244    0.6005 H   0  0  0  1  0  0  0  0  0  0  0  0
    8.6820    3.3196   -1.0466 H   0  0  0  1  0  0  0  0  0  0  0  0
    6.5452    6.7319   -2.2380 H   0  0  0  1  0  0  0  0  0  0  0  0
    4.8368    6.2376   -0.5936 H   0  0  0  1  0  0  0  0  0  0  0  0
   10.2999    4.4221   -2.0428 H   0  0  0  1  0  0  0  0  0  0  0  0
   10.3166    4.8644   -3.7329 H   0  0  0  1  0  0  0  0  0  0  0  0
    9.3031    3.5511   -3.1831 H   0  0  0  1  0  0  0  0  0  0  0  0
    3.0566   -0.9073    0.1903 H   0  0  0  1  0  0  0  0  0  0  0  0
    5.3819    0.3226   -1.0789 H   0  0  0  1  0  0  0  0  0  0  0  0
    4.3513    0.5906   -3.0955 H   0  0  0  1  0  0  0  0  0  0  0  0
    2.8284    0.2293   -2.3181 H   0  0  0  1  0  0  0  0  0  0  0  0
    2.9167   -2.0250   -2.9063 H   0  0  0  1  0  0  0  0  0  0  0  0
    3.8251   -1.3666   -4.2463 H   0  0  0  1  0  0  0  0  0  0  0  0
    4.9791   -3.2570   -2.8041 H   0  0  0  1  0  0  0  0  0  0  0  0
    4.3977   -2.4395   -0.6442 H   0  0  0  1  0  0  0  0  0  0  0  0
    6.0432   -1.8705   -0.7946 H   0  0  0  1  0  0  0  0  0  0  0  0
    6.0318   -0.9989   -4.0133 H   0  0  0  1  0  0  0  0  0  0  0  0
    6.7049   -2.4421   -3.8563 H   0  0  0  1  0  0  0  0  0  0  0  0
  1  2  4  0  0  0  0
  1  6  4  0  0  0  0
  1 18  1  0  0  0  0
  2  3  4  0  0  0  0
  3  4  4  0  0  0  0
  3 25  1  0  0  0  0
  4  5  4  0  0  0  0
  4  7  4  0  0  0  0
  5  6  4  0  0  0  0
  5  9  4  0  0  0  0
  7  8  4  0  0  0  0
  7 26  1  0  0  0  0
  8  9  4  0  0  0  0
  9 10  1  0  0  0  0
 10 11  4  0  0  0  0
 10 15  4  0  0  0  0
 11 12  4  0  0  0  0
 11 27  1  0  0  0  0
 12 13  4  0  0  0  0
 12 28  1  0  0  0  0
 13 14  4  0  0  0  0
 13 16  1  0  0  0  0
 14 15  4  0  0  0  0
 14 29  1  0  0  0  0
 15 30  1  0  0  0  0
 16 17  1  0  0  0  0
 17 31  1  0  0  0  0
 17 32  1  0  0  0  0
 17 33  1  0  0  0  0
 18 19  1  0  0  0  0
 18 34  1  0  0  0  0
 19 20  1  0  0  0  0
 19 23  1  0  0  0  0
 19 35  1  0  0  0  0
 20 21  1  0  0  0  0
 20 36  1  0  0  0  0
 20 37  1  0  0  0  0
 21 22  1  0  0  0  0
 21 38  1  0  0  0  0
 21 39  1  0  0  0  0
 22 23  1  0  0  0  0
 22 24  1  0  0  0  0
 22 40  1  0  0  0  0
 23 41  1  0  0  0  0
 23 42  1  0  0  0  0
 24 43  1  0  0  0  0
 24 44  1  0  0  0  0
M  END
> <ConfClashScore>
0 

> <ConfOneFourInteractionScore>
-0.984337 

> <ConfScore>
0.0478053 

> <ConfScorePBest>
0.00192721 

> <ConfTolerance>
0.671335 

$$$$
c22.sdf
 OpenBabel04162418103D

 44 47  0  0  0  0  0  0  0  0999 V2000
    3.7893    0.4252    1.1676 C   0  0  0  1  0  0  0  0  0  0  0  0
    4.9034    1.1556    1.2787 N   0  0  0  1  0  0  0  0  0  0  0  0
    5.0923    1.8542    2.4161 C   0  0  0  1  0  0  0  0  0  0  0  0
    4.1028    1.7747    3.4390 C   0  0  0  1  0  0  0  0  0  0  0  0
    3.0109    0.9635    3.1557 C   0  0  0  1  0  0  0  0  0  0  0  0
    2.7909    0.2568    2.0215 N   0  0  0  1  0  0  0  0  0  0  0  0
    3.8429    2.2620    4.7359 C   0  0  0  1  0  0  0  0  0  0  0  0
    2.7052    1.8080    5.2089 N   0  0  0  1  0  0  0  0  0  0  0  0
    2.1907    1.0039    4.2299 N   0  0  0  1  0  0  0  0  0  0  0  0
    0.9546    0.3020    4.3286 C   0  0  0  1  0  0  0  0  0  0  0  0
   -0.1697    0.7989    3.6969 C   0  0  0  1  0  0  0  0  0  0  0  0
   -1.3492    0.0709    3.7076 C   0  0  0  1  0  0  0  0  0  0  0  0
   -1.4026   -1.1493    4.3545 C   0  0  0  1  0  0  0  0  0  0  0  0
   -0.2748   -1.6476    4.9881 C   0  0  0  1  0  0  0  0  0  0  0  0
    0.9014   -0.9218    4.9775 C   0  0  0  1  0  0  0  0  0  0  0  0
   -2.5565   -1.8580    4.3694 O   0  0  0  1  0  0  0  0  0  0  0  0
   -3.6801   -1.2971    3.6728 C   0  0  0  1  0  0  0  0  0  0  0  0
    3.6623   -0.2432    0.0072 N   0  0  0  1  0  0  0  0  0  0  0  0
    4.5399   -0.3691   -1.1575 C   0  0  0  1  0  0  0  0  0  0  0  0
    3.7532   -0.1042   -2.4465 C   0  0  0  1  0  0  0  0  0  0  0  0
    3.7340   -1.4346   -3.1887 C   0  0  0  1  0  0  0  0  0  0  0  0
    5.0299   -2.1367   -2.7627 C   0  0  0  1  0  0  0  0  0  0  0  0
    5.0746   -1.8056   -1.2685 C   0  0  0  1  0  0  0  0  0  0  0  0
    6.2241   -1.5752   -3.4871 N   0  0  0  1  0  0  0  0  0  0  0  0
    5.9426    2.4391    2.5445 H   0  0  0  1  0  0  0  0  0  0  0  0
    4.4757    2.9034    5.2553 H   0  0  0  1  0  0  0  0  0  0  0  0
   -0.1307    1.7189    3.2135 H   0  0  0  1  0  0  0  0  0  0  0  0
   -2.1942    0.4429    3.2288 H   0  0  0  1  0  0  0  0  0  0  0  0
   -0.3138   -2.5676    5.4715 H   0  0  0  1  0  0  0  0  0  0  0  0
    1.7464   -1.2938    5.4563 H   0  0  0  1  0  0  0  0  0  0  0  0
   -3.6607   -0.2311    3.7635 H   0  0  0  1  0  0  0  0  0  0  0  0
   -4.5870   -1.6745    4.0970 H   0  0  0  1  0  0  0  0  0  0  0  0
   -3.6297   -1.5678    2.6388 H   0  0  0  1  0  0  0  0  0  0  0  0
    2.8219   -0.7408   -0.0740 H   0  0  0  1  0  0  0  0  0  0  0  0
    5.3514    0.3228   -1.0696 H   0  0  0  1  0  0  0  0  0  0  0  0
    2.7567    0.2118   -2.2186 H   0  0  0  1  0  0  0  0  0  0  0  0
    4.2399    0.6456   -3.0346 H   0  0  0  1  0  0  0  0  0  0  0  0
    3.7211   -1.2761   -4.2469 H   0  0  0  1  0  0  0  0  0  0  0  0
    2.8802   -2.0133   -2.9038 H   0  0  0  1  0  0  0  0  0  0  0  0
    4.9757   -3.1924   -2.9282 H   0  0  0  1  0  0  0  0  0  0  0  0
    4.4545   -2.4803   -0.7162 H   0  0  0  1  0  0  0  0  0  0  0  0
    6.0783   -1.8616   -0.9019 H   0  0  0  1  0  0  0  0  0  0  0  0
    6.1474   -1.7700   -4.4444 H   0  0  0  1  0  0  0  0  0  0  0  0
    7.0418   -1.9850   -3.1351 H   0  0  0  1  0  0  0  0  0  0  0  0
  1  2  4  0  0  0  0
  1  6  4  0  0  0  0
  1 18  1  0  0  0  0
  2  3  4  0  0  0  0
  3  4  4  0  0  0  0
  3 25  1  0  0  0  0
  4  5  4  0  0  0  0
  4  7  4  0  0  0  0
  5  6  4  0  0  0  0
  5  9  4  0  0  0  0
  7  8  4  0  0  0  0
  7 26  1  0  0  0  0
  8  9  4  0  0  0  0
  9 10  1  0  0  0  0
 10 11  4  0  0  0  0
 10 15  4  0  0  0  0
 11 12  4  0  0  0  0
 11 27  1  0  0  0  0
 12 13  4  0  0  0  0
 12 28  1  0  0  0  0
 13 14  4  0  0  0  0
 13 16  1  0  0  0  0
 14 15  4  0  0  0  0
 14 29  1  0  0  0  0
 15 30  1  0  0  0  0
 16 17  1  0  0  0  0
 17 31  1  0  0  0  0
 17 32  1  0  0  0  0
 17 33  1  0  0  0  0
 18 19  1  0  0  0  0
 18 34  1  0  0  0  0
 19 20  1  0  0  0  0
 19 23  1  0  0  0  0
 19 35  1  0  0  0  0
 20 21  1  0  0  0  0
 20 36  1  0  0  0  0
 20 37  1  0  0  0  0
 21 22  1  0  0  0  0
 21 38  1  0  0  0  0
 21 39  1  0  0  0  0
 22 23  1  0  0  0  0
 22 24  1  0  0  0  0
 22 40  1  0  0  0  0
 23 41  1  0  0  0  0
 23 42  1  0  0  0  0
 24 43  1  0  0  0  0
 24 44  1  0  0  0  0
M  END
> <ConfClashScore>
0 

> <ConfOneFourInteractionScore>
-0.984337 

> <ConfScore>
0.048536 

> <ConfScorePBest>
0.00191388 

> <ConfTolerance>
0.56004 

$$$$
c22.sdf
 OpenBabel04162418103D

 44 47  0  0  0  0  0  0  0  0999 V2000
    2.7542    0.1828    0.6450 C   0  0  0  1  0  0  0  0  0  0  0  0
    2.2513    1.0714   -0.2179 N   0  0  0  1  0  0  0  0  0  0  0  0
    1.2560    1.8748    0.2077 C   0  0  0  1  0  0  0  0  0  0  0  0
    0.7966    1.7408    1.5504 C   0  0  0  1  0  0  0  0  0  0  0  0
    1.4367    0.7686    2.3091 C   0  0  0  1  0  0  0  0  0  0  0  0
    2.4325   -0.0566    1.9074 N   0  0  0  1  0  0  0  0  0  0  0  0
   -0.1419    2.3071    2.4365 C   0  0  0  1  0  0  0  0  0  0  0  0
   -0.0969    1.7427    3.6212 N   0  0  0  1  0  0  0  0  0  0  0  0
    0.8810    0.7903    3.5416 N   0  0  0  1  0  0  0  0  0  0  0  0
    1.2633   -0.0651    4.6141 C   0  0  0  1  0  0  0  0  0  0  0  0
    2.0574    0.4205    5.6358 C   0  0  0  1  0  0  0  0  0  0  0  0
    2.4250   -0.4106    6.6824 C   0  0  0  1  0  0  0  0  0  0  0  0
    2.0020   -1.7263    6.7017 C   0  0  0  1  0  0  0  0  0  0  0  0
    1.2056   -2.2132    5.6769 C   0  0  0  1  0  0  0  0  0  0  0  0
    0.8389   -1.3846    4.6333 C   0  0  0  1  0  0  0  0  0  0  0  0
    2.4265   -2.4404    7.7670 O   0  0  0  1  0  0  0  0  0  0  0  0
    1.9576   -3.7969    7.9478 C   0  0  0  1  0  0  0  0  0  0  0  0
    3.7447   -0.5915    0.1529 N   0  0  0  1  0  0  0  0  0  0  0  0
    4.4063   -0.3527   -1.1332 C   0  0  0  1  0  0  0  0  0  0  0  0
    3.3755   -0.3467   -2.2671 C   0  0  0  1  0  0  0  0  0  0  0  0
    4.0935   -0.9977   -3.4378 C   0  0  0  1  0  0  0  0  0  0  0  0
    4.8736   -2.1216   -2.7470 C   0  0  0  1  0  0  0  0  0  0  0  0
    5.3842   -1.4927   -1.4476 C   0  0  0  1  0  0  0  0  0  0  0  0
    6.0097   -2.5704   -3.5951 N   0  0  0  1  0  0  0  0  0  0  0  0
    0.8320    2.5780   -0.4306 H   0  0  0  1  0  0  0  0  0  0  0  0
   -0.7915    3.0786    2.1826 H   0  0  0  1  0  0  0  0  0  0  0  0
    2.3790    1.4094    5.6193 H   0  0  0  1  0  0  0  0  0  0  0  0
    3.0192   -0.0442    7.4533 H   0  0  0  1  0  0  0  0  0  0  0  0
    0.8839   -3.2021    5.6934 H   0  0  0  1  0  0  0  0  0  0  0  0
    0.2447   -1.7510    3.8624 H   0  0  0  1  0  0  0  0  0  0  0  0
    1.4249   -3.8703    8.8729 H   0  0  0  1  0  0  0  0  0  0  0  0
    2.7941   -4.4639    7.9643 H   0  0  0  1  0  0  0  0  0  0  0  0
    1.3070   -4.0597    7.1400 H   0  0  0  1  0  0  0  0  0  0  0  0
    4.0389   -1.3586    0.6871 H   0  0  0  1  0  0  0  0  0  0  0  0
    4.9256    0.5823   -1.0995 H   0  0  0  1  0  0  0  0  0  0  0  0
    3.0868    0.6545   -2.5102 H   0  0  0  1  0  0  0  0  0  0  0  0
    2.5092   -0.9118   -1.9934 H   0  0  0  1  0  0  0  0  0  0  0  0
    3.3985   -1.3886   -4.1514 H   0  0  0  1  0  0  0  0  0  0  0  0
    4.7525   -0.3077   -3.9221 H   0  0  0  1  0  0  0  0  0  0  0  0
    4.2334   -2.9531   -2.5384 H   0  0  0  1  0  0  0  0  0  0  0  0
    5.3839   -2.2143   -0.6575 H   0  0  0  1  0  0  0  0  0  0  0  0
    6.3744   -1.1099   -1.5812 H   0  0  0  1  0  0  0  0  0  0  0  0
    6.5968   -3.1557   -3.0725 H   0  0  0  1  0  0  0  0  0  0  0  0
    6.5164   -1.7897   -3.9020 H   0  0  0  1  0  0  0  0  0  0  0  0
  1  2  4  0  0  0  0
  1  6  4  0  0  0  0
  1 18  1  0  0  0  0
  2  3  4  0  0  0  0
  3  4  4  0  0  0  0
  3 25  1  0  0  0  0
  4  5  4  0  0  0  0
  4  7  4  0  0  0  0
  5  6  4  0  0  0  0
  5  9  4  0  0  0  0
  7  8  4  0  0  0  0
  7 26  1  0  0  0  0
  8  9  4  0  0  0  0
  9 10  1  0  0  0  0
 10 11  4  0  0  0  0
 10 15  4  0  0  0  0
 11 12  4  0  0  0  0
 11 27  1  0  0  0  0
 12 13  4  0  0  0  0
 12 28  1  0  0  0  0
 13 14  4  0  0  0  0
 13 16  1  0  0  0  0
 14 15  4  0  0  0  0
 14 29  1  0  0  0  0
 15 30  1  0  0  0  0
 16 17  1  0  0  0  0
 17 31  1  0  0  0  0
 17 32  1  0  0  0  0
 17 33  1  0  0  0  0
 18 19  1  0  0  0  0
 18 34  1  0  0  0  0
 19 20  1  0  0  0  0
 19 23  1  0  0  0  0
 19 35  1  0  0  0  0
 20 21  1  0  0  0  0
 20 36  1  0  0  0  0
 20 37  1  0  0  0  0
 21 22  1  0  0  0  0
 21 38  1  0  0  0  0
 21 39  1  0  0  0  0
 22 23  1  0  0  0  0
 22 24  1  0  0  0  0
 22 40  1  0  0  0  0
 23 41  1  0  0  0  0
 23 42  1  0  0  0  0
 24 43  1  0  0  0  0
 24 44  1  0  0  0  0
M  END
> <ConfClashScore>
0 

> <ConfOneFourInteractionScore>
-0.985399 

> <ConfScore>
0.0492315 

> <ConfScorePBest>
0.00190055 

> <ConfTolerance>
0.546554 

$$$$
c22.sdf
 OpenBabel04162418103D

 44 47  0  0  0  0  0  0  0  0999 V2000
    3.9112   -1.6200    1.2156 C   0  0  0  1  0  0  0  0  0  0  0  0
    5.2225   -1.4616    1.4213 N   0  0  0  1  0  0  0  0  0  0  0  0
    5.7344   -1.8779    2.5969 C   0  0  0  1  0  0  0  0  0  0  0  0
    4.8575   -2.4678    3.5533 C   0  0  0  1  0  0  0  0  0  0  0  0
    3.5250   -2.5577    3.1700 C   0  0  0  1  0  0  0  0  0  0  0  0
    2.9814   -2.1423    2.0012 N   0  0  0  1  0  0  0  0  0  0  0  0
    4.8857   -3.0432    4.8397 C   0  0  0  1  0  0  0  0  0  0  0  0
    3.6949   -3.4436    5.2215 N   0  0  0  1  0  0  0  0  0  0  0  0
    2.8528   -3.1428    4.1871 N   0  0  0  1  0  0  0  0  0  0  0  0
    1.4635   -3.4083    4.1815 C   0  0  0  1  0  0  0  0  0  0  0  0
    0.9959   -4.6333    3.7448 C   0  0  0  1  0  0  0  0  0  0  0  0
   -0.3653   -4.8954    3.7444 C   0  0  0  1  0  0  0  0  0  0  0  0
   -1.2552   -3.9298    4.1758 C   0  0  0  1  0  0  0  0  0  0  0  0
   -0.7860   -2.7012    4.6138 C   0  0  0  1  0  0  0  0  0  0  0  0
    0.5711   -2.4397    4.6142 C   0  0  0  1  0  0  0  0  0  0  0  0
   -2.5947   -4.0679    4.2156 O   0  0  0  1  0  0  0  0  0  0  0  0
   -3.1049   -5.2704    3.5941 C   0  0  0  1  0  0  0  0  0  0  0  0
    3.4663   -1.1803    0.0247 N   0  0  0  1  0  0  0  0  0  0  0  0
    4.2573   -0.4939   -1.0005 C   0  0  0  1  0  0  0  0  0  0  0  0
    3.4265   -0.3091   -2.2774 C   0  0  0  1  0  0  0  0  0  0  0  0
    4.1967   -1.0476   -3.3757 C   0  0  0  1  0  0  0  0  0  0  0  0
    5.0100   -2.1096   -2.6278 C   0  0  0  1  0  0  0  0  0  0  0  0
    5.4678   -1.3463   -1.3959 C   0  0  0  1  0  0  0  0  0  0  0  0
    6.1624   -2.5707   -3.4338 N   0  0  0  1  0  0  0  0  0  0  0  0
    6.7484   -1.7710    2.8017 H   0  0  0  1  0  0  0  0  0  0  0  0
    5.7457   -3.1391    5.4166 H   0  0  0  1  0  0  0  0  0  0  0  0
    1.6652   -5.3584    3.4164 H   0  0  0  1  0  0  0  0  0  0  0  0
   -0.7169   -5.8186    3.4196 H   0  0  0  1  0  0  0  0  0  0  0  0
   -1.4553   -1.9760    4.9422 H   0  0  0  1  0  0  0  0  0  0  0  0
    0.9228   -1.5165    4.9390 H   0  0  0  1  0  0  0  0  0  0  0  0
   -3.3729   -5.9775    4.3511 H   0  0  0  1  0  0  0  0  0  0  0  0
   -2.3513   -5.6926    2.9627 H   0  0  0  1  0  0  0  0  0  0  0  0
   -3.9680   -5.0305    3.0089 H   0  0  0  1  0  0  0  0  0  0  0  0
    2.5198   -1.3340   -0.1773 H   0  0  0  1  0  0  0  0  0  0  0  0
    4.5790    0.4558   -0.6271 H   0  0  0  1  0  0  0  0  0  0  0  0
    2.4520   -0.7333   -2.1542 H   0  0  0  1  0  0  0  0  0  0  0  0
    3.3362    0.7296   -2.5178 H   0  0  0  1  0  0  0  0  0  0  0  0
    3.5215   -1.5064   -4.0675 H   0  0  0  1  0  0  0  0  0  0  0  0
    4.8439   -0.3761   -3.9003 H   0  0  0  1  0  0  0  0  0  0  0  0
    4.4018   -2.9488   -2.3615 H   0  0  0  1  0  0  0  0  0  0  0  0
    5.7281   -2.0217   -0.6078 H   0  0  0  1  0  0  0  0  0  0  0  0
    6.3082   -0.7255   -1.6265 H   0  0  0  1  0  0  0  0  0  0  0  0
    6.6689   -1.7952   -3.7539 H   0  0  0  1  0  0  0  0  0  0  0  0
    5.8385   -3.0881   -4.2004 H   0  0  0  1  0  0  0  0  0  0  0  0
  1  2  4  0  0  0  0
  1  6  4  0  0  0  0
  1 18  1  0  0  0  0
  2  3  4  0  0  0  0
  3  4  4  0  0  0  0
  3 25  1  0  0  0  0
  4  5  4  0  0  0  0
  4  7  4  0  0  0  0
  5  6  4  0  0  0  0
  5  9  4  0  0  0  0
  7  8  4  0  0  0  0
  7 26  1  0  0  0  0
  8  9  4  0  0  0  0
  9 10  1  0  0  0  0
 10 11  4  0  0  0  0
 10 15  4  0  0  0  0
 11 12  4  0  0  0  0
 11 27  1  0  0  0  0
 12 13  4  0  0  0  0
 12 28  1  0  0  0  0
 13 14  4  0  0  0  0
 13 16  1  0  0  0  0
 14 15  4  0  0  0  0
 14 29  1  0  0  0  0
 15 30  1  0  0  0  0
 16 17  1  0  0  0  0
 17 31  1  0  0  0  0
 17 32  1  0  0  0  0
 17 33  1  0  0  0  0
 18 19  1  0  0  0  0
 18 34  1  0  0  0  0
 19 20  1  0  0  0  0
 19 23  1  0  0  0  0
 19 35  1  0  0  0  0
 20 21  1  0  0  0  0
 20 36  1  0  0  0  0
 20 37  1  0  0  0  0
 21 22  1  0  0  0  0
 21 38  1  0  0  0  0
 21 39  1  0  0  0  0
 22 23  1  0  0  0  0
 22 24  1  0  0  0  0
 22 40  1  0  0  0  0
 23 41  1  0  0  0  0
 23 42  1  0  0  0  0
 24 43  1  0  0  0  0
 24 44  1  0  0  0  0
M  END
> <ConfClashScore>
0 

> <ConfOneFourInteractionScore>
-0.985399 

> <ConfScore>
0.0500291 

> <ConfScorePBest>
0.00188723 

> <ConfTolerance>
0.646224 

$$$$
c22.sdf
 OpenBabel04162418103D

 44 47  0  0  0  0  0  0  0  0999 V2000
    3.5075   -0.3278    0.8393 C   0  0  0  1  0  0  0  0  0  0  0  0
    3.4062    0.2925    2.0192 N   0  0  0  1  0  0  0  0  0  0  0  0
    2.5619   -0.2224    2.9353 C   0  0  0  1  0  0  0  0  0  0  0  0
    1.8281   -1.3985    2.6034 C   0  0  0  1  0  0  0  0  0  0  0  0
    2.0611   -1.9125    1.3338 C   0  0  0  1  0  0  0  0  0  0  0  0
    2.8962   -1.4140    0.3913 N   0  0  0  1  0  0  0  0  0  0  0  0
    0.8916   -2.2874    3.1686 C   0  0  0  1  0  0  0  0  0  0  0  0
    0.5690   -3.2506    2.3366 N   0  0  0  1  0  0  0  0  0  0  0  0
    1.2937   -3.0179    1.2006 N   0  0  0  1  0  0  0  0  0  0  0  0
    1.2469   -3.8259    0.0406 C   0  0  0  1  0  0  0  0  0  0  0  0
    0.0569   -3.9830   -0.6444 C   0  0  0  1  0  0  0  0  0  0  0  0
    0.0122   -4.7706   -1.7843 C   0  0  0  1  0  0  0  0  0  0  0  0
    1.1564   -5.4031   -2.2327 C   0  0  0  1  0  0  0  0  0  0  0  0
    2.3500   -5.2454   -1.5455 C   0  0  0  1  0  0  0  0  0  0  0  0
    2.3946   -4.4601   -0.4090 C   0  0  0  1  0  0  0  0  0  0  0  0
    0.9467   -6.1328   -3.3455 O   0  0  0  1  0  0  0  0  0  0  0  0
    2.1252   -6.7705   -3.8905 C   0  0  0  1  0  0  0  0  0  0  0  0
    4.3642    0.2401   -0.0286 N   0  0  0  1  0  0  0  0  0  0  0  0
    4.6854   -0.2408   -1.3749 C   0  0  0  1  0  0  0  0  0  0  0  0
    3.4302   -0.3508   -2.2446 C   0  0  0  1  0  0  0  0  0  0  0  0
    3.7763   -1.3900   -3.3227 C   0  0  0  1  0  0  0  0  0  0  0  0
    4.9609   -2.1954   -2.7765 C   0  0  0  1  0  0  0  0  0  0  0  0
    5.1647   -1.6980   -1.3508 C   0  0  0  1  0  0  0  0  0  0  0  0
    6.1842   -1.9468   -3.5964 N   0  0  0  1  0  0  0  0  0  0  0  0
    2.4481    0.2293    3.8652 H   0  0  0  1  0  0  0  0  0  0  0  0
    0.5030   -2.1920    4.1286 H   0  0  0  1  0  0  0  0  0  0  0  0
   -0.8050   -3.5104   -0.3048 H   0  0  0  1  0  0  0  0  0  0  0  0
   -0.8823   -4.8856   -2.3021 H   0  0  0  1  0  0  0  0  0  0  0  0
    3.2119   -5.7180   -1.8851 H   0  0  0  1  0  0  0  0  0  0  0  0
    3.2892   -4.3451    0.1089 H   0  0  0  1  0  0  0  0  0  0  0  0
    1.8320   -7.5837   -4.5211 H   0  0  0  1  0  0  0  0  0  0  0  0
    2.7323   -7.1405   -3.0909 H   0  0  0  1  0  0  0  0  0  0  0  0
    2.6831   -6.0590   -4.4627 H   0  0  0  1  0  0  0  0  0  0  0  0
    4.8182    1.0560    0.2690 H   0  0  0  1  0  0  0  0  0  0  0  0
    5.4146    0.4037   -1.8198 H   0  0  0  1  0  0  0  0  0  0  0  0
    2.5967   -0.6802   -1.6601 H   0  0  0  1  0  0  0  0  0  0  0  0
    3.2010    0.5931   -2.6934 H   0  0  0  1  0  0  0  0  0  0  0  0
    4.0493   -0.9012   -4.2346 H   0  0  0  1  0  0  0  0  0  0  0  0
    2.9401   -2.0338   -3.4990 H   0  0  0  1  0  0  0  0  0  0  0  0
    4.7355   -3.2414   -2.7793 H   0  0  0  1  0  0  0  0  0  0  0  0
    4.5827   -2.2752   -0.6631 H   0  0  0  1  0  0  0  0  0  0  0  0
    6.1976   -1.7509   -1.0768 H   0  0  0  1  0  0  0  0  0  0  0  0
    6.8898   -2.5723   -3.3294 H   0  0  0  1  0  0  0  0  0  0  0  0
    6.4919   -1.0274   -3.4533 H   0  0  0  1  0  0  0  0  0  0  0  0
  1  2  4  0  0  0  0
  1  6  4  0  0  0  0
  1 18  1  0  0  0  0
  2  3  4  0  0  0  0
  3  4  4  0  0  0  0
  3 25  1  0  0  0  0
  4  5  4  0  0  0  0
  4  7  4  0  0  0  0
  5  6  4  0  0  0  0
  5  9  4  0  0  0  0
  7  8  4  0  0  0  0
  7 26  1  0  0  0  0
  8  9  4  0  0  0  0
  9 10  1  0  0  0  0
 10 11  4  0  0  0  0
 10 15  4  0  0  0  0
 11 12  4  0  0  0  0
 11 27  1  0  0  0  0
 12 13  4  0  0  0  0
 12 28  1  0  0  0  0
 13 14  4  0  0  0  0
 13 16  1  0  0  0  0
 14 15  4  0  0  0  0
 14 29  1  0  0  0  0
 15 30  1  0  0  0  0
 16 17  1  0  0  0  0
 17 31  1  0  0  0  0
 17 32  1  0  0  0  0
 17 33  1  0  0  0  0
 18 19  1  0  0  0  0
 18 34  1  0  0  0  0
 19 20  1  0  0  0  0
 19 23  1  0  0  0  0
 19 35  1  0  0  0  0
 20 21  1  0  0  0  0
 20 36  1  0  0  0  0
 20 37  1  0  0  0  0
 21 22  1  0  0  0  0
 21 38  1  0  0  0  0
 21 39  1  0  0  0  0
 22 23  1  0  0  0  0
 22 24  1  0  0  0  0
 22 40  1  0  0  0  0
 23 41  1  0  0  0  0
 23 42  1  0  0  0  0
 24 43  1  0  0  0  0
 24 44  1  0  0  0  0
M  END
> <ConfClashScore>
0 

> <ConfOneFourInteractionScore>
-0.980204 

> <ConfScore>
0.050461 

> <ConfScorePBest>
0.0018739 

> <ConfTolerance>
0.359163 

$$$$
c22.sdf
 OpenBabel04162418103D

 44 47  0  0  0  0  0  0  0  0999 V2000
    3.5996   -0.8235    0.9339 C   0  0  0  1  0  0  0  0  0  0  0  0
    3.2623   -2.0020    0.4005 N   0  0  0  1  0  0  0  0  0  0  0  0
    2.6738   -2.9142    1.1997 C   0  0  0  1  0  0  0  0  0  0  0  0
    2.4374   -2.5759    2.5641 C   0  0  0  1  0  0  0  0  0  0  0  0
    2.8482   -1.3049    2.9468 C   0  0  0  1  0  0  0  0  0  0  0  0
    3.4472   -0.3716    2.1696 N   0  0  0  1  0  0  0  0  0  0  0  0
    1.8777   -3.1246    3.7356 C   0  0  0  1  0  0  0  0  0  0  0  0
    1.9392   -2.2867    4.7447 N   0  0  0  1  0  0  0  0  0  0  0  0
    2.5401   -1.1601    4.2554 N   0  0  0  1  0  0  0  0  0  0  0  0
    2.8044    0.0023    5.0170 C   0  0  0  1  0  0  0  0  0  0  0  0
    3.5496   -0.0867    6.1775 C   0  0  0  1  0  0  0  0  0  0  0  0
    3.8130    1.0532    6.9209 C   0  0  0  1  0  0  0  0  0  0  0  0
    3.3260    2.2779    6.5045 C   0  0  0  1  0  0  0  0  0  0  0  0
    2.5786    2.3669    5.3405 C   0  0  0  1  0  0  0  0  0  0  0  0
    2.3159    1.2304    4.5991 C   0  0  0  1  0  0  0  0  0  0  0  0
    3.6423    3.3173    7.3128 O   0  0  0  1  0  0  0  0  0  0  0  0
    3.2580    4.6299    6.8747 C   0  0  0  1  0  0  0  0  0  0  0  0
    4.1820    0.0331    0.0875 N   0  0  0  1  0  0  0  0  0  0  0  0
    4.5406   -0.2310   -1.3084 C   0  0  0  1  0  0  0  0  0  0  0  0
    3.2890   -0.5259   -2.1422 C   0  0  0  1  0  0  0  0  0  0  0  0
    3.8721   -1.2649   -3.3354 C   0  0  0  1  0  0  0  0  0  0  0  0
    4.9587   -2.1643   -2.7365 C   0  0  0  1  0  0  0  0  0  0  0  0
    5.3846   -1.5039   -1.4184 C   0  0  0  1  0  0  0  0  0  0  0  0
    6.1228   -2.2590   -3.6674 N   0  0  0  1  0  0  0  0  0  0  0  0
    2.3980   -3.8457    0.8285 H   0  0  0  1  0  0  0  0  0  0  0  0
    1.4658   -4.0778    3.7937 H   0  0  0  1  0  0  0  0  0  0  0  0
    3.9126   -1.0088    6.4930 H   0  0  0  1  0  0  0  0  0  0  0  0
    4.3771    0.9870    7.7921 H   0  0  0  1  0  0  0  0  0  0  0  0
    2.2155    3.2890    5.0249 H   0  0  0  1  0  0  0  0  0  0  0  0
    1.7517    1.2966    3.7279 H   0  0  0  1  0  0  0  0  0  0  0  0
    2.3505    4.5669    6.3113 H   0  0  0  1  0  0  0  0  0  0  0  0
    4.0313    5.0411    6.2600 H   0  0  0  1  0  0  0  0  0  0  0  0
    3.1058    5.2596    7.7263 H   0  0  0  1  0  0  0  0  0  0  0  0
    4.3894    0.9255    0.4355 H   0  0  0  1  0  0  0  0  0  0  0  0
    5.0703    0.6093   -1.7062 H   0  0  0  1  0  0  0  0  0  0  0  0
    2.5989   -1.1410   -1.6034 H   0  0  0  1  0  0  0  0  0  0  0  0
    2.8016    0.3773   -2.4447 H   0  0  0  1  0  0  0  0  0  0  0  0
    4.2954   -0.5763   -4.0365 H   0  0  0  1  0  0  0  0  0  0  0  0
    3.1206   -1.8519   -3.8207 H   0  0  0  1  0  0  0  0  0  0  0  0
    4.5688   -3.1434   -2.5514 H   0  0  0  1  0  0  0  0  0  0  0  0
    6.4264   -1.2610   -1.4414 H   0  0  0  1  0  0  0  0  0  0  0  0
    5.1879   -2.1556   -0.5929 H   0  0  0  1  0  0  0  0  0  0  0  0
    6.8893   -2.6451   -3.1943 H   0  0  0  1  0  0  0  0  0  0  0  0
    6.3559   -1.3638   -3.9907 H   0  0  0  1  0  0  0  0  0  0  0  0
  1  2  4  0  0  0  0
  1  6  4  0  0  0  0
  1 18  1  0  0  0  0
  2  3  4  0  0  0  0
  3  4  4  0  0  0  0
  3 25  1  0  0  0  0
  4  5  4  0  0  0  0
  4  7  4  0  0  0  0
  5  6  4  0  0  0  0
  5  9  4  0  0  0  0
  7  8  4  0  0  0  0
  7 26  1  0  0  0  0
  8  9  4  0  0  0  0
  9 10  1  0  0  0  0
 10 11  4  0  0  0  0
 10 15  4  0  0  0  0
 11 12  4  0  0  0  0
 11 27  1  0  0  0  0
 12 13  4  0  0  0  0
 12 28  1  0  0  0  0
 13 14  4  0  0  0  0
 13 16  1  0  0  0  0
 14 15  4  0  0  0  0
 14 29  1  0  0  0  0
 15 30  1  0  0  0  0
 16 17  1  0  0  0  0
 17 31  1  0  0  0  0
 17 32  1  0  0  0  0
 17 33  1  0  0  0  0
 18 19  1  0  0  0  0
 18 34  1  0  0  0  0
 19 20  1  0  0  0  0
 19 23  1  0  0  0  0
 19 35  1  0  0  0  0
 20 21  1  0  0  0  0
 20 36  1  0  0  0  0
 20 37  1  0  0  0  0
 21 22  1  0  0  0  0
 21 38  1  0  0  0  0
 21 39  1  0  0  0  0
 22 23  1  0  0  0  0
 22 24  1  0  0  0  0
 22 40  1  0  0  0  0
 23 41  1  0  0  0  0
 23 42  1  0  0  0  0
 24 43  1  0  0  0  0
 24 44  1  0  0  0  0
M  END
> <ConfClashScore>
0 

> <ConfOneFourInteractionScore>
-0.980204 

> <ConfScore>
0.050461 

> <ConfScorePBest>
0.00186057 

> <ConfTolerance>
0.278802 

$$$$
c22.sdf
 OpenBabel04162418103D

 44 47  0  0  0  0  0  0  0  0999 V2000
    3.5620    0.9807    0.6562 C   0  0  0  1  0  0  0  0  0  0  0  0
    2.7522    0.9406    1.7190 N   0  0  0  1  0  0  0  0  0  0  0  0
    2.5187    2.0912    2.3816 C   0  0  0  1  0  0  0  0  0  0  0  0
    3.1392    3.2865    1.9146 C   0  0  0  1  0  0  0  0  0  0  0  0
    3.9459    3.1446    0.7923 C   0  0  0  1  0  0  0  0  0  0  0  0
    4.2045    2.0028    0.1113 N   0  0  0  1  0  0  0  0  0  0  0  0
    3.2072    4.6617    2.2163 C   0  0  0  1  0  0  0  0  0  0  0  0
    3.9807    5.3083    1.3750 N   0  0  0  1  0  0  0  0  0  0  0  0
    4.4376    4.3682    0.4934 N   0  0  0  1  0  0  0  0  0  0  0  0
    5.3137    4.6412   -0.5935 C   0  0  0  1  0  0  0  0  0  0  0  0
    5.3053    3.8258   -1.7094 C   0  0  0  1  0  0  0  0  0  0  0  0
    6.1552    4.0950   -2.7708 C   0  0  0  1  0  0  0  0  0  0  0  0
    7.0148    5.1757   -2.7111 C   0  0  0  1  0  0  0  0  0  0  0  0
    7.0231    5.9934   -1.5918 C   0  0  0  1  0  0  0  0  0  0  0  0
    6.1757    5.7251   -0.5334 C   0  0  0  1  0  0  0  0  0  0  0  0
    7.7905    5.3335   -3.7898 O   0  0  0  1  0  0  0  0  0  0  0  0
    7.7215    4.4131   -4.9304 C   0  0  0  1  0  0  0  0  0  0  0  0
    3.7576   -0.2209    0.0345 N   0  0  0  1  0  0  0  0  0  0  0  0
    4.5619   -0.3351   -1.1757 C   0  0  0  1  0  0  0  0  0  0  0  0
    3.6783   -0.1730   -2.4181 C   0  0  0  1  0  0  0  0  0  0  0  0
    3.7011   -1.5303   -3.1100 C   0  0  0  1  0  0  0  0  0  0  0  0
    5.0659   -2.1294   -2.7466 C   0  0  0  1  0  0  0  0  0  0  0  0
    5.1839   -1.7372   -1.2713 C   0  0  0  1  0  0  0  0  0  0  0  0
    6.1740   -1.5191   -3.5705 N   0  0  0  1  0  0  0  0  0  0  0  0
    1.8985    2.1064    3.2163 H   0  0  0  1  0  0  0  0  0  0  0  0
    2.7055    5.1099    3.0094 H   0  0  0  1  0  0  0  0  0  0  0  0
    4.6613    3.0103   -1.7527 H   0  0  0  1  0  0  0  0  0  0  0  0
    6.1460    3.4838   -3.6122 H   0  0  0  1  0  0  0  0  0  0  0  0
    7.6671    6.8090   -1.5485 H   0  0  0  1  0  0  0  0  0  0  0  0
    6.1848    6.3363    0.3080 H   0  0  0  1  0  0  0  0  0  0  0  0
    8.3143    3.5460   -4.7261 H   0  0  0  1  0  0  0  0  0  0  0  0
    8.0950    4.9019   -5.8059 H   0  0  0  1  0  0  0  0  0  0  0  0
    6.7050    4.1202   -5.0910 H   0  0  0  1  0  0  0  0  0  0  0  0
    3.3464   -1.0263    0.4122 H   0  0  0  1  0  0  0  0  0  0  0  0
    5.3290    0.4108   -1.1665 H   0  0  0  1  0  0  0  0  0  0  0  0
    2.6794    0.0864   -2.1357 H   0  0  0  1  0  0  0  0  0  0  0  0
    4.0747    0.5828   -3.0634 H   0  0  0  1  0  0  0  0  0  0  0  0
    2.9082   -2.1513   -2.7487 H   0  0  0  1  0  0  0  0  0  0  0  0
    3.6099   -1.4150   -4.1699 H   0  0  0  1  0  0  0  0  0  0  0  0
    5.0724   -3.1922   -2.8708 H   0  0  0  1  0  0  0  0  0  0  0  0
    6.2105   -1.7134   -0.9706 H   0  0  0  1  0  0  0  0  0  0  0  0
    4.6472   -2.4283   -0.6555 H   0  0  0  1  0  0  0  0  0  0  0  0
    5.9860   -1.6542   -4.5228 H   0  0  0  1  0  0  0  0  0  0  0  0
    7.0250   -1.9478   -3.3417 H   0  0  0  1  0  0  0  0  0  0  0  0
  1  2  4  0  0  0  0
  1  6  4  0  0  0  0
  1 18  1  0  0  0  0
  2  3  4  0  0  0  0
  3  4  4  0  0  0  0
  3 25  1  0  0  0  0
  4  5  4  0  0  0  0
  4  7  4  0  0  0  0
  5  6  4  0  0  0  0
  5  9  4  0  0  0  0
  7  8  4  0  0  0  0
  7 26  1  0  0  0  0
  8  9  4  0  0  0  0
  9 10  1  0  0  0  0
 10 11  4  0  0  0  0
 10 15  4  0  0  0  0
 11 12  4  0  0  0  0
 11 27  1  0  0  0  0
 12 13  4  0  0  0  0
 12 28  1  0  0  0  0
 13 14  4  0  0  0  0
 13 16  1  0  0  0  0
 14 15  4  0  0  0  0
 14 29  1  0  0  0  0
 15 30  1  0  0  0  0
 16 17  1  0  0  0  0
 17 31  1  0  0  0  0
 17 32  1  0  0  0  0
 17 33  1  0  0  0  0
 18 19  1  0  0  0  0
 18 34  1  0  0  0  0
 19 20  1  0  0  0  0
 19 23  1  0  0  0  0
 19 35  1  0  0  0  0
 20 21  1  0  0  0  0
 20 36  1  0  0  0  0
 20 37  1  0  0  0  0
 21 22  1  0  0  0  0
 21 38  1  0  0  0  0
 21 39  1  0  0  0  0
 22 23  1  0  0  0  0
 22 24  1  0  0  0  0
 22 40  1  0  0  0  0
 23 41  1  0  0  0  0
 23 42  1  0  0  0  0
 24 43  1  0  0  0  0
 24 44  1  0  0  0  0
M  END
> <ConfClashScore>
0.000347964 

> <ConfOneFourInteractionScore>
-0.984337 

> <ConfScore>
0.0556138 

> <ConfScorePBest>
0.00184724 

> <ConfTolerance>
0.570134 

$$$$
c22.sdf
 OpenBabel04162418103D

 44 47  0  0  0  0  0  0  0  0999 V2000
    3.0493   -1.4898    0.5852 C   0  0  0  1  0  0  0  0  0  0  0  0
    2.5989   -1.4368    1.8427 N   0  0  0  1  0  0  0  0  0  0  0  0
    1.8028   -2.4359    2.2733 C   0  0  0  1  0  0  0  0  0  0  0  0
    1.4880   -3.4950    1.3728 C   0  0  0  1  0  0  0  0  0  0  0  0
    2.0472   -3.3907    0.1051 C   0  0  0  1  0  0  0  0  0  0  0  0
    2.8431   -2.3972   -0.3573 N   0  0  0  1  0  0  0  0  0  0  0  0
    0.7632   -4.7032    1.3314 C   0  0  0  1  0  0  0  0  0  0  0  0
    0.8548   -5.2874    0.1590 N   0  0  0  1  0  0  0  0  0  0  0  0
    1.6503   -4.4742   -0.5997 N   0  0  0  1  0  0  0  0  0  0  0  0
    2.0100   -4.7321   -1.9432 C   0  0  0  1  0  0  0  0  0  0  0  0
    3.3048   -5.1032   -2.2527 C   0  0  0  1  0  0  0  0  0  0  0  0
    3.6559   -5.3611   -3.5686 C   0  0  0  1  0  0  0  0  0  0  0  0
    2.7126   -5.2420   -4.5718 C   0  0  0  1  0  0  0  0  0  0  0  0
    1.4140   -4.8697   -4.2612 C   0  0  0  1  0  0  0  0  0  0  0  0
    1.0638   -4.6125   -2.9491 C   0  0  0  1  0  0  0  0  0  0  0  0
    3.1214   -5.5027   -5.8362 O   0  0  0  1  0  0  0  0  0  0  0  0
    4.5373   -5.5644   -6.0686 C   0  0  0  1  0  0  0  0  0  0  0  0
    3.8421   -0.4510    0.2165 N   0  0  0  1  0  0  0  0  0  0  0  0
    4.4550   -0.3208   -1.1094 C   0  0  0  1  0  0  0  0  0  0  0  0
    3.3822   -0.3178   -2.1873 C   0  0  0  1  0  0  0  0  0  0  0  0
    4.0667   -0.9889   -3.3910 C   0  0  0  1  0  0  0  0  0  0  0  0
    4.9722   -2.0346   -2.7591 C   0  0  0  1  0  0  0  0  0  0  0  0
    5.3376   -1.5085   -1.3950 C   0  0  0  1  0  0  0  0  0  0  0  0
    6.2002   -2.2226   -3.5865 N   0  0  0  1  0  0  0  0  0  0  0  0
    1.4261   -2.4339    3.2427 H   0  0  0  1  0  0  0  0  0  0  0  0
    0.2213   -5.0856    2.1324 H   0  0  0  1  0  0  0  0  0  0  0  0
    4.0156   -5.1890   -1.4984 H   0  0  0  1  0  0  0  0  0  0  0  0
    4.6292   -5.6444   -3.8011 H   0  0  0  1  0  0  0  0  0  0  0  0
    0.7031   -4.7839   -5.0155 H   0  0  0  1  0  0  0  0  0  0  0  0
    0.0905   -4.3293   -2.7166 H   0  0  0  1  0  0  0  0  0  0  0  0
    4.9326   -6.4568   -5.6303 H   0  0  0  1  0  0  0  0  0  0  0  0
    5.0084   -4.7113   -5.6267 H   0  0  0  1  0  0  0  0  0  0  0  0
    4.7257   -5.5708   -7.1219 H   0  0  0  1  0  0  0  0  0  0  0  0
    4.0149    0.2535    0.8755 H   0  0  0  1  0  0  0  0  0  0  0  0
    5.0255    0.5834   -1.1520 H   0  0  0  1  0  0  0  0  0  0  0  0
    3.0858    0.6821   -2.4266 H   0  0  0  1  0  0  0  0  0  0  0  0
    2.5265   -0.8788   -1.8744 H   0  0  0  1  0  0  0  0  0  0  0  0
    4.6385   -0.2774   -3.9493 H   0  0  0  1  0  0  0  0  0  0  0  0
    3.3440   -1.4485   -4.0324 H   0  0  0  1  0  0  0  0  0  0  0  0
    4.4552   -2.9672   -2.6702 H   0  0  0  1  0  0  0  0  0  0  0  0
    6.3650   -1.2099   -1.3832 H   0  0  0  1  0  0  0  0  0  0  0  0
    5.1776   -2.2669   -0.6574 H   0  0  0  1  0  0  0  0  0  0  0  0
    5.9593   -2.6412   -4.4392 H   0  0  0  1  0  0  0  0  0  0  0  0
    6.8318   -2.7985   -3.1071 H   0  0  0  1  0  0  0  0  0  0  0  0
  1  2  4  0  0  0  0
  1  6  4  0  0  0  0
  1 18  1  0  0  0  0
  2  3  4  0  0  0  0
  3  4  4  0  0  0  0
  3 25  1  0  0  0  0
  4  5  4  0  0  0  0
  4  7  4  0  0  0  0
  5  6  4  0  0  0  0
  5  9  4  0  0  0  0
  7  8  4  0  0  0  0
  7 26  1  0  0  0  0
  8  9  4  0  0  0  0
  9 10  1  0  0  0  0
 10 11  4  0  0  0  0
 10 15  4  0  0  0  0
 11 12  4  0  0  0  0
 11 27  1  0  0  0  0
 12 13  4  0  0  0  0
 12 28  1  0  0  0  0
 13 14  4  0  0  0  0
 13 16  1  0  0  0  0
 14 15  4  0  0  0  0
 14 29  1  0  0  0  0
 15 30  1  0  0  0  0
 16 17  1  0  0  0  0
 17 31  1  0  0  0  0
 17 32  1  0  0  0  0
 17 33  1  0  0  0  0
 18 19  1  0  0  0  0
 18 34  1  0  0  0  0
 19 20  1  0  0  0  0
 19 23  1  0  0  0  0
 19 35  1  0  0  0  0
 20 21  1  0  0  0  0
 20 36  1  0  0  0  0
 20 37  1  0  0  0  0
 21 22  1  0  0  0  0
 21 38  1  0  0  0  0
 21 39  1  0  0  0  0
 22 23  1  0  0  0  0
 22 24  1  0  0  0  0
 22 40  1  0  0  0  0
 23 41  1  0  0  0  0
 23 42  1  0  0  0  0
 24 43  1  0  0  0  0
 24 44  1  0  0  0  0
M  END
> <ConfClashScore>
0 

> <ConfOneFourInteractionScore>
-0.980204 

> <ConfScore>
0.0615792 

> <ConfScorePBest>
0.00183391 

> <ConfTolerance>
0.478639 

$$$$
c22.sdf
 OpenBabel04162418103D

 44 47  0  0  0  0  0  0  0  0999 V2000
    2.4270   -0.6757    0.6842 C   0  0  0  1  0  0  0  0  0  0  0  0
    1.9598    0.5066    0.2706 N   0  0  0  1  0  0  0  0  0  0  0  0
    0.8515    0.9928    0.8643 C   0  0  0  1  0  0  0  0  0  0  0  0
    0.2405    0.2286    1.9009 C   0  0  0  1  0  0  0  0  0  0  0  0
    0.8638   -0.9752    2.2056 C   0  0  0  1  0  0  0  0  0  0  0  0
    1.9716   -1.4919    1.6226 N   0  0  0  1  0  0  0  0  0  0  0  0
   -0.8486    0.2885    2.7937 C   0  0  0  1  0  0  0  0  0  0  0  0
   -0.9031   -0.7699    3.5688 N   0  0  0  1  0  0  0  0  0  0  0  0
    0.1577   -1.5519    3.2042 N   0  0  0  1  0  0  0  0  0  0  0  0
    0.4732   -2.7940    3.7913 C   0  0  0  1  0  0  0  0  0  0  0  0
    1.8040   -3.1651    3.8286 C   0  0  0  1  0  0  0  0  0  0  0  0
    2.1705   -4.3740    4.3994 C   0  0  0  1  0  0  0  0  0  0  0  0
    1.2047   -5.2106    4.9264 C   0  0  0  1  0  0  0  0  0  0  0  0
   -0.1300   -4.8382    4.8889 C   0  0  0  1  0  0  0  0  0  0  0  0
   -0.4956   -3.6329    4.3198 C   0  0  0  1  0  0  0  0  0  0  0  0
    1.4956   -6.4548    5.3749 O   0  0  0  1  0  0  0  0  0  0  0  0
    2.8593   -6.8908    5.2624 C   0  0  0  1  0  0  0  0  0  0  0  0
    3.5323   -1.1032    0.0478 N   0  0  0  1  0  0  0  0  0  0  0  0
    4.3091   -0.4289   -0.9975 C   0  0  0  1  0  0  0  0  0  0  0  0
    3.4517   -0.2654   -2.2841 C   0  0  0  1  0  0  0  0  0  0  0  0
    4.0942   -1.1599   -3.3590 C   0  0  0  1  0  0  0  0  0  0  0  0
    5.0054   -2.1462   -2.6032 C   0  0  0  1  0  0  0  0  0  0  0  0
    5.5459   -1.3004   -1.4008 C   0  0  0  1  0  0  0  0  0  0  0  0
    6.1160   -2.6072   -3.4666 N   0  0  0  1  0  0  0  0  0  0  0  0
    0.4504    1.9068    0.5720 H   0  0  0  1  0  0  0  0  0  0  0  0
   -1.5270    1.0758    2.8336 H   0  0  0  1  0  0  0  0  0  0  0  0
    2.5303   -2.5375    3.4284 H   0  0  0  1  0  0  0  0  0  0  0  0
    3.1723   -4.6515    4.4311 H   0  0  0  1  0  0  0  0  0  0  0  0
   -0.8563   -5.4658    5.2891 H   0  0  0  1  0  0  0  0  0  0  0  0
   -1.4973   -3.3553    4.2881 H   0  0  0  1  0  0  0  0  0  0  0  0
    2.8825   -7.9359    5.0344 H   0  0  0  1  0  0  0  0  0  0  0  0
    3.3667   -6.7167    6.1883 H   0  0  0  1  0  0  0  0  0  0  0  0
    3.3448   -6.3446    4.4809 H   0  0  0  1  0  0  0  0  0  0  0  0
    3.8633   -1.9847    0.3194 H   0  0  0  1  0  0  0  0  0  0  0  0
    4.6303    0.5280   -0.6425 H   0  0  0  1  0  0  0  0  0  0  0  0
    2.4450   -0.5770   -2.0985 H   0  0  0  1  0  0  0  0  0  0  0  0
    3.4564    0.7559   -2.6032 H   0  0  0  1  0  0  0  0  0  0  0  0
    4.6706   -0.5679   -4.0388 H   0  0  0  1  0  0  0  0  0  0  0  0
    3.3392   -1.6914   -3.8998 H   0  0  0  1  0  0  0  0  0  0  0  0
    4.4486   -2.9914   -2.2560 H   0  0  0  1  0  0  0  0  0  0  0  0
    5.8507   -1.9322   -0.5928 H   0  0  0  1  0  0  0  0  0  0  0  0
    6.3676   -0.6850   -1.7025 H   0  0  0  1  0  0  0  0  0  0  0  0
    6.6517   -1.8369   -3.7496 H   0  0  0  1  0  0  0  0  0  0  0  0
    5.7502   -3.0582   -4.2560 H   0  0  0  1  0  0  0  0  0  0  0  0
  1  2  4  0  0  0  0
  1  6  4  0  0  0  0
  1 18  1  0  0  0  0
  2  3  4  0  0  0  0
  3  4  4  0  0  0  0
  3 25  1  0  0  0  0
  4  5  4  0  0  0  0
  4  7  4  0  0  0  0
  5  6  4  0  0  0  0
  5  9  4  0  0  0  0
  7  8  4  0  0  0  0
  7 26  1  0  0  0  0
  8  9  4  0  0  0  0
  9 10  1  0  0  0  0
 10 11  4  0  0  0  0
 10 15  4  0  0  0  0
 11 12  4  0  0  0  0
 11 27  1  0  0  0  0
 12 13  4  0  0  0  0
 12 28  1  0  0  0  0
 13 14  4  0  0  0  0
 13 16  1  0  0  0  0
 14 15  4  0  0  0  0
 14 29  1  0  0  0  0
 15 30  1  0  0  0  0
 16 17  1  0  0  0  0
 17 31  1  0  0  0  0
 17 32  1  0  0  0  0
 17 33  1  0  0  0  0
 18 19  1  0  0  0  0
 18 34  1  0  0  0  0
 19 20  1  0  0  0  0
 19 23  1  0  0  0  0
 19 35  1  0  0  0  0
 20 21  1  0  0  0  0
 20 36  1  0  0  0  0
 20 37  1  0  0  0  0
 21 22  1  0  0  0  0
 21 38  1  0  0  0  0
 21 39  1  0  0  0  0
 22 23  1  0  0  0  0
 22 24  1  0  0  0  0
 22 40  1  0  0  0  0
 23 41  1  0  0  0  0
 23 42  1  0  0  0  0
 24 43  1  0  0  0  0
 24 44  1  0  0  0  0
M  END
> <ConfClashScore>
0 

> <ConfOneFourInteractionScore>
-0.987888 

> <ConfScore>
0.0639523 

> <ConfScorePBest>
0.00182058 

> <ConfTolerance>
0.545497 

$$$$
c22.sdf
 OpenBabel04162418103D

 44 47  0  0  0  0  0  0  0  0999 V2000
    2.8915   -0.7719    0.9876 C   0  0  0  1  0  0  0  0  0  0  0  0
    3.4739    0.3294    1.4726 N   0  0  0  1  0  0  0  0  0  0  0  0
    3.0721    0.7804    2.6778 C   0  0  0  1  0  0  0  0  0  0  0  0
    2.0565    0.0610    3.3726 C   0  0  0  1  0  0  0  0  0  0  0  0
    1.5666   -1.0646    2.7217 C   0  0  0  1  0  0  0  0  0  0  0  0
    1.9449   -1.5368    1.5101 N   0  0  0  1  0  0  0  0  0  0  0  0
    1.3393    0.0972    4.5855 C   0  0  0  1  0  0  0  0  0  0  0  0
    0.4868   -0.8971    4.6783 N   0  0  0  1  0  0  0  0  0  0  0  0
    0.6282   -1.6162    3.5239 N   0  0  0  1  0  0  0  0  0  0  0  0
   -0.1065   -2.7779    3.2116 C   0  0  0  1  0  0  0  0  0  0  0  0
    0.3366   -3.7089    2.2913 C   0  0  0  1  0  0  0  0  0  0  0  0
   -0.4238   -4.8371    2.0259 C   0  0  0  1  0  0  0  0  0  0  0  0
   -1.6275   -5.0284    2.6776 C   0  0  0  1  0  0  0  0  0  0  0  0
   -2.0718   -4.0945    3.6007 C   0  0  0  1  0  0  0  0  0  0  0  0
   -1.3137   -2.9696    3.8654 C   0  0  0  1  0  0  0  0  0  0  0  0
   -2.4556   -6.0847    2.4977 O   0  0  0  1  0  0  0  0  0  0  0  0
   -1.9538   -7.1881    1.7274 C   0  0  0  1  0  0  0  0  0  0  0  0
    3.3365   -1.1645   -0.2196 N   0  0  0  1  0  0  0  0  0  0  0  0
    4.3089   -0.4603   -1.0601 C   0  0  0  1  0  0  0  0  0  0  0  0
    3.7164   -0.1111   -2.4315 C   0  0  0  1  0  0  0  0  0  0  0  0
    3.7547   -1.4183   -3.2132 C   0  0  0  1  0  0  0  0  0  0  0  0
    4.9493   -2.1953   -2.6478 C   0  0  0  1  0  0  0  0  0  0  0  0
    5.4710   -1.3743   -1.4579 C   0  0  0  1  0  0  0  0  0  0  0  0
    6.0079   -2.3347   -3.6804 N   0  0  0  1  0  0  0  0  0  0  0  0
    3.4946    1.6356    3.0921 H   0  0  0  1  0  0  0  0  0  0  0  0
    1.4696    0.8236    5.3183 H   0  0  0  1  0  0  0  0  0  0  0  0
    1.2404   -3.5630    1.7979 H   0  0  0  1  0  0  0  0  0  0  0  0
   -0.0885   -5.5397    1.3363 H   0  0  0  1  0  0  0  0  0  0  0  0
   -2.9756   -4.2404    4.0941 H   0  0  0  1  0  0  0  0  0  0  0  0
   -1.6490   -2.2669    4.5550 H   0  0  0  1  0  0  0  0  0  0  0  0
   -1.3832   -7.8353    2.3603 H   0  0  0  1  0  0  0  0  0  0  0  0
   -1.3303   -6.8189    0.9402 H   0  0  0  1  0  0  0  0  0  0  0  0
   -2.7741   -7.7323    1.3080 H   0  0  0  1  0  0  0  0  0  0  0  0
    2.9748   -2.0044   -0.5718 H   0  0  0  1  0  0  0  0  0  0  0  0
    4.6556    0.4138   -0.5495 H   0  0  0  1  0  0  0  0  0  0  0  0
    2.7102    0.2383   -2.3298 H   0  0  0  1  0  0  0  0  0  0  0  0
    4.3068    0.6370   -2.9181 H   0  0  0  1  0  0  0  0  0  0  0  0
    2.8482   -1.9679   -3.0682 H   0  0  0  1  0  0  0  0  0  0  0  0
    3.8930   -1.2265   -4.2568 H   0  0  0  1  0  0  0  0  0  0  0  0
    4.6392   -3.1658   -2.3210 H   0  0  0  1  0  0  0  0  0  0  0  0
    6.3223   -0.7942   -1.7471 H   0  0  0  1  0  0  0  0  0  0  0  0
    5.7367   -2.0182   -0.6457 H   0  0  0  1  0  0  0  0  0  0  0  0
    6.8313   -2.6629   -3.2625 H   0  0  0  1  0  0  0  0  0  0  0  0
    6.1770   -1.4626   -4.0943 H   0  0  0  1  0  0  0  0  0  0  0  0
  1  2  4  0  0  0  0
  1  6  4  0  0  0  0
  1 18  1  0  0  0  0
  2  3  4  0  0  0  0
  3  4  4  0  0  0  0
  3 25  1  0  0  0  0
  4  5  4  0  0  0  0
  4  7  4  0  0  0  0
  5  6  4  0  0  0  0
  5  9  4  0  0  0  0
  7  8  4  0  0  0  0
  7 26  1  0  0  0  0
  8  9  4  0  0  0  0
  9 10  1  0  0  0  0
 10 11  4  0  0  0  0
 10 15  4  0  0  0  0
 11 12  4  0  0  0  0
 11 27  1  0  0  0  0
 12 13  4  0  0  0  0
 12 28  1  0  0  0  0
 13 14  4  0  0  0  0
 13 16  1  0  0  0  0
 14 15  4  0  0  0  0
 14 29  1  0  0  0  0
 15 30  1  0  0  0  0
 16 17  1  0  0  0  0
 17 31  1  0  0  0  0
 17 32  1  0  0  0  0
 17 33  1  0  0  0  0
 18 19  1  0  0  0  0
 18 34  1  0  0  0  0
 19 20  1  0  0  0  0
 19 23  1  0  0  0  0
 19 35  1  0  0  0  0
 20 21  1  0  0  0  0
 20 36  1  0  0  0  0
 20 37  1  0  0  0  0
 21 22  1  0  0  0  0
 21 38  1  0  0  0  0
 21 39  1  0  0  0  0
 22 23  1  0  0  0  0
 22 24  1  0  0  0  0
 22 40  1  0  0  0  0
 23 41  1  0  0  0  0
 23 42  1  0  0  0  0
 24 43  1  0  0  0  0
 24 44  1  0  0  0  0
M  END
> <ConfClashScore>
0 

> <ConfOneFourInteractionScore>
-0.984337 

> <ConfScore>
0.0645056 

> <ConfScorePBest>
0.00180726 

> <ConfTolerance>
0.546545 

$$$$
c22.sdf
 OpenBabel04162418103D

 44 47  0  0  0  0  0  0  0  0999 V2000
    3.0152   -1.6299    0.4930 C   0  0  0  1  0  0  0  0  0  0  0  0
    2.9807   -2.5751   -0.4516 N   0  0  0  1  0  0  0  0  0  0  0  0
    2.3070   -3.7122   -0.1860 C   0  0  0  1  0  0  0  0  0  0  0  0
    1.6646   -3.8459    1.0794 C   0  0  0  1  0  0  0  0  0  0  0  0
    1.7998   -2.7621    1.9383 C   0  0  0  1  0  0  0  0  0  0  0  0
    2.4751   -1.6121    1.7022 N   0  0  0  1  0  0  0  0  0  0  0  0
    0.8723   -4.7612    1.8015 C   0  0  0  1  0  0  0  0  0  0  0  0
    0.5529   -4.2998    2.9886 N   0  0  0  1  0  0  0  0  0  0  0  0
    1.1275   -3.0618    3.0726 N   0  0  0  1  0  0  0  0  0  0  0  0
    1.0306   -2.2024    4.2040 C   0  0  0  1  0  0  0  0  0  0  0  0
    0.3325   -1.0133    4.1107 C   0  0  0  1  0  0  0  0  0  0  0  0
    0.2338   -0.1794    5.2136 C   0  0  0  1  0  0  0  0  0  0  0  0
    0.8378   -0.5345    6.4050 C   0  0  0  1  0  0  0  0  0  0  0  0
    1.5379   -1.7272    6.4984 C   0  0  0  1  0  0  0  0  0  0  0  0
    1.6365   -2.5588    5.3988 C   0  0  0  1  0  0  0  0  0  0  0  0
    0.6785    0.3577    7.4068 O   0  0  0  1  0  0  0  0  0  0  0  0
    1.2648    0.0916    8.6905 C   0  0  0  1  0  0  0  0  0  0  0  0
    3.7260   -0.4929    0.1549 N   0  0  0  1  0  0  0  0  0  0  0  0
    4.3471   -0.3863   -1.1683 C   0  0  0  1  0  0  0  0  0  0  0  0
    3.2476   -0.4620   -2.2450 C   0  0  0  1  0  0  0  0  0  0  0  0
    4.2043   -1.0007   -3.3209 C   0  0  0  1  0  0  0  0  0  0  0  0
    5.0062   -2.1570   -2.6718 C   0  0  0  1  0  0  0  0  0  0  0  0
    5.3761   -1.5231   -1.3321 C   0  0  0  1  0  0  0  0  0  0  0  0
    6.2251   -2.5045   -3.4750 N   0  0  0  1  0  0  0  0  0  0  0  0
    2.2570   -4.4761   -0.8899 H   0  0  0  1  0  0  0  0  0  0  0  0
    0.5765   -5.6896    1.4380 H   0  0  0  1  0  0  0  0  0  0  0  0
   -0.1186   -0.7441    3.2131 H   0  0  0  1  0  0  0  0  0  0  0  0
   -0.2949    0.7136    5.1446 H   0  0  0  1  0  0  0  0  0  0  0  0
    1.9891   -1.9964    7.3959 H   0  0  0  1  0  0  0  0  0  0  0  0
    2.1652   -3.4517    5.4677 H   0  0  0  1  0  0  0  0  0  0  0  0
    2.3164   -0.0694    8.5764 H   0  0  0  1  0  0  0  0  0  0  0  0
    0.8144   -0.7817    9.1139 H   0  0  0  1  0  0  0  0  0  0  0  0
    1.1003    0.9277    9.3376 H   0  0  0  1  0  0  0  0  0  0  0  0
    3.8144    0.2404    0.7990 H   0  0  0  1  0  0  0  0  0  0  0  0
    4.8512    0.5538   -1.2516 H   0  0  0  1  0  0  0  0  0  0  0  0
    2.4609   -1.1441   -1.9988 H   0  0  0  1  0  0  0  0  0  0  0  0
    2.8295    0.4919   -2.4903 H   0  0  0  1  0  0  0  0  0  0  0  0
    3.6477   -1.3643   -4.1593 H   0  0  0  1  0  0  0  0  0  0  0  0
    4.8696   -0.2268   -3.6424 H   0  0  0  1  0  0  0  0  0  0  0  0
    4.4031   -3.0312   -2.5416 H   0  0  0  1  0  0  0  0  0  0  0  0
    5.2890   -2.2337   -0.5369 H   0  0  0  1  0  0  0  0  0  0  0  0
    6.3728   -1.1346   -1.3563 H   0  0  0  1  0  0  0  0  0  0  0  0
    6.8469   -1.7470   -3.4702 H   0  0  0  1  0  0  0  0  0  0  0  0
    5.9619   -2.7048   -4.3975 H   0  0  0  1  0  0  0  0  0  0  0  0
  1  2  4  0  0  0  0
  1  6  4  0  0  0  0
  1 18  1  0  0  0  0
  2  3  4  0  0  0  0
  3  4  4  0  0  0  0
  3 25  1  0  0  0  0
  4  5  4  0  0  0  0
  4  7  4  0  0  0  0
  5  6  4  0  0  0  0
  5  9  4  0  0  0  0
  7  8  4  0  0  0  0
  7 26  1  0  0  0  0
  8  9  4  0  0  0  0
  9 10  1  0  0  0  0
 10 11  4  0  0  0  0
 10 15  4  0  0  0  0
 11 12  4  0  0  0  0
 11 27  1  0  0  0  0
 12 13  4  0  0  0  0
 12 28  1  0  0  0  0
 13 14  4  0  0  0  0
 13 16  1  0  0  0  0
 14 15  4  0  0  0  0
 14 29  1  0  0  0  0
 15 30  1  0  0  0  0
 16 17  1  0  0  0  0
 17 31  1  0  0  0  0
 17 32  1  0  0  0  0
 17 33  1  0  0  0  0
 18 19  1  0  0  0  0
 18 34  1  0  0  0  0
 19 20  1  0  0  0  0
 19 23  1  0  0  0  0
 19 35  1  0  0  0  0
 20 21  1  0  0  0  0
 20 36  1  0  0  0  0
 20 37  1  0  0  0  0
 21 22  1  0  0  0  0
 21 38  1  0  0  0  0
 21 39  1  0  0  0  0
 22 23  1  0  0  0  0
 22 24  1  0  0  0  0
 22 40  1  0  0  0  0
 23 41  1  0  0  0  0
 23 42  1  0  0  0  0
 24 43  1  0  0  0  0
 24 44  1  0  0  0  0
M  END
> <ConfClashScore>
0 

> <ConfOneFourInteractionScore>
-0.980204 

> <ConfScore>
0.0682155 

> <ConfScorePBest>
0.00179393 

> <ConfTolerance>
0.285401 

$$$$
c22.sdf
 OpenBabel04162418103D

 44 47  0  0  0  0  0  0  0  0999 V2000
    3.2788   -0.8810    0.7949 C   0  0  0  1  0  0  0  0  0  0  0  0
    2.7975   -0.3801    1.9370 N   0  0  0  1  0  0  0  0  0  0  0  0
    1.9755   -1.1553    2.6723 C   0  0  0  1  0  0  0  0  0  0  0  0
    1.6674   -2.4645    2.2002 C   0  0  0  1  0  0  0  0  0  0  0  0
    2.2601   -2.8226    0.9956 C   0  0  0  1  0  0  0  0  0  0  0  0
    3.0826   -2.0640    0.2326 N   0  0  0  1  0  0  0  0  0  0  0  0
    0.9254   -3.6039    2.5714 C   0  0  0  1  0  0  0  0  0  0  0  0
    1.0377   -4.5687    1.6879 N   0  0  0  1  0  0  0  0  0  0  0  0
    1.8645   -4.0843    0.7125 N   0  0  0  1  0  0  0  0  0  0  0  0
    2.2570   -4.8121   -0.4479 C   0  0  0  1  0  0  0  0  0  0  0  0
    2.9358   -6.0089   -0.3174 C   0  0  0  1  0  0  0  0  0  0  0  0
    3.3939   -6.6723   -1.4450 C   0  0  0  1  0  0  0  0  0  0  0  0
    3.1766   -6.1344   -2.6995 C   0  0  0  1  0  0  0  0  0  0  0  0
    2.4959   -4.9340   -2.8302 C   0  0  0  1  0  0  0  0  0  0  0  0
    2.0390   -4.2724   -1.7060 C   0  0  0  1  0  0  0  0  0  0  0  0
    3.5373   -6.8792   -3.7714 O   0  0  0  1  0  0  0  0  0  0  0  0
    4.3892   -8.0095   -3.5284 C   0  0  0  1  0  0  0  0  0  0  0  0
    4.0845   -0.0588    0.1133 N   0  0  0  1  0  0  0  0  0  0  0  0
    4.5455   -0.2379   -1.2671 C   0  0  0  1  0  0  0  0  0  0  0  0
    3.3529   -0.3630   -2.2191 C   0  0  0  1  0  0  0  0  0  0  0  0
    3.9839   -1.1189   -3.3956 C   0  0  0  1  0  0  0  0  0  0  0  0
    4.8757   -2.1698   -2.7461 C   0  0  0  1  0  0  0  0  0  0  0  0
    5.3163   -1.5597   -1.4103 C   0  0  0  1  0  0  0  0  0  0  0  0
    6.0524   -2.4508   -3.6006 N   0  0  0  1  0  0  0  0  0  0  0  0
    1.5744   -0.8053    3.5658 H   0  0  0  1  0  0  0  0  0  0  0  0
    0.3575   -3.6722    3.4400 H   0  0  0  1  0  0  0  0  0  0  0  0
    3.1028   -6.4118    0.6268 H   0  0  0  1  0  0  0  0  0  0  0  0
    3.9011   -7.5750   -1.3470 H   0  0  0  1  0  0  0  0  0  0  0  0
    2.3288   -4.5311   -3.7744 H   0  0  0  1  0  0  0  0  0  0  0  0
    1.5318   -3.3698   -1.8039 H   0  0  0  1  0  0  0  0  0  0  0  0
    5.0437   -8.1495   -4.3632 H   0  0  0  1  0  0  0  0  0  0  0  0
    3.7896   -8.8856   -3.3949 H   0  0  0  1  0  0  0  0  0  0  0  0
    4.9691   -7.8357   -2.6461 H   0  0  0  1  0  0  0  0  0  0  0  0
    4.3975    0.7423    0.5830 H   0  0  0  1  0  0  0  0  0  0  0  0
    5.1638    0.5891   -1.5473 H   0  0  0  1  0  0  0  0  0  0  0  0
    2.9903    0.5975   -2.5204 H   0  0  0  1  0  0  0  0  0  0  0  0
    2.5558   -0.9230   -1.7765 H   0  0  0  1  0  0  0  0  0  0  0  0
    4.5635   -0.4555   -4.0030 H   0  0  0  1  0  0  0  0  0  0  0  0
    3.2284   -1.5832   -3.9944 H   0  0  0  1  0  0  0  0  0  0  0  0
    4.3291   -3.0749   -2.5820 H   0  0  0  1  0  0  0  0  0  0  0  0
    5.0740   -2.2195   -0.6036 H   0  0  0  1  0  0  0  0  0  0  0  0
    6.3703   -1.3754   -1.4167 H   0  0  0  1  0  0  0  0  0  0  0  0
    6.6643   -3.0523   -3.1273 H   0  0  0  1  0  0  0  0  0  0  0  0
    6.5141   -1.6113   -3.8066 H   0  0  0  1  0  0  0  0  0  0  0  0
  1  2  4  0  0  0  0
  1  6  4  0  0  0  0
  1 18  1  0  0  0  0
  2  3  4  0  0  0  0
  3  4  4  0  0  0  0
  3 25  1  0  0  0  0
  4  5  4  0  0  0  0
  4  7  4  0  0  0  0
  5  6  4  0  0  0  0
  5  9  4  0  0  0  0
  7  8  4  0  0  0  0
  7 26  1  0  0  0  0
  8  9  4  0  0  0  0
  9 10  1  0  0  0  0
 10 11  4  0  0  0  0
 10 15  4  0  0  0  0
 11 12  4  0  0  0  0
 11 27  1  0  0  0  0
 12 13  4  0  0  0  0
 12 28  1  0  0  0  0
 13 14  4  0  0  0  0
 13 16  1  0  0  0  0
 14 15  4  0  0  0  0
 14 29  1  0  0  0  0
 15 30  1  0  0  0  0
 16 17  1  0  0  0  0
 17 31  1  0  0  0  0
 17 32  1  0  0  0  0
 17 33  1  0  0  0  0
 18 19  1  0  0  0  0
 18 34  1  0  0  0  0
 19 20  1  0  0  0  0
 19 23  1  0  0  0  0
 19 35  1  0  0  0  0
 20 21  1  0  0  0  0
 20 36  1  0  0  0  0
 20 37  1  0  0  0  0
 21 22  1  0  0  0  0
 21 38  1  0  0  0  0
 21 39  1  0  0  0  0
 22 23  1  0  0  0  0
 22 24  1  0  0  0  0
 22 40  1  0  0  0  0
 23 41  1  0  0  0  0
 23 42  1  0  0  0  0
 24 43  1  0  0  0  0
 24 44  1  0  0  0  0
M  END
> <ConfClashScore>
0 

> <ConfOneFourInteractionScore>
-0.980204 

> <ConfScore>
0.0711264 

> <ConfScorePBest>
0.0017806 

> <ConfTolerance>
0.426879 

$$$$
c22.sdf
 OpenBabel04162418103D

 44 47  0  0  0  0  0  0  0  0999 V2000
    3.4235   -1.8451    0.8743 C   0  0  0  1  0  0  0  0  0  0  0  0
    4.6487   -1.7086    1.3914 N   0  0  0  1  0  0  0  0  0  0  0  0
    4.9268   -2.3547    2.5414 C   0  0  0  1  0  0  0  0  0  0  0  0
    3.9079   -3.1507    3.1414 C   0  0  0  1  0  0  0  0  0  0  0  0
    2.6951   -3.1830    2.4641 C   0  0  0  1  0  0  0  0  0  0  0  0
    2.3849   -2.5399    1.3133 N   0  0  0  1  0  0  0  0  0  0  0  0
    3.7012   -3.9851    4.2585 C   0  0  0  1  0  0  0  0  0  0  0  0
    2.4852   -4.4802    4.2795 N   0  0  0  1  0  0  0  0  0  0  0  0
    1.8629   -3.9832    3.1680 N   0  0  0  1  0  0  0  0  0  0  0  0
    0.5263   -4.2682    2.8031 C   0  0  0  1  0  0  0  0  0  0  0  0
   -0.3279   -4.7109    3.7952 C   0  0  0  1  0  0  0  0  0  0  0  0
   -1.6497   -4.9997    3.4936 C   0  0  0  1  0  0  0  0  0  0  0  0
   -2.1120   -4.8501    2.1997 C   0  0  0  1  0  0  0  0  0  0  0  0
   -1.2551   -4.4060    1.2047 C   0  0  0  1  0  0  0  0  0  0  0  0
    0.0629   -4.1181    1.5053 C   0  0  0  1  0  0  0  0  0  0  0  0
   -3.3695   -5.1037    1.7881 O   0  0  0  1  0  0  0  0  0  0  0  0
   -4.2789   -5.5337    2.8276 C   0  0  0  1  0  0  0  0  0  0  0  0
    3.2118   -1.1691   -0.2751 N   0  0  0  1  0  0  0  0  0  0  0  0
    4.2631   -0.4708   -1.0165 C   0  0  0  1  0  0  0  0  0  0  0  0
    3.7967   -0.0908   -2.4279 C   0  0  0  1  0  0  0  0  0  0  0  0
    3.8806   -1.3868   -3.2246 C   0  0  0  1  0  0  0  0  0  0  0  0
    5.0091   -2.1933   -2.5715 C   0  0  0  1  0  0  0  0  0  0  0  0
    5.4398   -1.3994   -1.3280 C   0  0  0  1  0  0  0  0  0  0  0  0
    6.1688   -2.3386   -3.5270 N   0  0  0  1  0  0  0  0  0  0  0  0
    5.8655   -2.2741    2.9817 H   0  0  0  1  0  0  0  0  0  0  0  0
    4.4243   -4.1845    4.9788 H   0  0  0  1  0  0  0  0  0  0  0  0
    0.0209   -4.8274    4.7680 H   0  0  0  1  0  0  0  0  0  0  0  0
   -2.2936   -5.3290    4.2410 H   0  0  0  1  0  0  0  0  0  0  0  0
   -1.6039   -4.2896    0.2318 H   0  0  0  1  0  0  0  0  0  0  0  0
    0.7068   -3.7888    0.7580 H   0  0  0  1  0  0  0  0  0  0  0  0
   -4.0404   -5.0306    3.7414 H   0  0  0  1  0  0  0  0  0  0  0  0
   -4.1859   -6.5904    2.9678 H   0  0  0  1  0  0  0  0  0  0  0  0
   -5.2830   -5.2981    2.5426 H   0  0  0  1  0  0  0  0  0  0  0  0
    2.3003   -1.1444   -0.6342 H   0  0  0  1  0  0  0  0  0  0  0  0
    4.5789    0.3893   -0.4639 H   0  0  0  1  0  0  0  0  0  0  0  0
    4.4390    0.6537   -2.8498 H   0  0  0  1  0  0  0  0  0  0  0  0
    2.7913    0.2749   -2.4072 H   0  0  0  1  0  0  0  0  0  0  0  0
    4.1113   -1.1821   -4.2492 H   0  0  0  1  0  0  0  0  0  0  0  0
    2.9560   -1.9223   -3.1669 H   0  0  0  1  0  0  0  0  0  0  0  0
    4.6560   -3.1629   -2.2884 H   0  0  0  1  0  0  0  0  0  0  0  0
    5.6240   -2.0600   -0.5066 H   0  0  0  1  0  0  0  0  0  0  0  0
    6.3224   -0.8304   -1.5336 H   0  0  0  1  0  0  0  0  0  0  0  0
    6.5662   -1.4587   -3.6953 H   0  0  0  1  0  0  0  0  0  0  0  0
    5.8501   -2.7198   -4.3717 H   0  0  0  1  0  0  0  0  0  0  0  0
  1  2  4  0  0  0  0
  1  6  4  0  0  0  0
  1 18  1  0  0  0  0
  2  3  4  0  0  0  0
  3  4  4  0  0  0  0
  3 25  1  0  0  0  0
  4  5  4  0  0  0  0
  4  7  4  0  0  0  0
  5  6  4  0  0  0  0
  5  9  4  0  0  0  0
  7  8  4  0  0  0  0
  7 26  1  0  0  0  0
  8  9  4  0  0  0  0
  9 10  1  0  0  0  0
 10 11  4  0  0  0  0
 10 15  4  0  0  0  0
 11 12  4  0  0  0  0
 11 27  1  0  0  0  0
 12 13  4  0  0  0  0
 12 28  1  0  0  0  0
 13 14  4  0  0  0  0
 13 16  1  0  0  0  0
 14 15  4  0  0  0  0
 14 29  1  0  0  0  0
 15 30  1  0  0  0  0
 16 17  1  0  0  0  0
 17 31  1  0  0  0  0
 17 32  1  0  0  0  0
 17 33  1  0  0  0  0
 18 19  1  0  0  0  0
 18 34  1  0  0  0  0
 19 20  1  0  0  0  0
 19 23  1  0  0  0  0
 19 35  1  0  0  0  0
 20 21  1  0  0  0  0
 20 36  1  0  0  0  0
 20 37  1  0  0  0  0
 21 22  1  0  0  0  0
 21 38  1  0  0  0  0
 21 39  1  0  0  0  0
 22 23  1  0  0  0  0
 22 24  1  0  0  0  0
 22 40  1  0  0  0  0
 23 41  1  0  0  0  0
 23 42  1  0  0  0  0
 24 43  1  0  0  0  0
 24 44  1  0  0  0  0
M  END
> <ConfClashScore>
0 

> <ConfOneFourInteractionScore>
-0.985399 

> <ConfScore>
0.0724434 

> <ConfScorePBest>
0.00176727 

> <ConfTolerance>
0.678184 

$$$$
c22.sdf
 OpenBabel04162418103D

 44 47  0  0  0  0  0  0  0  0999 V2000
    3.9121    0.7566    0.9100 C   0  0  0  1  0  0  0  0  0  0  0  0
    5.0014    1.5205    0.7794 N   0  0  0  1  0  0  0  0  0  0  0  0
    5.2086    2.4901    1.6928 C   0  0  0  1  0  0  0  0  0  0  0  0
    4.2641    2.6472    2.7487 C   0  0  0  1  0  0  0  0  0  0  0  0
    3.1933    1.7619    2.7323 C   0  0  0  1  0  0  0  0  0  0  0  0
    2.9554    0.7845    1.8255 N   0  0  0  1  0  0  0  0  0  0  0  0
    4.0375    3.4411    3.8911 C   0  0  0  1  0  0  0  0  0  0  0  0
    2.9373    3.0924    4.5174 N   0  0  0  1  0  0  0  0  0  0  0  0
    2.4152    2.0524    3.7993 N   0  0  0  1  0  0  0  0  0  0  0  0
    1.2202    1.3712    4.1289 C   0  0  0  1  0  0  0  0  0  0  0  0
    0.4674    0.7760    3.1344 C   0  0  0  1  0  0  0  0  0  0  0  0
   -0.7009    0.1038    3.4580 C   0  0  0  1  0  0  0  0  0  0  0  0
   -1.1157    0.0333    4.7746 C   0  0  0  1  0  0  0  0  0  0  0  0
   -0.3605    0.6303    5.7720 C   0  0  0  1  0  0  0  0  0  0  0  0
    0.8044    1.3006    5.4494 C   0  0  0  1  0  0  0  0  0  0  0  0
   -2.3061   -0.5349    5.0811 O   0  0  0  1  0  0  0  0  0  0  0  0
   -2.6398   -0.6486    6.4733 C   0  0  0  1  0  0  0  0  0  0  0  0
    3.7655   -0.1828   -0.0310 N   0  0  0  1  0  0  0  0  0  0  0  0
    4.5865   -0.3460   -1.2318 C   0  0  0  1  0  0  0  0  0  0  0  0
    3.7165   -0.1747   -2.5255 C   0  0  0  1  0  0  0  0  0  0  0  0
    3.6566   -1.5481   -3.2194 C   0  0  0  1  0  0  0  0  0  0  0  0
    5.0055   -2.2141   -2.7858 C   0  0  0  1  0  0  0  0  0  0  0  0
    5.1304   -1.7681   -1.3238 C   0  0  0  1  0  0  0  0  0  0  0  0
    6.1370   -1.7132   -3.5982 N   0  0  0  1  0  0  0  0  0  0  0  0
    6.0406    3.1108    1.6283 H   0  0  0  1  0  0  0  0  0  0  0  0
    4.6656    4.2101    4.2005 H   0  0  0  1  0  0  0  0  0  0  0  0
    0.7774    0.8325    2.1432 H   0  0  0  1  0  0  0  0  0  0  0  0
   -1.2653   -0.3475    2.7102 H   0  0  0  1  0  0  0  0  0  0  0  0
   -0.6705    0.5739    6.7631 H   0  0  0  1  0  0  0  0  0  0  0  0
    1.3689    1.7519    6.1972 H   0  0  0  1  0  0  0  0  0  0  0  0
   -1.8524   -1.1575    6.9889 H   0  0  0  1  0  0  0  0  0  0  0  0
   -3.5499   -1.2016    6.5777 H   0  0  0  1  0  0  0  0  0  0  0  0
   -2.7658    0.3286    6.8906 H   0  0  0  1  0  0  0  0  0  0  0  0
    3.0365   -0.8252    0.0962 H   0  0  0  1  0  0  0  0  0  0  0  0
    5.3863    0.3646   -1.2170 H   0  0  0  1  0  0  0  0  0  0  0  0
    4.1662    0.5455   -3.1767 H   0  0  0  1  0  0  0  0  0  0  0  0
    2.7302    0.1470   -2.2639 H   0  0  0  1  0  0  0  0  0  0  0  0
    2.8180   -2.1171   -2.8761 H   0  0  0  1  0  0  0  0  0  0  0  0
    3.6042   -1.4407   -4.2827 H   0  0  0  1  0  0  0  0  0  0  0  0
    4.9545   -3.2800   -2.8633 H   0  0  0  1  0  0  0  0  0  0  0  0
    4.5610   -2.4187   -0.6934 H   0  0  0  1  0  0  0  0  0  0  0  0
    6.1569   -1.7870   -1.0224 H   0  0  0  1  0  0  0  0  0  0  0  0
    6.9026   -2.3170   -3.5002 H   0  0  0  1  0  0  0  0  0  0  0  0
    6.3871   -0.8165   -3.2919 H   0  0  0  1  0  0  0  0  0  0  0  0
  1  2  4  0  0  0  0
  1  6  4  0  0  0  0
  1 18  1  0  0  0  0
  2  3  4  0  0  0  0
  3  4  4  0  0  0  0
  3 25  1  0  0  0  0
  4  5  4  0  0  0  0
  4  7  4  0  0  0  0
  5  6  4  0  0  0  0
  5  9  4  0  0  0  0
  7  8  4  0  0  0  0
  7 26  1  0  0  0  0
  8  9  4  0  0  0  0
  9 10  1  0  0  0  0
 10 11  4  0  0  0  0
 10 15  4  0  0  0  0
 11 12  4  0  0  0  0
 11 27  1  0  0  0  0
 12 13  4  0  0  0  0
 12 28  1  0  0  0  0
 13 14  4  0  0  0  0
 13 16  1  0  0  0  0
 14 15  4  0  0  0  0
 14 29  1  0  0  0  0
 15 30  1  0  0  0  0
 16 17  1  0  0  0  0
 17 31  1  0  0  0  0
 17 32  1  0  0  0  0
 17 33  1  0  0  0  0
 18 19  1  0  0  0  0
 18 34  1  0  0  0  0
 19 20  1  0  0  0  0
 19 23  1  0  0  0  0
 19 35  1  0  0  0  0
 20 21  1  0  0  0  0
 20 36  1  0  0  0  0
 20 37  1  0  0  0  0
 21 22  1  0  0  0  0
 21 38  1  0  0  0  0
 21 39  1  0  0  0  0
 22 23  1  0  0  0  0
 22 24  1  0  0  0  0
 22 40  1  0  0  0  0
 23 41  1  0  0  0  0
 23 42  1  0  0  0  0
 24 43  1  0  0  0  0
 24 44  1  0  0  0  0
M  END
> <ConfClashScore>
0 

> <ConfOneFourInteractionScore>
-0.984337 

> <ConfScore>
0.0748009 

> <ConfScorePBest>
0.00175394 

> <ConfTolerance>
0.659495 

$$$$
c22.sdf
 OpenBabel04162418103D

 44 47  0  0  0  0  0  0  0  0999 V2000
    3.5791    1.4685    0.0650 C   0  0  0  1  0  0  0  0  0  0  0  0
    3.4259    2.1109   -1.0973 N   0  0  0  1  0  0  0  0  0  0  0  0
    2.8036    3.3067   -1.0833 C   0  0  0  1  0  0  0  0  0  0  0  0
    2.3479    3.8251    0.1639 C   0  0  0  1  0  0  0  0  0  0  0  0
    2.5961    3.0253    1.2726 C   0  0  0  1  0  0  0  0  0  0  0  0
    3.2113    1.8189    1.2882 N   0  0  0  1  0  0  0  0  0  0  0  0
    1.6980    4.9577    0.6944 C   0  0  0  1  0  0  0  0  0  0  0  0
    1.5501    4.8704    1.9962 N   0  0  0  1  0  0  0  0  0  0  0  0
    2.1066    3.6736    2.3535 N   0  0  0  1  0  0  0  0  0  0  0  0
    2.1626    3.1813    3.6731 C   0  0  0  1  0  0  0  0  0  0  0  0
    2.5559    4.0571    4.6673 C   0  0  0  1  0  0  0  0  0  0  0  0
    2.6230    3.6266    5.9832 C   0  0  0  1  0  0  0  0  0  0  0  0
    2.3019    2.3202    6.3004 C   0  0  0  1  0  0  0  0  0  0  0  0
    1.9074    1.4419    5.3031 C   0  0  0  1  0  0  0  0  0  0  0  0
    1.8404    1.8710    3.9910 C   0  0  0  1  0  0  0  0  0  0  0  0
    2.3211    1.7462    7.5268 O   0  0  0  1  0  0  0  0  0  0  0  0
    2.7398    2.5666    8.6288 C   0  0  0  1  0  0  0  0  0  0  0  0
    4.2219    0.2474   -0.0237 N   0  0  0  1  0  0  0  0  0  0  0  0
    4.6660   -0.2513   -1.3283 C   0  0  0  1  0  0  0  0  0  0  0  0
    3.4858   -0.3372   -2.3152 C   0  0  0  1  0  0  0  0  0  0  0  0
    3.8571   -1.4348   -3.3278 C   0  0  0  1  0  0  0  0  0  0  0  0
    5.0012   -2.2673   -2.6833 C   0  0  0  1  0  0  0  0  0  0  0  0
    5.1643   -1.7324   -1.2207 C   0  0  0  1  0  0  0  0  0  0  0  0
    6.2809   -2.0775   -3.4531 N   0  0  0  1  0  0  0  0  0  0  0  0
    2.6590    3.8400   -1.9644 H   0  0  0  1  0  0  0  0  0  0  0  0
    1.3747    5.7649    0.1239 H   0  0  0  1  0  0  0  0  0  0  0  0
    2.8014    5.0390    4.4282 H   0  0  0  1  0  0  0  0  0  0  0  0
    2.9151    4.2867    6.7319 H   0  0  0  1  0  0  0  0  0  0  0  0
    1.6619    0.4600    5.5423 H   0  0  0  1  0  0  0  0  0  0  0  0
    1.5483    1.2110    3.2422 H   0  0  0  1  0  0  0  0  0  0  0  0
    2.1755    3.4757    8.6319 H   0  0  0  1  0  0  0  0  0  0  0  0
    3.7806    2.7935    8.5289 H   0  0  0  1  0  0  0  0  0  0  0  0
    2.5751    2.0417    9.5465 H   0  0  0  1  0  0  0  0  0  0  0  0
    4.3802   -0.2837    0.7846 H   0  0  0  1  0  0  0  0  0  0  0  0
    5.4375    0.3845   -1.7099 H   0  0  0  1  0  0  0  0  0  0  0  0
    3.3506    0.5991   -2.8151 H   0  0  0  1  0  0  0  0  0  0  0  0
    2.5867   -0.5986   -1.7972 H   0  0  0  1  0  0  0  0  0  0  0  0
    3.0104   -2.0597   -3.5215 H   0  0  0  1  0  0  0  0  0  0  0  0
    4.1925   -0.9938   -4.2433 H   0  0  0  1  0  0  0  0  0  0  0  0
    4.7422   -3.3054   -2.6713 H   0  0  0  1  0  0  0  0  0  0  0  0
    6.1870   -1.7720   -0.9088 H   0  0  0  1  0  0  0  0  0  0  0  0
    4.5605   -2.2922   -0.5373 H   0  0  0  1  0  0  0  0  0  0  0  0
    6.8459   -1.4227   -2.9922 H   0  0  0  1  0  0  0  0  0  0  0  0
    6.0745   -1.7534   -4.3547 H   0  0  0  1  0  0  0  0  0  0  0  0
  1  2  4  0  0  0  0
  1  6  4  0  0  0  0
  1 18  1  0  0  0  0
  2  3  4  0  0  0  0
  3  4  4  0  0  0  0
  3 25  1  0  0  0  0
  4  5  4  0  0  0  0
  4  7  4  0  0  0  0
  5  6  4  0  0  0  0
  5  9  4  0  0  0  0
  7  8  4  0  0  0  0
  7 26  1  0  0  0  0
  8  9  4  0  0  0  0
  9 10  1  0  0  0  0
 10 11  4  0  0  0  0
 10 15  4  0  0  0  0
 11 12  4  0  0  0  0
 11 27  1  0  0  0  0
 12 13  4  0  0  0  0
 12 28  1  0  0  0  0
 13 14  4  0  0  0  0
 13 16  1  0  0  0  0
 14 15  4  0  0  0  0
 14 29  1  0  0  0  0
 15 30  1  0  0  0  0
 16 17  1  0  0  0  0
 17 31  1  0  0  0  0
 17 32  1  0  0  0  0
 17 33  1  0  0  0  0
 18 19  1  0  0  0  0
 18 34  1  0  0  0  0
 19 20  1  0  0  0  0
 19 23  1  0  0  0  0
 19 35  1  0  0  0  0
 20 21  1  0  0  0  0
 20 36  1  0  0  0  0
 20 37  1  0  0  0  0
 21 22  1  0  0  0  0
 21 38  1  0  0  0  0
 21 39  1  0  0  0  0
 22 23  1  0  0  0  0
 22 24  1  0  0  0  0
 22 40  1  0  0  0  0
 23 41  1  0  0  0  0
 23 42  1  0  0  0  0
 24 43  1  0  0  0  0
 24 44  1  0  0  0  0
M  END
> <ConfClashScore>
0 

> <ConfOneFourInteractionScore>
-0.981848 

> <ConfScore>
0.0855698 

> <ConfScorePBest>
0.00174062 

> <ConfTolerance>
0.716391 

$$$$
c22.sdf
 OpenBabel04162418103D

 44 47  0  0  0  0  0  0  0  0999 V2000
    2.8154   -1.8980    0.3677 C   0  0  0  1  0  0  0  0  0  0  0  0
    2.7572   -2.7400   -0.6690 N   0  0  0  1  0  0  0  0  0  0  0  0
    2.0201   -3.8606   -0.5346 C   0  0  0  1  0  0  0  0  0  0  0  0
    1.3394   -4.0870    0.6972 C   0  0  0  1  0  0  0  0  0  0  0  0
    1.5073   -3.1041    1.6648 C   0  0  0  1  0  0  0  0  0  0  0  0
    2.2459   -1.9736    1.5611 N   0  0  0  1  0  0  0  0  0  0  0  0
    0.4834   -5.0271    1.3057 C   0  0  0  1  0  0  0  0  0  0  0  0
    0.1574   -4.6715    2.5270 N   0  0  0  1  0  0  0  0  0  0  0  0
    0.7917   -3.4805    2.7485 N   0  0  0  1  0  0  0  0  0  0  0  0
    0.7095   -2.7357    3.9596 C   0  0  0  1  0  0  0  0  0  0  0  0
    0.4286   -3.3803    5.1494 C   0  0  0  1  0  0  0  0  0  0  0  0
    0.3539   -2.6561    6.3290 C   0  0  0  1  0  0  0  0  0  0  0  0
    0.5550   -1.2887    6.3145 C   0  0  0  1  0  0  0  0  0  0  0  0
    0.8367   -0.6424    5.1210 C   0  0  0  1  0  0  0  0  0  0  0  0
    0.9112   -1.3644    3.9448 C   0  0  0  1  0  0  0  0  0  0  0  0
    0.4520   -0.6886    7.5241 O   0  0  0  1  0  0  0  0  0  0  0  0
    0.6891    0.7268    7.5767 C   0  0  0  1  0  0  0  0  0  0  0  0
    3.5670   -0.8075    0.1684 N   0  0  0  1  0  0  0  0  0  0  0  0
    4.3249   -0.4207   -1.0244 C   0  0  0  1  0  0  0  0  0  0  0  0
    3.3933   -0.3255   -2.2373 C   0  0  0  1  0  0  0  0  0  0  0  0
    4.2291   -0.8338   -3.4004 C   0  0  0  1  0  0  0  0  0  0  0  0
    4.9875   -2.0017   -2.7603 C   0  0  0  1  0  0  0  0  0  0  0  0
    5.3651   -1.4964   -1.3651 C   0  0  0  1  0  0  0  0  0  0  0  0
    6.2207   -2.3352   -3.5567 N   0  0  0  1  0  0  0  0  0  0  0  0
    1.9495   -4.5460   -1.3136 H   0  0  0  1  0  0  0  0  0  0  0  0
    0.1503   -5.8971    0.8434 H   0  0  0  1  0  0  0  0  0  0  0  0
    0.2734   -4.4086    5.1598 H   0  0  0  1  0  0  0  0  0  0  0  0
    0.1466   -3.1417    7.2250 H   0  0  0  1  0  0  0  0  0  0  0  0
    0.9920    0.3859    5.1106 H   0  0  0  1  0  0  0  0  0  0  0  0
    1.1186   -0.8788    3.0488 H   0  0  0  1  0  0  0  0  0  0  0  0
    1.6392    0.9465    7.1364 H   0  0  0  1  0  0  0  0  0  0  0  0
    0.6852    1.0512    8.5963 H   0  0  0  1  0  0  0  0  0  0  0  0
   -0.0806    1.2374    7.0365 H   0  0  0  1  0  0  0  0  0  0  0  0
    3.6169   -0.1837    0.9227 H   0  0  0  1  0  0  0  0  0  0  0  0
    4.8065    0.5192   -0.8524 H   0  0  0  1  0  0  0  0  0  0  0  0
    3.0910    0.6874   -2.4032 H   0  0  0  1  0  0  0  0  0  0  0  0
    2.5273   -0.9384   -2.0978 H   0  0  0  1  0  0  0  0  0  0  0  0
    3.6105   -1.1676   -4.2072 H   0  0  0  1  0  0  0  0  0  0  0  0
    4.9019   -0.0807   -3.7541 H   0  0  0  1  0  0  0  0  0  0  0  0
    4.3615   -2.8668   -2.6923 H   0  0  0  1  0  0  0  0  0  0  0  0
    6.3490   -1.0759   -1.3732 H   0  0  0  1  0  0  0  0  0  0  0  0
    5.3238   -2.2950   -0.6542 H   0  0  0  1  0  0  0  0  0  0  0  0
    5.9755   -2.4784   -4.4947 H   0  0  0  1  0  0  0  0  0  0  0  0
    6.6303   -3.1501   -3.1983 H   0  0  0  1  0  0  0  0  0  0  0  0
  1  2  4  0  0  0  0
  1  6  4  0  0  0  0
  1 18  1  0  0  0  0
  2  3  4  0  0  0  0
  3  4  4  0  0  0  0
  3 25  1  0  0  0  0
  4  5  4  0  0  0  0
  4  7  4  0  0  0  0
  5  6  4  0  0  0  0
  5  9  4  0  0  0  0
  7  8  4  0  0  0  0
  7 26  1  0  0  0  0
  8  9  4  0  0  0  0
  9 10  1  0  0  0  0
 10 11  4  0  0  0  0
 10 15  4  0  0  0  0
 11 12  4  0  0  0  0
 11 27  1  0  0  0  0
 12 13  4  0  0  0  0
 12 28  1  0  0  0  0
 13 14  4  0  0  0  0
 13 16  1  0  0  0  0
 14 15  4  0  0  0  0
 14 29  1  0  0  0  0
 15 30  1  0  0  0  0
 16 17  1  0  0  0  0
 17 31  1  0  0  0  0
 17 32  1  0  0  0  0
 17 33  1  0  0  0  0
 18 19  1  0  0  0  0
 18 34  1  0  0  0  0
 19 20  1  0  0  0  0
 19 23  1  0  0  0  0
 19 35  1  0  0  0  0
 20 21  1  0  0  0  0
 20 36  1  0  0  0  0
 20 37  1  0  0  0  0
 21 22  1  0  0  0  0
 21 38  1  0  0  0  0
 21 39  1  0  0  0  0
 22 23  1  0  0  0  0
 22 24  1  0  0  0  0
 22 40  1  0  0  0  0
 23 41  1  0  0  0  0
 23 42  1  0  0  0  0
 24 43  1  0  0  0  0
 24 44  1  0  0  0  0
M  END
> <ConfClashScore>
0 

> <ConfOneFourInteractionScore>
-0.980204 

> <ConfScore>
0.0895098 

> <ConfScorePBest>
0.00172729 

> <ConfTolerance>
0.357274 

$$$$
c22.sdf
 OpenBabel04162418103D

 44 47  0  0  0  0  0  0  0  0999 V2000
    2.9263   -0.5431    1.0562 C   0  0  0  1  0  0  0  0  0  0  0  0
    3.1450    0.7732    1.1383 N   0  0  0  1  0  0  0  0  0  0  0  0
    2.5698    1.4492    2.1529 C   0  0  0  1  0  0  0  0  0  0  0  0
    1.7665    0.7293    3.0848 C   0  0  0  1  0  0  0  0  0  0  0  0
    1.6517   -0.6352    2.8493 C   0  0  0  1  0  0  0  0  0  0  0  0
    2.2110   -1.3392    1.8365 N   0  0  0  1  0  0  0  0  0  0  0  0
    1.0070    0.9426    4.2529 C   0  0  0  1  0  0  0  0  0  0  0  0
    0.4693   -0.1705    4.6955 N   0  0  0  1  0  0  0  0  0  0  0  0
    0.8691   -1.1472    3.8259 N   0  0  0  1  0  0  0  0  0  0  0  0
    0.5084   -2.5235    3.9347 C   0  0  0  1  0  0  0  0  0  0  0  0
    1.4046   -3.5056    3.5575 C   0  0  0  1  0  0  0  0  0  0  0  0
    1.0229   -4.8379    3.5806 C   0  0  0  1  0  0  0  0  0  0  0  0
   -0.2556   -5.1839    3.9757 C   0  0  0  1  0  0  0  0  0  0  0  0
   -1.1544   -4.1987    4.3541 C   0  0  0  1  0  0  0  0  0  0  0  0
   -0.7739   -2.8702    4.3310 C   0  0  0  1  0  0  0  0  0  0  0  0
   -0.6282   -6.4785    3.9932 O   0  0  0  1  0  0  0  0  0  0  0  0
   -1.9255   -6.7342    4.5799 C   0  0  0  1  0  0  0  0  0  0  0  0
    3.5287   -1.1568    0.0153 N   0  0  0  1  0  0  0  0  0  0  0  0
    4.3153   -0.4625   -0.9892 C   0  0  0  1  0  0  0  0  0  0  0  0
    3.4682   -0.2042   -2.2424 C   0  0  0  1  0  0  0  0  0  0  0  0
    4.1956   -0.9233   -3.3819 C   0  0  0  1  0  0  0  0  0  0  0  0
    4.9886   -2.0372   -2.6897 C   0  0  0  1  0  0  0  0  0  0  0  0
    5.4916   -1.3355   -1.4389 C   0  0  0  1  0  0  0  0  0  0  0  0
    6.1120   -2.5021   -3.5341 N   0  0  0  1  0  0  0  0  0  0  0  0
    2.7092    2.4748    2.2536 H   0  0  0  1  0  0  0  0  0  0  0  0
    0.8871    1.8695    4.7090 H   0  0  0  1  0  0  0  0  0  0  0  0
    2.3653   -3.2450    3.2563 H   0  0  0  1  0  0  0  0  0  0  0  0
    1.6985   -5.5773    3.3006 H   0  0  0  1  0  0  0  0  0  0  0  0
   -2.1151   -4.4593    4.6552 H   0  0  0  1  0  0  0  0  0  0  0  0
   -1.4495   -2.1308    4.6110 H   0  0  0  1  0  0  0  0  0  0  0  0
   -1.8885   -6.5327    5.6301 H   0  0  0  1  0  0  0  0  0  0  0  0
   -2.1921   -7.7585    4.4227 H   0  0  0  1  0  0  0  0  0  0  0  0
   -2.6554   -6.1006    4.1209 H   0  0  0  1  0  0  0  0  0  0  0  0
    3.4293   -2.1283   -0.0673 H   0  0  0  1  0  0  0  0  0  0  0  0
    4.6728    0.4622   -0.5865 H   0  0  0  1  0  0  0  0  0  0  0  0
    3.4058    0.8452   -2.4419 H   0  0  0  1  0  0  0  0  0  0  0  0
    2.4833   -0.6030   -2.1169 H   0  0  0  1  0  0  0  0  0  0  0  0
    4.8539   -0.2523   -3.8930 H   0  0  0  1  0  0  0  0  0  0  0  0
    3.4944   -1.3349   -4.0776 H   0  0  0  1  0  0  0  0  0  0  0  0
    4.3596   -2.8671   -2.4437 H   0  0  0  1  0  0  0  0  0  0  0  0
    5.7447   -2.0479   -0.6818 H   0  0  0  1  0  0  0  0  0  0  0  0
    6.3466   -0.7322   -1.6619 H   0  0  0  1  0  0  0  0  0  0  0  0
    5.8346   -2.5070   -4.4740 H   0  0  0  1  0  0  0  0  0  0  0  0
    6.3694   -3.4086   -3.2650 H   0  0  0  1  0  0  0  0  0  0  0  0
  1  2  4  0  0  0  0
  1  6  4  0  0  0  0
  1 18  1  0  0  0  0
  2  3  4  0  0  0  0
  3  4  4  0  0  0  0
  3 25  1  0  0  0  0
  4  5  4  0  0  0  0
  4  7  4  0  0  0  0
  5  6  4  0  0  0  0
  5  9  4  0  0  0  0
  7  8  4  0  0  0  0
  7 26  1  0  0  0  0
  8  9  4  0  0  0  0
  9 10  1  0  0  0  0
 10 11  4  0  0  0  0
 10 15  4  0  0  0  0
 11 12  4  0  0  0  0
 11 27  1  0  0  0  0
 12 13  4  0  0  0  0
 12 28  1  0  0  0  0
 13 14  4  0  0  0  0
 13 16  1  0  0  0  0
 14 15  4  0  0  0  0
 14 29  1  0  0  0  0
 15 30  1  0  0  0  0
 16 17  1  0  0  0  0
 17 31  1  0  0  0  0
 17 32  1  0  0  0  0
 17 33  1  0  0  0  0
 18 19  1  0  0  0  0
 18 34  1  0  0  0  0
 19 20  1  0  0  0  0
 19 23  1  0  0  0  0
 19 35  1  0  0  0  0
 20 21  1  0  0  0  0
 20 36  1  0  0  0  0
 20 37  1  0  0  0  0
 21 22  1  0  0  0  0
 21 38  1  0  0  0  0
 21 39  1  0  0  0  0
 22 23  1  0  0  0  0
 22 24  1  0  0  0  0
 22 40  1  0  0  0  0
 23 41  1  0  0  0  0
 23 42  1  0  0  0  0
 24 43  1  0  0  0  0
 24 44  1  0  0  0  0
M  END
> <ConfClashScore>
0 

> <ConfOneFourInteractionScore>
-0.984337 

> <ConfScore>
0.0908129 

> <ConfScorePBest>
0.00171396 

> <ConfTolerance>
0.742556 

$$$$
c22.sdf
 OpenBabel04162418103D

 44 47  0  0  0  0  0  0  0  0999 V2000
    2.6869    0.3213    0.6538 C   0  0  0  1  0  0  0  0  0  0  0  0
    2.4361    0.2093    1.9621 N   0  0  0  1  0  0  0  0  0  0  0  0
    1.4003    0.9063    2.4707 C   0  0  0  1  0  0  0  0  0  0  0  0
    0.6259    1.7183    1.5916 C   0  0  0  1  0  0  0  0  0  0  0  0
    1.0257    1.7120    0.2610 C   0  0  0  1  0  0  0  0  0  0  0  0
    2.0643    1.0290   -0.2766 N   0  0  0  1  0  0  0  0  0  0  0  0
   -0.4936    2.5746    1.6112 C   0  0  0  1  0  0  0  0  0  0  0  0
   -0.7597    3.0573    0.4194 N   0  0  0  1  0  0  0  0  0  0  0  0
    0.1814    2.5226   -0.4162 N   0  0  0  1  0  0  0  0  0  0  0  0
    0.2616    2.7845   -1.8137 C   0  0  0  1  0  0  0  0  0  0  0  0
    0.3481    1.7355   -2.7094 C   0  0  0  1  0  0  0  0  0  0  0  0
    0.4208    1.9904   -4.0700 C   0  0  0  1  0  0  0  0  0  0  0  0
    0.4121    3.2935   -4.5306 C   0  0  0  1  0  0  0  0  0  0  0  0
    0.3252    4.3454   -3.6321 C   0  0  0  1  0  0  0  0  0  0  0  0
    0.2528    4.0915   -2.2754 C   0  0  0  1  0  0  0  0  0  0  0  0
    0.4829    3.6633   -5.8280 O   0  0  0  1  0  0  0  0  0  0  0  0
    0.5793    2.6553   -6.8464 C   0  0  0  1  0  0  0  0  0  0  0  0
    3.7354   -0.3972    0.2134 N   0  0  0  1  0  0  0  0  0  0  0  0
    4.3823   -0.3620   -1.0920 C   0  0  0  1  0  0  0  0  0  0  0  0
    3.3381   -0.4216   -2.2101 C   0  0  0  1  0  0  0  0  0  0  0  0
    4.1721   -0.9753   -3.3728 C   0  0  0  1  0  0  0  0  0  0  0  0
    5.0443   -2.0543   -2.7432 C   0  0  0  1  0  0  0  0  0  0  0  0
    5.2594   -1.6080   -1.2923 C   0  0  0  1  0  0  0  0  0  0  0  0
    6.3397   -2.1519   -3.4523 N   0  0  0  1  0  0  0  0  0  0  0  0
    1.1709    0.8526    3.4836 H   0  0  0  1  0  0  0  0  0  0  0  0
   -1.0423    2.7972    2.4661 H   0  0  0  1  0  0  0  0  0  0  0  0
    0.3588    0.7551   -2.3627 H   0  0  0  1  0  0  0  0  0  0  0  0
    0.4819    1.2009   -4.7443 H   0  0  0  1  0  0  0  0  0  0  0  0
    0.3146    5.3259   -3.9789 H   0  0  0  1  0  0  0  0  0  0  0  0
    0.1917    4.8809   -1.6011 H   0  0  0  1  0  0  0  0  0  0  0  0
    0.4739    3.1094   -7.8095 H   0  0  0  1  0  0  0  0  0  0  0  0
   -0.1966    1.9319   -6.7065 H   0  0  0  1  0  0  0  0  0  0  0  0
    1.5326    2.1736   -6.7819 H   0  0  0  1  0  0  0  0  0  0  0  0
    4.1158   -1.0300    0.8578 H   0  0  0  1  0  0  0  0  0  0  0  0
    4.9705    0.5280   -1.1753 H   0  0  0  1  0  0  0  0  0  0  0  0
    2.5324   -1.0792   -1.9585 H   0  0  0  1  0  0  0  0  0  0  0  0
    2.9495    0.5496   -2.4349 H   0  0  0  1  0  0  0  0  0  0  0  0
    3.5380   -1.3945   -4.1258 H   0  0  0  1  0  0  0  0  0  0  0  0
    4.7769   -0.2049   -3.8035 H   0  0  0  1  0  0  0  0  0  0  0  0
    4.5482   -3.0018   -2.7738 H   0  0  0  1  0  0  0  0  0  0  0  0
    4.9614   -2.3834   -0.6179 H   0  0  0  1  0  0  0  0  0  0  0  0
    6.2888   -1.3672   -1.1273 H   0  0  0  1  0  0  0  0  0  0  0  0
    6.2909   -1.6510   -4.2932 H   0  0  0  1  0  0  0  0  0  0  0  0
    6.5371   -3.0925   -3.6436 H   0  0  0  1  0  0  0  0  0  0  0  0
  1  2  4  0  0  0  0
  1  6  4  0  0  0  0
  1 18  1  0  0  0  0
  2  3  4  0  0  0  0
  3  4  4  0  0  0  0
  3 25  1  0  0  0  0
  4  5  4  0  0  0  0
  4  7  4  0  0  0  0
  5  6  4  0  0  0  0
  5  9  4  0  0  0  0
  7  8  4  0  0  0  0
  7 26  1  0  0  0  0
  8  9  4  0  0  0  0
  9 10  1  0  0  0  0
 10 11  4  0  0  0  0
 10 15  4  0  0  0  0
 11 12  4  0  0  0  0
 11 27  1  0  0  0  0
 12 13  4  0  0  0  0
 12 28  1  0  0  0  0
 13 14  4  0  0  0  0
 13 16  1  0  0  0  0
 14 15  4  0  0  0  0
 14 29  1  0  0  0  0
 15 30  1  0  0  0  0
 16 17  1  0  0  0  0
 17 31  1  0  0  0  0
 17 32  1  0  0  0  0
 17 33  1  0  0  0  0
 18 19  1  0  0  0  0
 18 34  1  0  0  0  0
 19 20  1  0  0  0  0
 19 23  1  0  0  0  0
 19 35  1  0  0  0  0
 20 21  1  0  0  0  0
 20 36  1  0  0  0  0
 20 37  1  0  0  0  0
 21 22  1  0  0  0  0
 21 38  1  0  0  0  0
 21 39  1  0  0  0  0
 22 23  1  0  0  0  0
 22 24  1  0  0  0  0
 22 40  1  0  0  0  0
 23 41  1  0  0  0  0
 23 42  1  0  0  0  0
 24 43  1  0  0  0  0
 24 44  1  0  0  0  0
M  END
> <ConfClashScore>
0 

> <ConfOneFourInteractionScore>
-0.985399 

> <ConfScore>
0.0933106 

> <ConfScorePBest>
0.00170063 

> <ConfTolerance>
0.640744 

$$$$
c22.sdf
 OpenBabel04162418103D

 44 47  0  0  0  0  0  0  0  0999 V2000
    3.2077   -0.2321    0.7868 C   0  0  0  1  0  0  0  0  0  0  0  0
    2.5953   -1.3246    0.3194 N   0  0  0  1  0  0  0  0  0  0  0  0
    1.6072   -1.8636    1.0614 C   0  0  0  1  0  0  0  0  0  0  0  0
    1.2637   -1.2415    2.2971 C   0  0  0  1  0  0  0  0  0  0  0  0
    2.0012   -0.1105    2.6247 C   0  0  0  1  0  0  0  0  0  0  0  0
    3.0023    0.4488    1.9042 N   0  0  0  1  0  0  0  0  0  0  0  0
    0.3586   -1.3851    3.3681 C   0  0  0  1  0  0  0  0  0  0  0  0
    0.5194   -0.4464    4.2720 N   0  0  0  1  0  0  0  0  0  0  0  0
    1.5365    0.3426    3.8109 N   0  0  0  1  0  0  0  0  0  0  0  0
    2.0345    1.4773    4.4828 C   0  0  0  1  0  0  0  0  0  0  0  0
    1.3651    2.6864    4.4898 C   0  0  0  1  0  0  0  0  0  0  0  0
    1.8978    3.7694    5.1716 C   0  0  0  1  0  0  0  0  0  0  0  0
    3.1009    3.6417    5.8399 C   0  0  0  1  0  0  0  0  0  0  0  0
    3.7721    2.4289    5.8328 C   0  0  0  1  0  0  0  0  0  0  0  0
    3.2411    1.3489    5.1530 C   0  0  0  1  0  0  0  0  0  0  0  0
    3.6333    4.7375    6.3931 O   0  0  0  1  0  0  0  0  0  0  0  0
    2.9791    6.0471    6.2935 C   0  0  0  1  0  0  0  0  0  0  0  0
    4.1811    0.2492    0.0027 N   0  0  0  1  0  0  0  0  0  0  0  0
    4.6743   -0.2744   -1.2738 C   0  0  0  1  0  0  0  0  0  0  0  0
    3.5841   -0.2554   -2.3365 C   0  0  0  1  0  0  0  0  0  0  0  0
    3.9669   -1.3088   -3.3670 C   0  0  0  1  0  0  0  0  0  0  0  0
    4.9709   -2.2321   -2.6736 C   0  0  0  1  0  0  0  0  0  0  0  0
    5.0098   -1.8091   -1.1699 C   0  0  0  1  0  0  0  0  0  0  0  0
    6.3113   -2.0752   -3.2817 N   0  0  0  1  0  0  0  0  0  0  0  0
    1.1059   -2.7158    0.7388 H   0  0  0  1  0  0  0  0  0  0  0  0
   -0.3507   -2.1428    3.4343 H   0  0  0  1  0  0  0  0  0  0  0  0
    0.4618    2.7838    3.9836 H   0  0  0  1  0  0  0  0  0  0  0  0
    1.3921    4.6782    5.1802 H   0  0  0  1  0  0  0  0  0  0  0  0
    4.6754    2.3315    6.3389 H   0  0  0  1  0  0  0  0  0  0  0  0
    3.7467    0.4402    5.1443 H   0  0  0  1  0  0  0  0  0  0  0  0
    3.7121    6.8207    6.3890 H   0  0  0  1  0  0  0  0  0  0  0  0
    2.2547    6.1439    7.0750 H   0  0  0  1  0  0  0  0  0  0  0  0
    2.4935    6.1315    5.3438 H   0  0  0  1  0  0  0  0  0  0  0  0
    4.6233    1.0615    0.3267 H   0  0  0  1  0  0  0  0  0  0  0  0
    5.5290    0.2894   -1.5847 H   0  0  0  1  0  0  0  0  0  0  0  0
    3.5327    0.7096   -2.7960 H   0  0  0  1  0  0  0  0  0  0  0  0
    2.6372   -0.4935   -1.8988 H   0  0  0  1  0  0  0  0  0  0  0  0
    3.1029   -1.8615   -3.6720 H   0  0  0  1  0  0  0  0  0  0  0  0
    4.4155   -0.8470   -4.2216 H   0  0  0  1  0  0  0  0  0  0  0  0
    4.6559   -3.2509   -2.7615 H   0  0  0  1  0  0  0  0  0  0  0  0
    4.2740   -2.3331   -0.5964 H   0  0  0  1  0  0  0  0  0  0  0  0
    5.9774   -1.9706   -0.7424 H   0  0  0  1  0  0  0  0  0  0  0  0
    6.5271   -1.1222   -3.3566 H   0  0  0  1  0  0  0  0  0  0  0  0
    6.3149   -2.4817   -4.1734 H   0  0  0  1  0  0  0  0  0  0  0  0
  1  2  4  0  0  0  0
  1  6  4  0  0  0  0
  1 18  1  0  0  0  0
  2  3  4  0  0  0  0
  3  4  4  0  0  0  0
  3 25  1  0  0  0  0
  4  5  4  0  0  0  0
  4  7  4  0  0  0  0
  5  6  4  0  0  0  0
  5  9  4  0  0  0  0
  7  8  4  0  0  0  0
  7 26  1  0  0  0  0
  8  9  4  0  0  0  0
  9 10  1  0  0  0  0
 10 11  4  0  0  0  0
 10 15  4  0  0  0  0
 11 12  4  0  0  0  0
 11 27  1  0  0  0  0
 12 13  4  0  0  0  0
 12 28  1  0  0  0  0
 13 14  4  0  0  0  0
 13 16  1  0  0  0  0
 14 15  4  0  0  0  0
 14 29  1  0  0  0  0
 15 30  1  0  0  0  0
 16 17  1  0  0  0  0
 17 31  1  0  0  0  0
 17 32  1  0  0  0  0
 17 33  1  0  0  0  0
 18 19  1  0  0  0  0
 18 34  1  0  0  0  0
 19 20  1  0  0  0  0
 19 23  1  0  0  0  0
 19 35  1  0  0  0  0
 20 21  1  0  0  0  0
 20 36  1  0  0  0  0
 20 37  1  0  0  0  0
 21 22  1  0  0  0  0
 21 38  1  0  0  0  0
 21 39  1  0  0  0  0
 22 23  1  0  0  0  0
 22 24  1  0  0  0  0
 22 40  1  0  0  0  0
 23 41  1  0  0  0  0
 23 42  1  0  0  0  0
 24 43  1  0  0  0  0
 24 44  1  0  0  0  0
M  END
> <ConfClashScore>
0 

> <ConfOneFourInteractionScore>
-0.980204 

> <ConfScore>
0.10093 

> <ConfScorePBest>
0.0016873 

> <ConfTolerance>
0.517201 

$$$$
c22.sdf
 OpenBabel04162418103D

 44 47  0  0  0  0  0  0  0  0999 V2000
    4.8735    0.3653    1.1450 C   0  0  0  1  0  0  0  0  0  0  0  0
    4.1927    0.9380    2.1428 N   0  0  0  1  0  0  0  0  0  0  0  0
    4.8219    1.1100    3.3225 C   0  0  0  1  0  0  0  0  0  0  0  0
    6.1755    0.6799    3.4438 C   0  0  0  1  0  0  0  0  0  0  0  0
    6.7283    0.1097    2.3037 C   0  0  0  1  0  0  0  0  0  0  0  0
    6.1196   -0.0823    1.1092 N   0  0  0  1  0  0  0  0  0  0  0  0
    7.2215    0.6457    4.3881 C   0  0  0  1  0  0  0  0  0  0  0  0
    8.3099    0.1048    3.8913 N   0  0  0  1  0  0  0  0  0  0  0  0
    8.0038   -0.2267    2.6005 N   0  0  0  1  0  0  0  0  0  0  0  0
    8.9081   -0.8441    1.6900 C   0  0  0  1  0  0  0  0  0  0  0  0
    9.9519   -1.6138    2.1678 C   0  0  0  1  0  0  0  0  0  0  0  0
   10.8289   -2.2192    1.2814 C   0  0  0  1  0  0  0  0  0  0  0  0
   10.6628   -2.0487   -0.0801 C   0  0  0  1  0  0  0  0  0  0  0  0
    9.6159   -1.2767   -0.5593 C   0  0  0  1  0  0  0  0  0  0  0  0
    8.7414   -0.6731    0.3245 C   0  0  0  1  0  0  0  0  0  0  0  0
   11.4540   -2.5830   -1.0360 O   0  0  0  1  0  0  0  0  0  0  0  0
   12.7026   -3.1872   -0.6641 C   0  0  0  1  0  0  0  0  0  0  0  0
    4.1855    0.2209   -0.0019 N   0  0  0  1  0  0  0  0  0  0  0  0
    4.6576   -0.2557   -1.2957 C   0  0  0  1  0  0  0  0  0  0  0  0
    3.5013   -0.3246   -2.3119 C   0  0  0  1  0  0  0  0  0  0  0  0
    3.8956   -1.4071   -3.3321 C   0  0  0  1  0  0  0  0  0  0  0  0
    5.0229   -2.2511   -2.6732 C   0  0  0  1  0  0  0  0  0  0  0  0
    5.1514   -1.7390   -1.1990 C   0  0  0  1  0  0  0  0  0  0  0  0
    6.2928   -2.0558   -3.3931 N   0  0  0  1  0  0  0  0  0  0  0  0
    4.3299    1.5475    4.1275 H   0  0  0  1  0  0  0  0  0  0  0  0
    7.1409    1.0054    5.3605 H   0  0  0  1  0  0  0  0  0  0  0  0
   10.0793   -1.7388    3.1924 H   0  0  0  1  0  0  0  0  0  0  0  0
   11.6119   -2.8016    1.6408 H   0  0  0  1  0  0  0  0  0  0  0  0
    9.4885   -1.1517   -1.5838 H   0  0  0  1  0  0  0  0  0  0  0  0
    7.9583   -0.0906   -0.0348 H   0  0  0  1  0  0  0  0  0  0  0  0
   13.1866   -2.5820    0.0737 H   0  0  0  1  0  0  0  0  0  0  0  0
   13.3305   -3.2678   -1.5267 H   0  0  0  1  0  0  0  0  0  0  0  0
   12.5211   -4.1621   -0.2622 H   0  0  0  1  0  0  0  0  0  0  0  0
    3.2385    0.4699    0.0380 H   0  0  0  1  0  0  0  0  0  0  0  0
    5.4388    0.3847   -1.6489 H   0  0  0  1  0  0  0  0  0  0  0  0
    3.3793    0.6195   -2.8004 H   0  0  0  1  0  0  0  0  0  0  0  0
    2.5898   -0.5925   -1.8197 H   0  0  0  1  0  0  0  0  0  0  0  0
    3.0530   -2.0276   -3.5557 H   0  0  0  1  0  0  0  0  0  0  0  0
    4.2533   -0.9526   -4.2323 H   0  0  0  1  0  0  0  0  0  0  0  0
    4.7625   -3.2889   -2.6833 H   0  0  0  1  0  0  0  0  0  0  0  0
    6.1663   -1.7850   -0.8634 H   0  0  0  1  0  0  0  0  0  0  0  0
    4.5307   -2.3083   -0.5390 H   0  0  0  1  0  0  0  0  0  0  0  0
    6.6463   -1.1632   -3.1966 H   0  0  0  1  0  0  0  0  0  0  0  0
    6.1379   -2.1407   -4.3571 H   0  0  0  1  0  0  0  0  0  0  0  0
  1  2  4  0  0  0  0
  1  6  4  0  0  0  0
  1 18  1  0  0  0  0
  2  3  4  0  0  0  0
  3  4  4  0  0  0  0
  3 25  1  0  0  0  0
  4  5  4  0  0  0  0
  4  7  4  0  0  0  0
  5  6  4  0  0  0  0
  5  9  4  0  0  0  0
  7  8  4  0  0  0  0
  7 26  1  0  0  0  0
  8  9  4  0  0  0  0
  9 10  1  0  0  0  0
 10 11  4  0  0  0  0
 10 15  4  0  0  0  0
 11 12  4  0  0  0  0
 11 27  1  0  0  0  0
 12 13  4  0  0  0  0
 12 28  1  0  0  0  0
 13 14  4  0  0  0  0
 13 16  1  0  0  0  0
 14 15  4  0  0  0  0
 14 29  1  0  0  0  0
 15 30  1  0  0  0  0
 16 17  1  0  0  0  0
 17 31  1  0  0  0  0
 17 32  1  0  0  0  0
 17 33  1  0  0  0  0
 18 19  1  0  0  0  0
 18 34  1  0  0  0  0
 19 20  1  0  0  0  0
 19 23  1  0  0  0  0
 19 35  1  0  0  0  0
 20 21  1  0  0  0  0
 20 36  1  0  0  0  0
 20 37  1  0  0  0  0
 21 22  1  0  0  0  0
 21 38  1  0  0  0  0
 21 39  1  0  0  0  0
 22 23  1  0  0  0  0
 22 24  1  0  0  0  0
 22 40  1  0  0  0  0
 23 41  1  0  0  0  0
 23 42  1  0  0  0  0
 24 43  1  0  0  0  0
 24 44  1  0  0  0  0
M  END
> <ConfClashScore>
0 

> <ConfOneFourInteractionScore>
-0.985399 

> <ConfScore>
0.110679 

> <ConfScorePBest>
0.00167397 

> <ConfTolerance>
0.392848 

$$$$
c22.sdf
 OpenBabel04162418103D

 44 47  0  0  0  0  0  0  0  0999 V2000
    3.4333   -0.9614    0.8416 C   0  0  0  1  0  0  0  0  0  0  0  0
    3.1982   -0.6402    2.1178 N   0  0  0  1  0  0  0  0  0  0  0  0
    2.5198   -1.5223    2.8787 C   0  0  0  1  0  0  0  0  0  0  0  0
    2.0947   -2.7483    2.2887 C   0  0  0  1  0  0  0  0  0  0  0  0
    2.4299   -2.9183    0.9510 C   0  0  0  1  0  0  0  0  0  0  0  0
    3.1031   -2.0484    0.1608 N   0  0  0  1  0  0  0  0  0  0  0  0
    1.4145   -3.9356    2.6270 C   0  0  0  1  0  0  0  0  0  0  0  0
    1.3283   -4.7567    1.6060 N   0  0  0  1  0  0  0  0  0  0  0  0
    1.9575   -4.1261    0.5686 N   0  0  0  1  0  0  0  0  0  0  0  0
    2.0957   -4.6656   -0.7317 C   0  0  0  1  0  0  0  0  0  0  0  0
    3.3447   -4.7431   -1.3184 C   0  0  0  1  0  0  0  0  0  0  0  0
    3.4808   -5.2766   -2.5905 C   0  0  0  1  0  0  0  0  0  0  0  0
    2.3670   -5.7263   -3.2743 C   0  0  0  1  0  0  0  0  0  0  0  0
    1.1144   -5.6484   -2.6857 C   0  0  0  1  0  0  0  0  0  0  0  0
    0.9785   -5.1164   -1.4173 C   0  0  0  1  0  0  0  0  0  0  0  0
    2.5281   -6.1379   -4.5543 O   0  0  0  1  0  0  0  0  0  0  0  0
    1.3400   -6.4549   -5.2961 C   0  0  0  1  0  0  0  0  0  0  0  0
    4.1175   -0.0273    0.1326 N   0  0  0  1  0  0  0  0  0  0  0  0
    4.5722   -0.2202   -1.2388 C   0  0  0  1  0  0  0  0  0  0  0  0
    3.3861   -0.4691   -2.2046 C   0  0  0  1  0  0  0  0  0  0  0  0
    3.9779   -1.0550   -3.4966 C   0  0  0  1  0  0  0  0  0  0  0  0
    4.8426   -2.0865   -2.7468 C   0  0  0  1  0  0  0  0  0  0  0  0
    5.3420   -1.5300   -1.3982 C   0  0  0  1  0  0  0  0  0  0  0  0
    6.0130   -2.4358   -3.5870 N   0  0  0  1  0  0  0  0  0  0  0  0
    2.3108   -1.3127    3.8756 H   0  0  0  1  0  0  0  0  0  0  0  0
    1.0276   -4.1369    3.5712 H   0  0  0  1  0  0  0  0  0  0  0  0
    4.1823   -4.4011   -0.8055 H   0  0  0  1  0  0  0  0  0  0  0  0
    4.4211   -5.3387   -3.0304 H   0  0  0  1  0  0  0  0  0  0  0  0
    0.2767   -5.9904   -3.1985 H   0  0  0  1  0  0  0  0  0  0  0  0
    0.0382   -5.0544   -0.9773 H   0  0  0  1  0  0  0  0  0  0  0  0
    0.5322   -5.8411   -4.9562 H   0  0  0  1  0  0  0  0  0  0  0  0
    1.0916   -7.4851   -5.1480 H   0  0  0  1  0  0  0  0  0  0  0  0
    1.5110   -6.2748   -6.3369 H   0  0  0  1  0  0  0  0  0  0  0  0
    4.3175    0.8273    0.5687 H   0  0  0  1  0  0  0  0  0  0  0  0
    5.1585    0.6217   -1.5425 H   0  0  0  1  0  0  0  0  0  0  0  0
    2.8834    0.4518   -2.4148 H   0  0  0  1  0  0  0  0  0  0  0  0
    2.6961   -1.1613   -1.7691 H   0  0  0  1  0  0  0  0  0  0  0  0
    4.5535   -0.3480   -4.0567 H   0  0  0  1  0  0  0  0  0  0  0  0
    3.2434   -1.5020   -4.1334 H   0  0  0  1  0  0  0  0  0  0  0  0
    4.2582   -2.9643   -2.5658 H   0  0  0  1  0  0  0  0  0  0  0  0
    5.1154   -2.2051   -0.5996 H   0  0  0  1  0  0  0  0  0  0  0  0
    6.3967   -1.3514   -1.4264 H   0  0  0  1  0  0  0  0  0  0  0  0
    6.5319   -3.1417   -3.1480 H   0  0  0  1  0  0  0  0  0  0  0  0
    6.5767   -1.6432   -3.7073 H   0  0  0  1  0  0  0  0  0  0  0  0
  1  2  4  0  0  0  0
  1  6  4  0  0  0  0
  1 18  1  0  0  0  0
  2  3  4  0  0  0  0
  3  4  4  0  0  0  0
  3 25  1  0  0  0  0
  4  5  4  0  0  0  0
  4  7  4  0  0  0  0
  5  6  4  0  0  0  0
  5  9  4  0  0  0  0
  7  8  4  0  0  0  0
  7 26  1  0  0  0  0
  8  9  4  0  0  0  0
  9 10  1  0  0  0  0
 10 11  4  0  0  0  0
 10 15  4  0  0  0  0
 11 12  4  0  0  0  0
 11 27  1  0  0  0  0
 12 13  4  0  0  0  0
 12 28  1  0  0  0  0
 13 14  4  0  0  0  0
 13 16  1  0  0  0  0
 14 15  4  0  0  0  0
 14 29  1  0  0  0  0
 15 30  1  0  0  0  0
 16 17  1  0  0  0  0
 17 31  1  0  0  0  0
 17 32  1  0  0  0  0
 17 33  1  0  0  0  0
 18 19  1  0  0  0  0
 18 34  1  0  0  0  0
 19 20  1  0  0  0  0
 19 23  1  0  0  0  0
 19 35  1  0  0  0  0
 20 21  1  0  0  0  0
 20 36  1  0  0  0  0
 20 37  1  0  0  0  0
 21 22  1  0  0  0  0
 21 38  1  0  0  0  0
 21 39  1  0  0  0  0
 22 23  1  0  0  0  0
 22 24  1  0  0  0  0
 22 40  1  0  0  0  0
 23 41  1  0  0  0  0
 23 42  1  0  0  0  0
 24 43  1  0  0  0  0
 24 44  1  0  0  0  0
M  END
> <ConfClashScore>
7.06781e-05 

> <ConfOneFourInteractionScore>
-0.980204 

> <ConfScore>
0.120476 

> <ConfScorePBest>
0.00166065 

> <ConfTolerance>
0.350316 

$$$$
c22.sdf
 OpenBabel04162418103D

 44 47  0  0  0  0  0  0  0  0999 V2000
    3.0806   -0.4794    0.6836 C   0  0  0  1  0  0  0  0  0  0  0  0
    2.4588   -1.4569    0.0166 N   0  0  0  1  0  0  0  0  0  0  0  0
    1.3766   -2.0240    0.5864 C   0  0  0  1  0  0  0  0  0  0  0  0
    0.9493   -1.5515    1.8615 C   0  0  0  1  0  0  0  0  0  0  0  0
    1.7110   -0.5254    2.4071 C   0  0  0  1  0  0  0  0  0  0  0  0
    2.8051    0.0580    1.8624 N   0  0  0  1  0  0  0  0  0  0  0  0
   -0.0609   -1.7770    2.8182 C   0  0  0  1  0  0  0  0  0  0  0  0
    0.0618   -0.9802    3.8547 N   0  0  0  1  0  0  0  0  0  0  0  0
    1.1591   -0.2054    3.5993 N   0  0  0  1  0  0  0  0  0  0  0  0
    1.6548    0.8043    4.4727 C   0  0  0  1  0  0  0  0  0  0  0  0
    1.8255    2.0954    4.0100 C   0  0  0  1  0  0  0  0  0  0  0  0
    2.3029    3.0793    4.8617 C   0  0  0  1  0  0  0  0  0  0  0  0
    2.6133    2.7682    6.1721 C   0  0  0  1  0  0  0  0  0  0  0  0
    2.4421    1.4732    6.6361 C   0  0  0  1  0  0  0  0  0  0  0  0
    1.9661    0.4920    5.7869 C   0  0  0  1  0  0  0  0  0  0  0  0
    3.0754    3.8079    6.9065 O   0  0  0  1  0  0  0  0  0  0  0  0
    3.4181    3.5430    8.2758 C   0  0  0  1  0  0  0  0  0  0  0  0
    4.1538    0.0394    0.0602 N   0  0  0  1  0  0  0  0  0  0  0  0
    4.6498   -0.3285   -1.2598 C   0  0  0  1  0  0  0  0  0  0  0  0
    3.5315   -0.2360   -2.3035 C   0  0  0  1  0  0  0  0  0  0  0  0
    3.7626   -1.3933   -3.2844 C   0  0  0  1  0  0  0  0  0  0  0  0
    5.0214   -2.1071   -2.7840 C   0  0  0  1  0  0  0  0  0  0  0  0
    5.0755   -1.7872   -1.2861 C   0  0  0  1  0  0  0  0  0  0  0  0
    6.2349   -1.5849   -3.4787 N   0  0  0  1  0  0  0  0  0  0  0  0
    0.8640   -2.7905    0.1054 H   0  0  0  1  0  0  0  0  0  0  0  0
   -0.8126   -2.4884    2.7156 H   0  0  0  1  0  0  0  0  0  0  0  0
    1.5958    2.3286    3.0229 H   0  0  0  1  0  0  0  0  0  0  0  0
    2.4276    4.0517    4.5146 H   0  0  0  1  0  0  0  0  0  0  0  0
    2.6718    1.2399    7.6232 H   0  0  0  1  0  0  0  0  0  0  0  0
    1.8414   -0.4804    6.1340 H   0  0  0  1  0  0  0  0  0  0  0  0
    4.2382    2.8567    8.3124 H   0  0  0  1  0  0  0  0  0  0  0  0
    2.5747    3.1178    8.7785 H   0  0  0  1  0  0  0  0  0  0  0  0
    3.6969    4.4573    8.7567 H   0  0  0  1  0  0  0  0  0  0  0  0
    4.6512    0.7333    0.5413 H   0  0  0  1  0  0  0  0  0  0  0  0
    5.4675    0.3088   -1.5245 H   0  0  0  1  0  0  0  0  0  0  0  0
    3.5812    0.7011   -2.8177 H   0  0  0  1  0  0  0  0  0  0  0  0
    2.5759   -0.3347   -1.8324 H   0  0  0  1  0  0  0  0  0  0  0  0
    2.9266   -2.0611   -3.2784 H   0  0  0  1  0  0  0  0  0  0  0  0
    3.9137   -1.0191   -4.2753 H   0  0  0  1  0  0  0  0  0  0  0  0
    4.9456   -3.1626   -2.9425 H   0  0  0  1  0  0  0  0  0  0  0  0
    6.0649   -1.9105   -0.8978 H   0  0  0  1  0  0  0  0  0  0  0  0
    4.3956   -2.4007   -0.7328 H   0  0  0  1  0  0  0  0  0  0  0  0
    6.3389   -2.0387   -4.3411 H   0  0  0  1  0  0  0  0  0  0  0  0
    7.0257   -1.7520   -2.9245 H   0  0  0  1  0  0  0  0  0  0  0  0
  1  2  4  0  0  0  0
  1  6  4  0  0  0  0
  1 18  1  0  0  0  0
  2  3  4  0  0  0  0
  3  4  4  0  0  0  0
  3 25  1  0  0  0  0
  4  5  4  0  0  0  0
  4  7  4  0  0  0  0
  5  6  4  0  0  0  0
  5  9  4  0  0  0  0
  7  8  4  0  0  0  0
  7 26  1  0  0  0  0
  8  9  4  0  0  0  0
  9 10  1  0  0  0  0
 10 11  4  0  0  0  0
 10 15  4  0  0  0  0
 11 12  4  0  0  0  0
 11 27  1  0  0  0  0
 12 13  4  0  0  0  0
 12 28  1  0  0  0  0
 13 14  4  0  0  0  0
 13 16  1  0  0  0  0
 14 15  4  0  0  0  0
 14 29  1  0  0  0  0
 15 30  1  0  0  0  0
 16 17  1  0  0  0  0
 17 31  1  0  0  0  0
 17 32  1  0  0  0  0
 17 33  1  0  0  0  0
 18 19  1  0  0  0  0
 18 34  1  0  0  0  0
 19 20  1  0  0  0  0
 19 23  1  0  0  0  0
 19 35  1  0  0  0  0
 20 21  1  0  0  0  0
 20 36  1  0  0  0  0
 20 37  1  0  0  0  0
 21 22  1  0  0  0  0
 21 38  1  0  0  0  0
 21 39  1  0  0  0  0
 22 23  1  0  0  0  0
 22 24  1  0  0  0  0
 22 40  1  0  0  0  0
 23 41  1  0  0  0  0
 23 42  1  0  0  0  0
 24 43  1  0  0  0  0
 24 44  1  0  0  0  0
M  END
> <ConfClashScore>
0 

> <ConfOneFourInteractionScore>
-0.980204 

> <ConfScore>
0.127204 

> <ConfScorePBest>
0.00164732 

> <ConfTolerance>
0.328884 

$$$$
c22.sdf
 OpenBabel04162418103D

 44 47  0  0  0  0  0  0  0  0999 V2000
    3.4420   -1.7539    0.9201 C   0  0  0  1  0  0  0  0  0  0  0  0
    2.3343   -2.2676    1.4641 N   0  0  0  1  0  0  0  0  0  0  0  0
    2.4441   -2.8954    2.6521 C   0  0  0  1  0  0  0  0  0  0  0  0
    3.7276   -2.9743    3.2670 C   0  0  0  1  0  0  0  0  0  0  0  0
    4.7678   -2.3809    2.5625 C   0  0  0  1  0  0  0  0  0  0  0  0
    4.6891   -1.7507    1.3663 N   0  0  0  1  0  0  0  0  0  0  0  0
    4.3416   -3.4721    4.4340 C   0  0  0  1  0  0  0  0  0  0  0  0
    5.6305   -3.2218    4.4522 N   0  0  0  1  0  0  0  0  0  0  0  0
    5.8936   -2.5458    3.2930 N   0  0  0  1  0  0  0  0  0  0  0  0
    7.1628   -2.0849    2.9124 C   0  0  0  1  0  0  0  0  0  0  0  0
    8.1238   -1.6195    3.7898 C   0  0  0  1  0  0  0  0  0  0  0  0
    9.3513   -1.1907    3.3094 C   0  0  0  1  0  0  0  0  0  0  0  0
    9.6123   -1.2235    1.9525 C   0  0  0  1  0  0  0  0  0  0  0  0
    8.6482   -1.6903    1.0726 C   0  0  0  1  0  0  0  0  0  0  0  0
    7.4242   -2.1179    1.5515 C   0  0  0  1  0  0  0  0  0  0  0  0
   10.8410   -0.7754    1.6014 O   0  0  0  1  0  0  0  0  0  0  0  0
   11.1565   -0.7552    0.2005 C   0  0  0  1  0  0  0  0  0  0  0  0
    3.2631   -1.1485   -0.2593 N   0  0  0  1  0  0  0  0  0  0  0  0
    4.2828   -0.4657   -1.0453 C   0  0  0  1  0  0  0  0  0  0  0  0
    3.7697   -0.1168   -2.4484 C   0  0  0  1  0  0  0  0  0  0  0  0
    3.8327   -1.4290   -3.2203 C   0  0  0  1  0  0  0  0  0  0  0  0
    4.9847   -2.2181   -2.5873 C   0  0  0  1  0  0  0  0  0  0  0  0
    5.4524   -1.3970   -1.3753 C   0  0  0  1  0  0  0  0  0  0  0  0
    6.0970   -2.3774   -3.5620 N   0  0  0  1  0  0  0  0  0  0  0  0
    1.6094   -3.3135    3.1104 H   0  0  0  1  0  0  0  0  0  0  0  0
    3.8351   -3.9767    5.1893 H   0  0  0  1  0  0  0  0  0  0  0  0
    7.9261   -1.5910    4.8105 H   0  0  0  1  0  0  0  0  0  0  0  0
   10.0760   -0.8442    3.9700 H   0  0  0  1  0  0  0  0  0  0  0  0
    8.8459   -1.7188    0.0519 H   0  0  0  1  0  0  0  0  0  0  0  0
    6.6995   -2.4643    0.8909 H   0  0  0  1  0  0  0  0  0  0  0  0
   11.3610   -1.7508   -0.1340 H   0  0  0  1  0  0  0  0  0  0  0  0
   12.0172   -0.1407    0.0378 H   0  0  0  1  0  0  0  0  0  0  0  0
   10.3263   -0.3590   -0.3461 H   0  0  0  1  0  0  0  0  0  0  0  0
    2.3567   -1.1658   -0.6315 H   0  0  0  1  0  0  0  0  0  0  0  0
    4.6131    0.4067   -0.5212 H   0  0  0  1  0  0  0  0  0  0  0  0
    4.3953    0.6206   -2.9063 H   0  0  0  1  0  0  0  0  0  0  0  0
    2.7642    0.2462   -2.4029 H   0  0  0  1  0  0  0  0  0  0  0  0
    4.0295   -1.2450   -4.2558 H   0  0  0  1  0  0  0  0  0  0  0  0
    2.9125   -1.9659   -3.1215 H   0  0  0  1  0  0  0  0  0  0  0  0
    4.6446   -3.1826   -2.2728 H   0  0  0  1  0  0  0  0  0  0  0  0
    6.3257   -0.8297   -1.6211 H   0  0  0  1  0  0  0  0  0  0  0  0
    5.6654   -2.0396   -0.5467 H   0  0  0  1  0  0  0  0  0  0  0  0
    6.8459   -1.8019   -3.3008 H   0  0  0  1  0  0  0  0  0  0  0  0
    5.7864   -2.1233   -4.4561 H   0  0  0  1  0  0  0  0  0  0  0  0
  1  2  4  0  0  0  0
  1  6  4  0  0  0  0
  1 18  1  0  0  0  0
  2  3  4  0  0  0  0
  3  4  4  0  0  0  0
  3 25  1  0  0  0  0
  4  5  4  0  0  0  0
  4  7  4  0  0  0  0
  5  6  4  0  0  0  0
  5  9  4  0  0  0  0
  7  8  4  0  0  0  0
  7 26  1  0  0  0  0
  8  9  4  0  0  0  0
  9 10  1  0  0  0  0
 10 11  4  0  0  0  0
 10 15  4  0  0  0  0
 11 12  4  0  0  0  0
 11 27  1  0  0  0  0
 12 13  4  0  0  0  0
 12 28  1  0  0  0  0
 13 14  4  0  0  0  0
 13 16  1  0  0  0  0
 14 15  4  0  0  0  0
 14 29  1  0  0  0  0
 15 30  1  0  0  0  0
 16 17  1  0  0  0  0
 17 31  1  0  0  0  0
 17 32  1  0  0  0  0
 17 33  1  0  0  0  0
 18 19  1  0  0  0  0
 18 34  1  0  0  0  0
 19 20  1  0  0  0  0
 19 23  1  0  0  0  0
 19 35  1  0  0  0  0
 20 21  1  0  0  0  0
 20 36  1  0  0  0  0
 20 37  1  0  0  0  0
 21 22  1  0  0  0  0
 21 38  1  0  0  0  0
 21 39  1  0  0  0  0
 22 23  1  0  0  0  0
 22 24  1  0  0  0  0
 22 40  1  0  0  0  0
 23 41  1  0  0  0  0
 23 42  1  0  0  0  0
 24 43  1  0  0  0  0
 24 44  1  0  0  0  0
M  END
> <ConfClashScore>
0 

> <ConfOneFourInteractionScore>
-0.985399 

> <ConfScore>
0.13802 

> <ConfScorePBest>
0.00163399 

> <ConfTolerance>
0.604132 

$$$$
c22.sdf
 OpenBabel04162418103D

 44 47  0  0  0  0  0  0  0  0999 V2000
    3.2042   -1.3597    0.7928 C   0  0  0  1  0  0  0  0  0  0  0  0
    2.9676   -2.3850   -0.0317 N   0  0  0  1  0  0  0  0  0  0  0  0
    2.2674   -3.4334    0.4456 C   0  0  0  1  0  0  0  0  0  0  0  0
    1.8125   -3.3933    1.7960 C   0  0  0  1  0  0  0  0  0  0  0  0
    2.1449   -2.2469    2.5071 C   0  0  0  1  0  0  0  0  0  0  0  0
    2.8519   -1.1829    2.0572 N   0  0  0  1  0  0  0  0  0  0  0  0
    1.0777   -4.1685    2.7157 C   0  0  0  1  0  0  0  0  0  0  0  0
    0.9692   -3.5715    3.8801 N   0  0  0  1  0  0  0  0  0  0  0  0
    1.6301   -2.3816    3.7501 N   0  0  0  1  0  0  0  0  0  0  0  0
    1.7591   -1.4130    4.7861 C   0  0  0  1  0  0  0  0  0  0  0  0
    1.6336   -0.0680    4.4940 C   0  0  0  1  0  0  0  0  0  0  0  0
    1.7538    0.8745    5.5033 C   0  0  0  1  0  0  0  0  0  0  0  0
    2.0045    0.4696    6.8009 C   0  0  0  1  0  0  0  0  0  0  0  0
    2.1303   -0.8795    7.0937 C   0  0  0  1  0  0  0  0  0  0  0  0
    2.0105   -1.8193    6.0873 C   0  0  0  1  0  0  0  0  0  0  0  0
    2.1064    1.4729    7.6941 O   0  0  0  1  0  0  0  0  0  0  0  0
    2.4056    1.0594    9.0476 C   0  0  0  1  0  0  0  0  0  0  0  0
    3.9105   -0.3495    0.2540 N   0  0  0  1  0  0  0  0  0  0  0  0
    4.4384   -0.2875   -1.1141 C   0  0  0  1  0  0  0  0  0  0  0  0
    3.3279   -0.4651   -2.1348 C   0  0  0  1  0  0  0  0  0  0  0  0
    4.0022   -1.0415   -3.3768 C   0  0  0  1  0  0  0  0  0  0  0  0
    5.0278   -2.0222   -2.7768 C   0  0  0  1  0  0  0  0  0  0  0  0
    5.3707   -1.4762   -1.3996 C   0  0  0  1  0  0  0  0  0  0  0  0
    6.2408   -2.0809   -3.6241 N   0  0  0  1  0  0  0  0  0  0  0  0
    2.0633   -4.2547   -0.1589 H   0  0  0  1  0  0  0  0  0  0  0  0
    0.6708   -5.1006    2.4983 H   0  0  0  1  0  0  0  0  0  0  0  0
    1.4490    0.2370    3.5170 H   0  0  0  1  0  0  0  0  0  0  0  0
    1.6554    1.8864    5.2843 H   0  0  0  1  0  0  0  0  0  0  0  0
    2.3149   -1.1845    8.0706 H   0  0  0  1  0  0  0  0  0  0  0  0
    2.1089   -2.8312    6.3064 H   0  0  0  1  0  0  0  0  0  0  0  0
    2.0556    0.0601    9.2015 H   0  0  0  1  0  0  0  0  0  0  0  0
    1.9193    1.7175    9.7371 H   0  0  0  1  0  0  0  0  0  0  0  0
    3.4633    1.0948    9.2056 H   0  0  0  1  0  0  0  0  0  0  0  0
    4.0903    0.4211    0.8320 H   0  0  0  1  0  0  0  0  0  0  0  0
    4.9472    0.6425   -1.2588 H   0  0  0  1  0  0  0  0  0  0  0  0
    2.5853   -1.1410   -1.7651 H   0  0  0  1  0  0  0  0  0  0  0  0
    2.8731    0.4770   -2.3598 H   0  0  0  1  0  0  0  0  0  0  0  0
    4.4872   -0.2747   -3.9441 H   0  0  0  1  0  0  0  0  0  0  0  0
    3.2963   -1.5526   -3.9975 H   0  0  0  1  0  0  0  0  0  0  0  0
    4.6024   -3.0005   -2.6937 H   0  0  0  1  0  0  0  0  0  0  0  0
    6.3899   -1.1507   -1.3817 H   0  0  0  1  0  0  0  0  0  0  0  0
    5.2257   -2.2368   -0.6611 H   0  0  0  1  0  0  0  0  0  0  0  0
    6.0161   -2.4816   -4.4897 H   0  0  0  1  0  0  0  0  0  0  0  0
    6.9235   -2.6257   -3.1795 H   0  0  0  1  0  0  0  0  0  0  0  0
  1  2  4  0  0  0  0
  1  6  4  0  0  0  0
  1 18  1  0  0  0  0
  2  3  4  0  0  0  0
  3  4  4  0  0  0  0
  3 25  1  0  0  0  0
  4  5  4  0  0  0  0
  4  7  4  0  0  0  0
  5  6  4  0  0  0  0
  5  9  4  0  0  0  0
  7  8  4  0  0  0  0
  7 26  1  0  0  0  0
  8  9  4  0  0  0  0
  9 10  1  0  0  0  0
 10 11  4  0  0  0  0
 10 15  4  0  0  0  0
 11 12  4  0  0  0  0
 11 27  1  0  0  0  0
 12 13  4  0  0  0  0
 12 28  1  0  0  0  0
 13 14  4  0  0  0  0
 13 16  1  0  0  0  0
 14 15  4  0  0  0  0
 14 29  1  0  0  0  0
 15 30  1  0  0  0  0
 16 17  1  0  0  0  0
 17 31  1  0  0  0  0
 17 32  1  0  0  0  0
 17 33  1  0  0  0  0
 18 19  1  0  0  0  0
 18 34  1  0  0  0  0
 19 20  1  0  0  0  0
 19 23  1  0  0  0  0
 19 35  1  0  0  0  0
 20 21  1  0  0  0  0
 20 36  1  0  0  0  0
 20 37  1  0  0  0  0
 21 22  1  0  0  0  0
 21 38  1  0  0  0  0
 21 39  1  0  0  0  0
 22 23  1  0  0  0  0
 22 24  1  0  0  0  0
 22 40  1  0  0  0  0
 23 41  1  0  0  0  0
 23 42  1  0  0  0  0
 24 43  1  0  0  0  0
 24 44  1  0  0  0  0
M  END
> <ConfClashScore>
0 

> <ConfOneFourInteractionScore>
-0.980204 

> <ConfScore>
0.140526 

> <ConfScorePBest>
0.00162066 

> <ConfTolerance>
0.472177 

$$$$
c22.sdf
 OpenBabel04162418103D

 44 47  0  0  0  0  0  0  0  0999 V2000
    3.0973   -1.4904    0.6573 C   0  0  0  1  0  0  0  0  0  0  0  0
    3.0654   -2.5509   -0.1560 N   0  0  0  1  0  0  0  0  0  0  0  0
    2.4347   -3.6615    0.2753 C   0  0  0  1  0  0  0  0  0  0  0  0
    1.8324   -3.6470    1.5672 C   0  0  0  1  0  0  0  0  0  0  0  0
    1.9583   -2.4577    2.2744 C   0  0  0  1  0  0  0  0  0  0  0  0
    2.5909   -1.3303    1.8706 N   0  0  0  1  0  0  0  0  0  0  0  0
    1.0893   -4.4818    2.4261 C   0  0  0  1  0  0  0  0  0  0  0  0
    0.7892   -3.8790    3.5533 N   0  0  0  1  0  0  0  0  0  0  0  0
    1.3275   -2.6256    3.4586 N   0  0  0  1  0  0  0  0  0  0  0  0
    1.2359   -1.6289    4.4728 C   0  0  0  1  0  0  0  0  0  0  0  0
    2.3490   -1.3149    5.2296 C   0  0  0  1  0  0  0  0  0  0  0  0
    2.2919   -0.2794    6.1494 C   0  0  0  1  0  0  0  0  0  0  0  0
    1.1204    0.4354    6.3136 C   0  0  0  1  0  0  0  0  0  0  0  0
    0.0042    0.1203    5.5546 C   0  0  0  1  0  0  0  0  0  0  0  0
    0.0610   -0.9121    4.6374 C   0  0  0  1  0  0  0  0  0  0  0  0
    0.9739    1.3656    7.2869 O   0  0  0  1  0  0  0  0  0  0  0  0
    2.1039    1.6063    8.1399 C   0  0  0  1  0  0  0  0  0  0  0  0
    3.7448   -0.4182    0.1666 N   0  0  0  1  0  0  0  0  0  0  0  0
    4.4170   -0.3285   -1.1236 C   0  0  0  1  0  0  0  0  0  0  0  0
    3.3866   -0.3673   -2.2683 C   0  0  0  1  0  0  0  0  0  0  0  0
    4.1471   -1.0925   -3.3753 C   0  0  0  1  0  0  0  0  0  0  0  0
    4.9425   -2.1814   -2.6766 C   0  0  0  1  0  0  0  0  0  0  0  0
    5.3200   -1.5337   -1.3342 C   0  0  0  1  0  0  0  0  0  0  0  0
    6.1639   -2.5401   -3.4610 N   0  0  0  1  0  0  0  0  0  0  0  0
    2.3886   -4.5115   -0.3222 H   0  0  0  1  0  0  0  0  0  0  0  0
    0.8122   -5.4572    2.1950 H   0  0  0  1  0  0  0  0  0  0  0  0
    3.2293   -1.8553    5.1089 H   0  0  0  1  0  0  0  0  0  0  0  0
    3.1306   -0.0405    6.7160 H   0  0  0  1  0  0  0  0  0  0  0  0
   -0.8762    0.6608    5.6752 H   0  0  0  1  0  0  0  0  0  0  0  0
   -0.7778   -1.1511    4.0708 H   0  0  0  1  0  0  0  0  0  0  0  0
    2.9775    1.7585    7.5411 H   0  0  0  1  0  0  0  0  0  0  0  0
    2.2534    0.7622    8.7803 H   0  0  0  1  0  0  0  0  0  0  0  0
    1.9228    2.4777    8.7340 H   0  0  0  1  0  0  0  0  0  0  0  0
    3.7668    0.3815    0.7326 H   0  0  0  1  0  0  0  0  0  0  0  0
    4.9874    0.5758   -1.1671 H   0  0  0  1  0  0  0  0  0  0  0  0
    3.1101    0.6205   -2.5728 H   0  0  0  1  0  0  0  0  0  0  0  0
    2.5108   -0.9109   -1.9813 H   0  0  0  1  0  0  0  0  0  0  0  0
    3.4642   -1.5215   -4.0785 H   0  0  0  1  0  0  0  0  0  0  0  0
    4.8039   -0.4167   -3.8819 H   0  0  0  1  0  0  0  0  0  0  0  0
    4.3451   -3.0562   -2.5259 H   0  0  0  1  0  0  0  0  0  0  0  0
    6.3431   -1.2212   -1.3570 H   0  0  0  1  0  0  0  0  0  0  0  0
    5.1788   -2.2364   -0.5397 H   0  0  0  1  0  0  0  0  0  0  0  0
    6.8585   -1.8651   -3.3117 H   0  0  0  1  0  0  0  0  0  0  0  0
    5.9411   -2.5738   -4.4148 H   0  0  0  1  0  0  0  0  0  0  0  0
  1  2  4  0  0  0  0
  1  6  4  0  0  0  0
  1 18  1  0  0  0  0
  2  3  4  0  0  0  0
  3  4  4  0  0  0  0
  3 25  1  0  0  0  0
  4  5  4  0  0  0  0
  4  7  4  0  0  0  0
  5  6  4  0  0  0  0
  5  9  4  0  0  0  0
  7  8  4  0  0  0  0
  7 26  1  0  0  0  0
  8  9  4  0  0  0  0
  9 10  1  0  0  0  0
 10 11  4  0  0  0  0
 10 15  4  0  0  0  0
 11 12  4  0  0  0  0
 11 27  1  0  0  0  0
 12 13  4  0  0  0  0
 12 28  1  0  0  0  0
 13 14  4  0  0  0  0
 13 16  1  0  0  0  0
 14 15  4  0  0  0  0
 14 29  1  0  0  0  0
 15 30  1  0  0  0  0
 16 17  1  0  0  0  0
 17 31  1  0  0  0  0
 17 32  1  0  0  0  0
 17 33  1  0  0  0  0
 18 19  1  0  0  0  0
 18 34  1  0  0  0  0
 19 20  1  0  0  0  0
 19 23  1  0  0  0  0
 19 35  1  0  0  0  0
 20 21  1  0  0  0  0
 20 36  1  0  0  0  0
 20 37  1  0  0  0  0
 21 22  1  0  0  0  0
 21 38  1  0  0  0  0
 21 39  1  0  0  0  0
 22 23  1  0  0  0  0
 22 24  1  0  0  0  0
 22 40  1  0  0  0  0
 23 41  1  0  0  0  0
 23 42  1  0  0  0  0
 24 43  1  0  0  0  0
 24 44  1  0  0  0  0
M  END
> <ConfClashScore>
0 

> <ConfOneFourInteractionScore>
-0.982693 

> <ConfScore>
0.143049 

> <ConfScorePBest>
0.00160733 

> <ConfTolerance>
0.550747 

$$$$
c22.sdf
 OpenBabel04162418103D

 44 47  0  0  0  0  0  0  0  0999 V2000
    4.4108   -0.2235    1.1592 C   0  0  0  1  0  0  0  0  0  0  0  0
    5.6166   -0.8004    1.1740 N   0  0  0  1  0  0  0  0  0  0  0  0
    6.2159   -0.9857    2.3672 C   0  0  0  1  0  0  0  0  0  0  0  0
    5.5349   -0.5646    3.5465 C   0  0  0  1  0  0  0  0  0  0  0  0
    4.2868    0.0117    3.3450 C   0  0  0  1  0  0  0  0  0  0  0  0
    3.6636    0.2171    2.1602 N   0  0  0  1  0  0  0  0  0  0  0  0
    5.7021   -0.5443    4.9459 C   0  0  0  1  0  0  0  0  0  0  0  0
    4.6698   -0.0057    5.5530 N   0  0  0  1  0  0  0  0  0  0  0  0
    3.7938    0.3382    4.5610 N   0  0  0  1  0  0  0  0  0  0  0  0
    2.5277    0.9590    4.7799 C   0  0  0  1  0  0  0  0  0  0  0  0
    1.3582    0.4534    4.2446 C   0  0  0  1  0  0  0  0  0  0  0  0
    0.1410    1.0325    4.5680 C   0  0  0  1  0  0  0  0  0  0  0  0
    0.0973    2.1188    5.4214 C   0  0  0  1  0  0  0  0  0  0  0  0
    1.2705    2.6258    5.9582 C   0  0  0  1  0  0  0  0  0  0  0  0
    2.4842    2.0485    5.6359 C   0  0  0  1  0  0  0  0  0  0  0  0
   -1.0275    2.7684    5.8043 O   0  0  0  1  0  0  0  0  0  0  0  0
   -0.8613    4.0050    6.5154 C   0  0  0  1  0  0  0  0  0  0  0  0
    3.8645   -0.0635   -0.0805 N   0  0  0  1  0  0  0  0  0  0  0  0
    4.6193   -0.3529   -1.2931 C   0  0  0  1  0  0  0  0  0  0  0  0
    3.7268   -0.1941   -2.5313 C   0  0  0  1  0  0  0  0  0  0  0  0
    3.7103   -1.5597   -3.2262 C   0  0  0  1  0  0  0  0  0  0  0  0
    4.9972   -2.2316   -2.7763 C   0  0  0  1  0  0  0  0  0  0  0  0
    5.0753   -1.8147   -1.3036 C   0  0  0  1  0  0  0  0  0  0  0  0
    6.1613   -1.7294   -3.5398 N   0  0  0  1  0  0  0  0  0  0  0  0
    7.1558   -1.4269    2.4261 H   0  0  0  1  0  0  0  0  0  0  0  0
    6.5414   -0.9115    5.4381 H   0  0  0  1  0  0  0  0  0  0  0  0
    1.3913   -0.3615    3.5993 H   0  0  0  1  0  0  0  0  0  0  0  0
   -0.7395    0.6495    4.1684 H   0  0  0  1  0  0  0  0  0  0  0  0
    1.2374    3.4407    6.6035 H   0  0  0  1  0  0  0  0  0  0  0  0
    3.3647    2.4315    6.0355 H   0  0  0  1  0  0  0  0  0  0  0  0
   -0.4105    4.7301    5.8705 H   0  0  0  1  0  0  0  0  0  0  0  0
   -0.2325    3.8451    7.3663 H   0  0  0  1  0  0  0  0  0  0  0  0
   -1.8169    4.3611    6.8393 H   0  0  0  1  0  0  0  0  0  0  0  0
    2.9407    0.2543   -0.1577 H   0  0  0  1  0  0  0  0  0  0  0  0
    5.4630    0.3024   -1.3537 H   0  0  0  1  0  0  0  0  0  0  0  0
    4.1302    0.5500   -3.1859 H   0  0  0  1  0  0  0  0  0  0  0  0
    2.7358    0.0856   -2.2403 H   0  0  0  1  0  0  0  0  0  0  0  0
    3.6968   -1.4425   -4.2897 H   0  0  0  1  0  0  0  0  0  0  0  0
    2.8587   -2.1300   -2.9189 H   0  0  0  1  0  0  0  0  0  0  0  0
    4.9361   -3.2951   -2.8766 H   0  0  0  1  0  0  0  0  0  0  0  0
    4.4248   -2.4177   -0.7051 H   0  0  0  1  0  0  0  0  0  0  0  0
    6.0777   -1.9005   -0.9392 H   0  0  0  1  0  0  0  0  0  0  0  0
    6.9836   -2.1205   -3.1774 H   0  0  0  1  0  0  0  0  0  0  0  0
    6.2038   -0.7531   -3.4656 H   0  0  0  1  0  0  0  0  0  0  0  0
  1  2  4  0  0  0  0
  1  6  4  0  0  0  0
  1 18  1  0  0  0  0
  2  3  4  0  0  0  0
  3  4  4  0  0  0  0
  3 25  1  0  0  0  0
  4  5  4  0  0  0  0
  4  7  4  0  0  0  0
  5  6  4  0  0  0  0
  5  9  4  0  0  0  0
  7  8  4  0  0  0  0
  7 26  1  0  0  0  0
  8  9  4  0  0  0  0
  9 10  1  0  0  0  0
 10 11  4  0  0  0  0
 10 15  4  0  0  0  0
 11 12  4  0  0  0  0
 11 27  1  0  0  0  0
 12 13  4  0  0  0  0
 12 28  1  0  0  0  0
 13 14  4  0  0  0  0
 13 16  1  0  0  0  0
 14 15  4  0  0  0  0
 14 29  1  0  0  0  0
 15 30  1  0  0  0  0
 16 17  1  0  0  0  0
 17 31  1  0  0  0  0
 17 32  1  0  0  0  0
 17 33  1  0  0  0  0
 18 19  1  0  0  0  0
 18 34  1  0  0  0  0
 19 20  1  0  0  0  0
 19 23  1  0  0  0  0
 19 35  1  0  0  0  0
 20 21  1  0  0  0  0
 20 36  1  0  0  0  0
 20 37  1  0  0  0  0
 21 22  1  0  0  0  0
 21 38  1  0  0  0  0
 21 39  1  0  0  0  0
 22 23  1  0  0  0  0
 22 24  1  0  0  0  0
 22 40  1  0  0  0  0
 23 41  1  0  0  0  0
 23 42  1  0  0  0  0
 24 43  1  0  0  0  0
 24 44  1  0  0  0  0
M  END
> <ConfClashScore>
0.00215962 

> <ConfOneFourInteractionScore>
-0.981848 

> <ConfScore>
0.147024 

> <ConfScorePBest>
0.00159401 

> <ConfTolerance>
0.71798 

$$$$
c22.sdf
 OpenBabel04162418103D

 44 47  0  0  0  0  0  0  0  0999 V2000
    2.2223   -1.0070    0.0278 C   0  0  0  1  0  0  0  0  0  0  0  0
    1.7584   -1.4650   -1.1393 N   0  0  0  1  0  0  0  0  0  0  0  0
    0.5364   -2.0339   -1.1562 C   0  0  0  1  0  0  0  0  0  0  0  0
   -0.1974   -2.1128    0.0634 C   0  0  0  1  0  0  0  0  0  0  0  0
    0.4362   -1.5817    1.1801 C   0  0  0  1  0  0  0  0  0  0  0  0
    1.6638   -1.0117    1.2288 N   0  0  0  1  0  0  0  0  0  0  0  0
   -1.4388   -2.5653    0.5541 C   0  0  0  1  0  0  0  0  0  0  0  0
   -1.5636   -2.3460    1.8427 N   0  0  0  1  0  0  0  0  0  0  0  0
   -0.4022   -1.7367    2.2296 N   0  0  0  1  0  0  0  0  0  0  0  0
   -0.1159   -1.3236    3.5517 C   0  0  0  1  0  0  0  0  0  0  0  0
    0.0101   -2.2634    4.5573 C   0  0  0  1  0  0  0  0  0  0  0  0
    0.2960   -1.8589    5.8519 C   0  0  0  1  0  0  0  0  0  0  0  0
    0.4497   -0.5156    6.1384 C   0  0  0  1  0  0  0  0  0  0  0  0
    0.3233    0.4269    5.1297 C   0  0  0  1  0  0  0  0  0  0  0  0
    0.0383    0.0237    3.8388 C   0  0  0  1  0  0  0  0  0  0  0  0
    0.7227   -0.0053    7.3549 O   0  0  0  1  0  0  0  0  0  0  0  0
    0.8373   -0.9812    8.4165 C   0  0  0  1  0  0  0  0  0  0  0  0
    3.4480   -0.4553   -0.0259 N   0  0  0  1  0  0  0  0  0  0  0  0
    4.4394   -0.3577   -1.1021 C   0  0  0  1  0  0  0  0  0  0  0  0
    3.7552   -0.1313   -2.4464 C   0  0  0  1  0  0  0  0  0  0  0  0
    3.7077   -1.4821   -3.1710 C   0  0  0  1  0  0  0  0  0  0  0  0
    5.0711   -2.1284   -2.7531 C   0  0  0  1  0  0  0  0  0  0  0  0
    5.2048   -1.7156   -1.2756 C   0  0  0  1  0  0  0  0  0  0  0  0
    6.1890   -1.5866   -3.5620 N   0  0  0  1  0  0  0  0  0  0  0  0
    0.1372   -2.4075   -2.0408 H   0  0  0  1  0  0  0  0  0  0  0  0
   -2.1678   -3.0182   -0.0334 H   0  0  0  1  0  0  0  0  0  0  0  0
   -0.1095   -3.2740    4.3426 H   0  0  0  1  0  0  0  0  0  0  0  0
    0.3947   -2.5664    6.6078 H   0  0  0  1  0  0  0  0  0  0  0  0
    0.4430    1.4374    5.3444 H   0  0  0  1  0  0  0  0  0  0  0  0
   -0.0605    0.7311    3.0829 H   0  0  0  1  0  0  0  0  0  0  0  0
    1.1773   -1.9114    8.0114 H   0  0  0  1  0  0  0  0  0  0  0  0
   -0.1185   -1.1211    8.8767 H   0  0  0  1  0  0  0  0  0  0  0  0
    1.5378   -0.6331    9.1466 H   0  0  0  1  0  0  0  0  0  0  0  0
    3.7327   -0.0392    0.8145 H   0  0  0  1  0  0  0  0  0  0  0  0
    5.1229    0.4370   -0.8870 H   0  0  0  1  0  0  0  0  0  0  0  0
    4.3125    0.5748   -3.0258 H   0  0  0  1  0  0  0  0  0  0  0  0
    2.7621    0.2366   -2.2938 H   0  0  0  1  0  0  0  0  0  0  0  0
    3.6490   -1.3518   -4.2314 H   0  0  0  1  0  0  0  0  0  0  0  0
    2.8801   -2.0725   -2.8373 H   0  0  0  1  0  0  0  0  0  0  0  0
    5.0401   -3.1931   -2.8545 H   0  0  0  1  0  0  0  0  0  0  0  0
    6.2367   -1.5896   -1.0222 H   0  0  0  1  0  0  0  0  0  0  0  0
    4.7711   -2.4638   -0.6455 H   0  0  0  1  0  0  0  0  0  0  0  0
    6.0431   -1.8014   -4.5070 H   0  0  0  1  0  0  0  0  0  0  0  0
    7.0322   -1.9864   -3.2627 H   0  0  0  1  0  0  0  0  0  0  0  0
  1  2  4  0  0  0  0
  1  6  4  0  0  0  0
  1 18  1  0  0  0  0
  2  3  4  0  0  0  0
  3  4  4  0  0  0  0
  3 25  1  0  0  0  0
  4  5  4  0  0  0  0
  4  7  4  0  0  0  0
  5  6  4  0  0  0  0
  5  9  4  0  0  0  0
  7  8  4  0  0  0  0
  7 26  1  0  0  0  0
  8  9  4  0  0  0  0
  9 10  1  0  0  0  0
 10 11  4  0  0  0  0
 10 15  4  0  0  0  0
 11 12  4  0  0  0  0
 11 27  1  0  0  0  0
 12 13  4  0  0  0  0
 12 28  1  0  0  0  0
 13 14  4  0  0  0  0
 13 16  1  0  0  0  0
 14 15  4  0  0  0  0
 14 29  1  0  0  0  0
 15 30  1  0  0  0  0
 16 17  1  0  0  0  0
 17 31  1  0  0  0  0
 17 32  1  0  0  0  0
 17 33  1  0  0  0  0
 18 19  1  0  0  0  0
 18 34  1  0  0  0  0
 19 20  1  0  0  0  0
 19 23  1  0  0  0  0
 19 35  1  0  0  0  0
 20 21  1  0  0  0  0
 20 36  1  0  0  0  0
 20 37  1  0  0  0  0
 21 22  1  0  0  0  0
 21 38  1  0  0  0  0
 21 39  1  0  0  0  0
 22 23  1  0  0  0  0
 22 24  1  0  0  0  0
 22 40  1  0  0  0  0
 23 41  1  0  0  0  0
 23 42  1  0  0  0  0
 24 43  1  0  0  0  0
 24 44  1  0  0  0  0
M  END
> <ConfClashScore>
0.000822522 

> <ConfOneFourInteractionScore>
-0.982693 

> <ConfScore>
0.153521 

> <ConfScorePBest>
0.00158068 

> <ConfTolerance>
0.626429 

$$$$
c22.sdf
 OpenBabel04162418103D

 44 47  0  0  0  0  0  0  0  0999 V2000
    2.7090   -2.0810   -0.0108 C   0  0  0  1  0  0  0  0  0  0  0  0
    2.4119   -2.5548   -1.2250 N   0  0  0  1  0  0  0  0  0  0  0  0
    1.5224   -3.5641   -1.3113 C   0  0  0  1  0  0  0  0  0  0  0  0
    0.9426   -4.0683   -0.1106 C   0  0  0  1  0  0  0  0  0  0  0  0
    1.3630   -3.4538    1.0625 C   0  0  0  1  0  0  0  0  0  0  0  0
    2.2587   -2.4448    1.1805 N   0  0  0  1  0  0  0  0  0  0  0  0
    0.0134   -5.0362    0.3211 C   0  0  0  1  0  0  0  0  0  0  0  0
   -0.1259   -5.0308    1.6267 N   0  0  0  1  0  0  0  0  0  0  0  0
    0.7100   -4.0506    2.0851 N   0  0  0  1  0  0  0  0  0  0  0  0
    0.8713   -3.7043    3.4571 C   0  0  0  1  0  0  0  0  0  0  0  0
    2.0470   -3.1195    3.8884 C   0  0  0  1  0  0  0  0  0  0  0  0
    2.2019   -2.7776    5.2228 C   0  0  0  1  0  0  0  0  0  0  0  0
    1.1829   -3.0263    6.1229 C   0  0  0  1  0  0  0  0  0  0  0  0
    0.0038   -3.6129    5.6901 C   0  0  0  1  0  0  0  0  0  0  0  0
   -0.1508   -3.9539    4.3596 C   0  0  0  1  0  0  0  0  0  0  0  0
    1.3015   -2.6118    7.3992 O   0  0  0  1  0  0  0  0  0  0  0  0
    2.6317   -2.1958    7.7867 C   0  0  0  1  0  0  0  0  0  0  0  0
    3.6052   -1.0780    0.0033 N   0  0  0  1  0  0  0  0  0  0  0  0
    4.3527   -0.4112   -1.0632 C   0  0  0  1  0  0  0  0  0  0  0  0
    3.4570   -0.2099   -2.2873 C   0  0  0  1  0  0  0  0  0  0  0  0
    4.0149   -1.1231   -3.3704 C   0  0  0  1  0  0  0  0  0  0  0  0
    4.8769   -2.1584   -2.6609 C   0  0  0  1  0  0  0  0  0  0  0  0
    5.5494   -1.3054   -1.5212 C   0  0  0  1  0  0  0  0  0  0  0  0
    5.9026   -2.7343   -3.5840 N   0  0  0  1  0  0  0  0  0  0  0  0
    1.2643   -3.9665   -2.2349 H   0  0  0  1  0  0  0  0  0  0  0  0
   -0.4998   -5.6771   -0.3173 H   0  0  0  1  0  0  0  0  0  0  0  0
    2.8153   -2.9360    3.2119 H   0  0  0  1  0  0  0  0  0  0  0  0
    3.0849   -2.3339    5.5467 H   0  0  0  1  0  0  0  0  0  0  0  0
   -0.7645   -3.7964    6.3665 H   0  0  0  1  0  0  0  0  0  0  0  0
   -1.0338   -4.3976    4.0357 H   0  0  0  1  0  0  0  0  0  0  0  0
    2.7709   -2.3732    8.8326 H   0  0  0  1  0  0  0  0  0  0  0  0
    2.7523   -1.1523    7.5830 H   0  0  0  1  0  0  0  0  0  0  0  0
    3.3558   -2.7542    7.2310 H   0  0  0  1  0  0  0  0  0  0  0  0
    3.7935   -0.7270    0.8987 H   0  0  0  1  0  0  0  0  0  0  0  0
    4.7123    0.5330   -0.7108 H   0  0  0  1  0  0  0  0  0  0  0  0
    3.4899    0.8104   -2.6081 H   0  0  0  1  0  0  0  0  0  0  0  0
    2.4474   -0.4796   -2.0575 H   0  0  0  1  0  0  0  0  0  0  0  0
    4.6073   -0.5591   -4.0603 H   0  0  0  1  0  0  0  0  0  0  0  0
    3.2164   -1.6043   -3.8955 H   0  0  0  1  0  0  0  0  0  0  0  0
    4.2795   -2.9473   -2.2539 H   0  0  0  1  0  0  0  0  0  0  0  0
    6.3577   -0.7147   -1.8989 H   0  0  0  1  0  0  0  0  0  0  0  0
    5.9025   -1.9257   -0.7240 H   0  0  0  1  0  0  0  0  0  0  0  0
    6.6259   -3.1366   -3.0592 H   0  0  0  1  0  0  0  0  0  0  0  0
    6.2673   -2.0231   -4.1512 H   0  0  0  1  0  0  0  0  0  0  0  0
  1  2  4  0  0  0  0
  1  6  4  0  0  0  0
  1 18  1  0  0  0  0
  2  3  4  0  0  0  0
  3  4  4  0  0  0  0
  3 25  1  0  0  0  0
  4  5  4  0  0  0  0
  4  7  4  0  0  0  0
  5  6  4  0  0  0  0
  5  9  4  0  0  0  0
  7  8  4  0  0  0  0
  7 26  1  0  0  0  0
  8  9  4  0  0  0  0
  9 10  1  0  0  0  0
 10 11  4  0  0  0  0
 10 15  4  0  0  0  0
 11 12  4  0  0  0  0
 11 27  1  0  0  0  0
 12 13  4  0  0  0  0
 12 28  1  0  0  0  0
 13 14  4  0  0  0  0
 13 16  1  0  0  0  0
 14 15  4  0  0  0  0
 14 29  1  0  0  0  0
 15 30  1  0  0  0  0
 16 17  1  0  0  0  0
 17 31  1  0  0  0  0
 17 32  1  0  0  0  0
 17 33  1  0  0  0  0
 18 19  1  0  0  0  0
 18 34  1  0  0  0  0
 19 20  1  0  0  0  0
 19 23  1  0  0  0  0
 19 35  1  0  0  0  0
 20 21  1  0  0  0  0
 20 36  1  0  0  0  0
 20 37  1  0  0  0  0
 21 22  1  0  0  0  0
 21 38  1  0  0  0  0
 21 39  1  0  0  0  0
 22 23  1  0  0  0  0
 22 24  1  0  0  0  0
 22 40  1  0  0  0  0
 23 41  1  0  0  0  0
 23 42  1  0  0  0  0
 24 43  1  0  0  0  0
 24 44  1  0  0  0  0
M  END
> <ConfClashScore>
0 

> <ConfOneFourInteractionScore>
-0.982693 

> <ConfScore>
0.159594 

> <ConfScorePBest>
0.00156735 

> <ConfTolerance>
0.600951 

$$$$
c22.sdf
 OpenBabel04162418103D

 44 47  0  0  0  0  0  0  0  0999 V2000
    2.5177   -0.9695    0.1237 C   0  0  0  1  0  0  0  0  0  0  0  0
    1.8339   -0.7750    1.2557 N   0  0  0  1  0  0  0  0  0  0  0  0
    0.6965   -1.4756    1.4373 C   0  0  0  1  0  0  0  0  0  0  0  0
    0.2860   -2.3871    0.4212 C   0  0  0  1  0  0  0  0  0  0  0  0
    1.1206   -2.4659   -0.6868 C   0  0  0  1  0  0  0  0  0  0  0  0
    2.2633   -1.7708   -0.8998 N   0  0  0  1  0  0  0  0  0  0  0  0
   -0.7427   -3.3100    0.1441 C   0  0  0  1  0  0  0  0  0  0  0  0
   -0.5715   -3.8975   -1.0176 N   0  0  0  1  0  0  0  0  0  0  0  0
    0.5826   -3.3744   -1.5315 N   0  0  0  1  0  0  0  0  0  0  0  0
    1.1350   -3.7327   -2.7703 C   0  0  0  1  0  0  0  0  0  0  0  0
    1.9324   -4.8415   -2.9822 C   0  0  0  1  0  0  0  0  0  0  0  0
    2.4245   -5.1089   -4.2502 C   0  0  0  1  0  0  0  0  0  0  0  0
    2.1224   -4.2640   -5.3014 C   0  0  0  1  0  0  0  0  0  0  0  0
    1.3226   -3.1519   -5.0887 C   0  0  0  1  0  0  0  0  0  0  0  0
    0.8318   -2.8851   -3.8244 C   0  0  0  1  0  0  0  0  0  0  0  0
    2.6075   -4.5224   -6.5390 O   0  0  0  1  0  0  0  0  0  0  0  0
    2.2651   -3.5989   -7.5841 C   0  0  0  1  0  0  0  0  0  0  0  0
    3.6501   -0.2300    0.0044 N   0  0  0  1  0  0  0  0  0  0  0  0
    4.5410   -0.3667   -1.1514 C   0  0  0  1  0  0  0  0  0  0  0  0
    3.7703   -0.1031   -2.4502 C   0  0  0  1  0  0  0  0  0  0  0  0
    3.7512   -1.4368   -3.1866 C   0  0  0  1  0  0  0  0  0  0  0  0
    5.0380   -2.1448   -2.7429 C   0  0  0  1  0  0  0  0  0  0  0  0
    5.0681   -1.8070   -1.2499 C   0  0  0  1  0  0  0  0  0  0  0  0
    6.2436   -1.5939   -3.4565 N   0  0  0  1  0  0  0  0  0  0  0  0
    0.1302   -1.3535    2.3010 H   0  0  0  1  0  0  0  0  0  0  0  0
   -1.5408   -3.5024    0.7826 H   0  0  0  1  0  0  0  0  0  0  0  0
    2.1631   -5.4751   -2.1905 H   0  0  0  1  0  0  0  0  0  0  0  0
    3.0212   -5.9455   -4.4105 H   0  0  0  1  0  0  0  0  0  0  0  0
    1.0919   -2.5182   -5.8804 H   0  0  0  1  0  0  0  0  0  0  0  0
    0.2351   -2.0486   -3.6640 H   0  0  0  1  0  0  0  0  0  0  0  0
    2.8545   -3.8076   -8.4524 H   0  0  0  1  0  0  0  0  0  0  0  0
    2.4581   -2.5995   -7.2541 H   0  0  0  1  0  0  0  0  0  0  0  0
    1.2275   -3.7015   -7.8246 H   0  0  0  1  0  0  0  0  0  0  0  0
    3.8777    0.4117    0.7092 H   0  0  0  1  0  0  0  0  0  0  0  0
    5.3557    0.3206   -1.0576 H   0  0  0  1  0  0  0  0  0  0  0  0
    2.7733    0.2200   -2.2348 H   0  0  0  1  0  0  0  0  0  0  0  0
    4.2681    0.6410   -3.0363 H   0  0  0  1  0  0  0  0  0  0  0  0
    3.7510   -1.2832   -4.2455 H   0  0  0  1  0  0  0  0  0  0  0  0
    2.8908   -2.0089   -2.9085 H   0  0  0  1  0  0  0  0  0  0  0  0
    4.9791   -3.2009   -2.9041 H   0  0  0  1  0  0  0  0  0  0  0  0
    4.4378   -2.4754   -0.7014 H   0  0  0  1  0  0  0  0  0  0  0  0
    6.0673   -1.8674   -0.8719 H   0  0  0  1  0  0  0  0  0  0  0  0
    6.0646   -1.5555   -4.4193 H   0  0  0  1  0  0  0  0  0  0  0  0
    7.0149   -2.1752   -3.2907 H   0  0  0  1  0  0  0  0  0  0  0  0
  1  2  4  0  0  0  0
  1  6  4  0  0  0  0
  1 18  1  0  0  0  0
  2  3  4  0  0  0  0
  3  4  4  0  0  0  0
  3 25  1  0  0  0  0
  4  5  4  0  0  0  0
  4  7  4  0  0  0  0
  5  6  4  0  0  0  0
  5  9  4  0  0  0  0
  7  8  4  0  0  0  0
  7 26  1  0  0  0  0
  8  9  4  0  0  0  0
  9 10  1  0  0  0  0
 10 11  4  0  0  0  0
 10 15  4  0  0  0  0
 11 12  4  0  0  0  0
 11 27  1  0  0  0  0
 12 13  4  0  0  0  0
 12 28  1  0  0  0  0
 13 14  4  0  0  0  0
 13 16  1  0  0  0  0
 14 15  4  0  0  0  0
 14 29  1  0  0  0  0
 15 30  1  0  0  0  0
 16 17  1  0  0  0  0
 17 31  1  0  0  0  0
 17 32  1  0  0  0  0
 17 33  1  0  0  0  0
 18 19  1  0  0  0  0
 18 34  1  0  0  0  0
 19 20  1  0  0  0  0
 19 23  1  0  0  0  0
 19 35  1  0  0  0  0
 20 21  1  0  0  0  0
 20 36  1  0  0  0  0
 20 37  1  0  0  0  0
 21 22  1  0  0  0  0
 21 38  1  0  0  0  0
 21 39  1  0  0  0  0
 22 23  1  0  0  0  0
 22 24  1  0  0  0  0
 22 40  1  0  0  0  0
 23 41  1  0  0  0  0
 23 42  1  0  0  0  0
 24 43  1  0  0  0  0
 24 44  1  0  0  0  0
M  END
> <ConfClashScore>
0.000956196 

> <ConfOneFourInteractionScore>
-0.980204 

> <ConfScore>
0.188899 

> <ConfScorePBest>
0.00155402 

> <ConfTolerance>
0.506752 

$$$$
c22.sdf
 OpenBabel04162418103D

 44 47  0  0  0  0  0  0  0  0999 V2000
    4.2388   -0.4765    1.2596 C   0  0  0  1  0  0  0  0  0  0  0  0
    3.4111   -0.1904    2.2696 N   0  0  0  1  0  0  0  0  0  0  0  0
    3.8443   -0.4137    3.5265 C   0  0  0  1  0  0  0  0  0  0  0  0
    5.1576   -0.9353    3.7140 C   0  0  0  1  0  0  0  0  0  0  0  0
    5.8818   -1.1691    2.5515 C   0  0  0  1  0  0  0  0  0  0  0  0
    5.4711   -0.9618    1.2777 N   0  0  0  1  0  0  0  0  0  0  0  0
    6.0383   -1.3079    4.7495 C   0  0  0  1  0  0  0  0  0  0  0  0
    7.1882   -1.7358    4.2819 N   0  0  0  1  0  0  0  0  0  0  0  0
    7.0906   -1.6495    2.9207 N   0  0  0  1  0  0  0  0  0  0  0  0
    8.1249   -2.0167    2.0124 C   0  0  0  1  0  0  0  0  0  0  0  0
    8.1710   -3.3024    1.5076 C   0  0  0  1  0  0  0  0  0  0  0  0
    9.1154   -3.6373    0.5498 C   0  0  0  1  0  0  0  0  0  0  0  0
   10.0144   -2.6870    0.1035 C   0  0  0  1  0  0  0  0  0  0  0  0
    9.9680   -1.3975    0.6100 C   0  0  0  1  0  0  0  0  0  0  0  0
    9.0264   -1.0634    1.5650 C   0  0  0  1  0  0  0  0  0  0  0  0
   10.8919   -3.1310   -0.8275 O   0  0  0  1  0  0  0  0  0  0  0  0
   11.9684   -2.2510   -1.1870 C   0  0  0  1  0  0  0  0  0  0  0  0
    3.7346   -0.2295    0.0132 N   0  0  0  1  0  0  0  0  0  0  0  0
    4.5629   -0.3562   -1.1938 C   0  0  0  1  0  0  0  0  0  0  0  0
    3.7114   -0.1301   -2.4485 C   0  0  0  1  0  0  0  0  0  0  0  0
    3.6877   -1.4730   -3.1680 C   0  0  0  1  0  0  0  0  0  0  0  0
    5.0175   -2.1394   -2.7921 C   0  0  0  1  0  0  0  0  0  0  0  0
    5.1241   -1.7824   -1.3071 C   0  0  0  1  0  0  0  0  0  0  0  0
    6.1499   -1.5712   -3.5708 N   0  0  0  1  0  0  0  0  0  0  0  0
    3.2329   -0.2096    4.3427 H   0  0  0  1  0  0  0  0  0  0  0  0
    5.8055   -1.2508    5.7615 H   0  0  0  1  0  0  0  0  0  0  0  0
    7.4973   -4.0186    1.8463 H   0  0  0  1  0  0  0  0  0  0  0  0
    9.1476   -4.6037    0.1669 H   0  0  0  1  0  0  0  0  0  0  0  0
   10.6418   -0.6813    0.2713 H   0  0  0  1  0  0  0  0  0  0  0  0
    8.9942   -0.0970    1.9479 H   0  0  0  1  0  0  0  0  0  0  0  0
   12.2866   -2.4655   -2.1858 H   0  0  0  1  0  0  0  0  0  0  0  0
   12.7870   -2.3957   -0.5133 H   0  0  0  1  0  0  0  0  0  0  0  0
   11.6337   -1.2364   -1.1296 H   0  0  0  1  0  0  0  0  0  0  0  0
    2.7965    0.0390   -0.0776 H   0  0  0  1  0  0  0  0  0  0  0  0
    5.3618    0.3546   -1.1549 H   0  0  0  1  0  0  0  0  0  0  0  0
    2.7197    0.1678   -2.1792 H   0  0  0  1  0  0  0  0  0  0  0  0
    4.1532    0.6201   -3.0705 H   0  0  0  1  0  0  0  0  0  0  0  0
    2.8614   -2.0652   -2.8344 H   0  0  0  1  0  0  0  0  0  0  0  0
    3.6221   -1.3326   -4.2267 H   0  0  0  1  0  0  0  0  0  0  0  0
    4.9795   -3.1987   -2.9382 H   0  0  0  1  0  0  0  0  0  0  0  0
    4.5457   -2.4611   -0.7158 H   0  0  0  1  0  0  0  0  0  0  0  0
    6.1448   -1.8103   -0.9870 H   0  0  0  1  0  0  0  0  0  0  0  0
    6.3477   -2.1542   -4.3333 H   0  0  0  1  0  0  0  0  0  0  0  0
    6.9410   -1.5058   -2.9961 H   0  0  0  1  0  0  0  0  0  0  0  0
  1  2  4  0  0  0  0
  1  6  4  0  0  0  0
  1 18  1  0  0  0  0
  2  3  4  0  0  0  0
  3  4  4  0  0  0  0
  3 25  1  0  0  0  0
  4  5  4  0  0  0  0
  4  7  4  0  0  0  0
  5  6  4  0  0  0  0
  5  9  4  0  0  0  0
  7  8  4  0  0  0  0
  7 26  1  0  0  0  0
  8  9  4  0  0  0  0
  9 10  1  0  0  0  0
 10 11  4  0  0  0  0
 10 15  4  0  0  0  0
 11 12  4  0  0  0  0
 11 27  1  0  0  0  0
 12 13  4  0  0  0  0
 12 28  1  0  0  0  0
 13 14  4  0  0  0  0
 13 16  1  0  0  0  0
 14 15  4  0  0  0  0
 14 29  1  0  0  0  0
 15 30  1  0  0  0  0
 16 17  1  0  0  0  0
 17 31  1  0  0  0  0
 17 32  1  0  0  0  0
 17 33  1  0  0  0  0
 18 19  1  0  0  0  0
 18 34  1  0  0  0  0
 19 20  1  0  0  0  0
 19 23  1  0  0  0  0
 19 35  1  0  0  0  0
 20 21  1  0  0  0  0
 20 36  1  0  0  0  0
 20 37  1  0  0  0  0
 21 22  1  0  0  0  0
 21 38  1  0  0  0  0
 21 39  1  0  0  0  0
 22 23  1  0  0  0  0
 22 24  1  0  0  0  0
 22 40  1  0  0  0  0
 23 41  1  0  0  0  0
 23 42  1  0  0  0  0
 24 43  1  0  0  0  0
 24 44  1  0  0  0  0
M  END
> <ConfClashScore>
0 

> <ConfOneFourInteractionScore>
-0.97608 

> <ConfScore>
0.192268 

> <ConfScorePBest>
0.00154069 

> <ConfTolerance>
0.618484 

$$$$
c22.sdf
 OpenBabel04162418103D

 44 47  0  0  0  0  0  0  0  0999 V2000
    2.5078   -2.4010   -0.3839 C   0  0  0  1  0  0  0  0  0  0  0  0
    1.8432   -2.8829    0.6712 N   0  0  0  1  0  0  0  0  0  0  0  0
    0.9638   -3.8833    0.4632 C   0  0  0  1  0  0  0  0  0  0  0  0
    0.7922   -4.3775   -0.8627 C   0  0  0  1  0  0  0  0  0  0  0  0
    1.5688   -3.7627   -1.8372 C   0  0  0  1  0  0  0  0  0  0  0  0
    2.4535   -2.7528   -1.6597 N   0  0  0  1  0  0  0  0  0  0  0  0
    0.0622   -5.3545   -1.5694 C   0  0  0  1  0  0  0  0  0  0  0  0
    0.3481   -5.3454   -2.8509 N   0  0  0  1  0  0  0  0  0  0  0  0
    1.2812   -4.3596   -3.0160 N   0  0  0  1  0  0  0  0  0  0  0  0
    1.8713   -4.0084   -4.2626 C   0  0  0  1  0  0  0  0  0  0  0  0
    1.0690   -3.7397   -5.3554 C   0  0  0  1  0  0  0  0  0  0  0  0
    1.6436   -3.3925   -6.5682 C   0  0  0  1  0  0  0  0  0  0  0  0
    3.0188   -3.3202   -6.6861 C   0  0  0  1  0  0  0  0  0  0  0  0
    3.8233   -3.5898   -5.5898 C   0  0  0  1  0  0  0  0  0  0  0  0
    3.2506   -3.9360   -4.3806 C   0  0  0  1  0  0  0  0  0  0  0  0
    3.6915   -2.9978   -7.8163 O   0  0  0  1  0  0  0  0  0  0  0  0
    2.9244   -2.4641   -8.9068 C   0  0  0  1  0  0  0  0  0  0  0  0
    3.3658   -1.4028   -0.1065 N   0  0  0  1  0  0  0  0  0  0  0  0
    4.2014   -0.5548   -0.9618 C   0  0  0  1  0  0  0  0  0  0  0  0
    3.4599   -0.2217   -2.2581 C   0  0  0  1  0  0  0  0  0  0  0  0
    4.2108   -0.9436   -3.3687 C   0  0  0  1  0  0  0  0  0  0  0  0
    5.0393   -2.0291   -2.6952 C   0  0  0  1  0  0  0  0  0  0  0  0
    5.5026   -1.3181   -1.3689 C   0  0  0  1  0  0  0  0  0  0  0  0
    6.2092   -2.4185   -3.5379 N   0  0  0  1  0  0  0  0  0  0  0  0
    0.4217   -4.2862    1.2540 H   0  0  0  1  0  0  0  0  0  0  0  0
   -0.6203   -6.0040   -1.1290 H   0  0  0  1  0  0  0  0  0  0  0  0
    0.0344   -3.7979   -5.2679 H   0  0  0  1  0  0  0  0  0  0  0  0
    1.0398   -3.1863   -7.3895 H   0  0  0  1  0  0  0  0  0  0  0  0
    4.8580   -3.5316   -5.6774 H   0  0  0  1  0  0  0  0  0  0  0  0
    3.8543   -4.1422   -3.5592 H   0  0  0  1  0  0  0  0  0  0  0  0
    3.3129   -2.8353   -9.8321 H   0  0  0  1  0  0  0  0  0  0  0  0
    2.9865   -1.3959   -8.8971 H   0  0  0  1  0  0  0  0  0  0  0  0
    1.9023   -2.7634   -8.8037 H   0  0  0  1  0  0  0  0  0  0  0  0
    3.4480   -1.2048    0.8497 H   0  0  0  1  0  0  0  0  0  0  0  0
    4.4506    0.3447   -0.4386 H   0  0  0  1  0  0  0  0  0  0  0  0
    2.4487   -0.5677   -2.2073 H   0  0  0  1  0  0  0  0  0  0  0  0
    3.4678    0.8344   -2.4299 H   0  0  0  1  0  0  0  0  0  0  0  0
    3.5195   -1.3809   -4.0585 H   0  0  0  1  0  0  0  0  0  0  0  0
    4.8494   -0.2600   -3.8879 H   0  0  0  1  0  0  0  0  0  0  0  0
    4.4468   -2.8948   -2.4846 H   0  0  0  1  0  0  0  0  0  0  0  0
    6.3128   -0.6429   -1.5489 H   0  0  0  1  0  0  0  0  0  0  0  0
    5.7893   -2.0294   -0.6227 H   0  0  0  1  0  0  0  0  0  0  0  0
    6.0244   -2.2000   -4.4752 H   0  0  0  1  0  0  0  0  0  0  0  0
    6.3669   -3.3820   -3.4524 H   0  0  0  1  0  0  0  0  0  0  0  0
  1  2  4  0  0  0  0
  1  6  4  0  0  0  0
  1 18  1  0  0  0  0
  2  3  4  0  0  0  0
  3  4  4  0  0  0  0
  3 25  1  0  0  0  0
  4  5  4  0  0  0  0
  4  7  4  0  0  0  0
  5  6  4  0  0  0  0
  5  9  4  0  0  0  0
  7  8  4  0  0  0  0
  7 26  1  0  0  0  0
  8  9  4  0  0  0  0
  9 10  1  0  0  0  0
 10 11  4  0  0  0  0
 10 15  4  0  0  0  0
 11 12  4  0  0  0  0
 11 27  1  0  0  0  0
 12 13  4  0  0  0  0
 12 28  1  0  0  0  0
 13 14  4  0  0  0  0
 13 16  1  0  0  0  0
 14 15  4  0  0  0  0
 14 29  1  0  0  0  0
 15 30  1  0  0  0  0
 16 17  1  0  0  0  0
 17 31  1  0  0  0  0
 17 32  1  0  0  0  0
 17 33  1  0  0  0  0
 18 19  1  0  0  0  0
 18 34  1  0  0  0  0
 19 20  1  0  0  0  0
 19 23  1  0  0  0  0
 19 35  1  0  0  0  0
 20 21  1  0  0  0  0
 20 36  1  0  0  0  0
 20 37  1  0  0  0  0
 21 22  1  0  0  0  0
 21 38  1  0  0  0  0
 21 39  1  0  0  0  0
 22 23  1  0  0  0  0
 22 24  1  0  0  0  0
 22 40  1  0  0  0  0
 23 41  1  0  0  0  0
 23 42  1  0  0  0  0
 24 43  1  0  0  0  0
 24 44  1  0  0  0  0
M  END
> <ConfClashScore>
0 

> <ConfOneFourInteractionScore>
-0.982693 

> <ConfScore>
0.192281 

> <ConfScorePBest>
0.00152736 

> <ConfTolerance>
0.589833 

$$$$
c22.sdf
 OpenBabel04162418103D

 44 47  0  0  0  0  0  0  0  0999 V2000
    2.2252   -1.0885    0.2130 C   0  0  0  1  0  0  0  0  0  0  0  0
    1.7665    0.0951   -0.2062 N   0  0  0  1  0  0  0  0  0  0  0  0
    0.5123    0.4475    0.1403 C   0  0  0  1  0  0  0  0  0  0  0  0
   -0.2549   -0.4523    0.9363 C   0  0  0  1  0  0  0  0  0  0  0  0
    0.3822   -1.6364    1.2860 C   0  0  0  1  0  0  0  0  0  0  0  0
    1.6361   -2.0202    0.9473 N   0  0  0  1  0  0  0  0  0  0  0  0
   -1.5233   -0.5511    1.5432 C   0  0  0  1  0  0  0  0  0  0  0  0
   -1.6649   -1.6811    2.1968 N   0  0  0  1  0  0  0  0  0  0  0  0
   -0.4845   -2.3526    2.0372 N   0  0  0  1  0  0  0  0  0  0  0  0
   -0.2052   -3.6355    2.5888 C   0  0  0  1  0  0  0  0  0  0  0  0
    0.5511   -4.5458    1.8750 C   0  0  0  1  0  0  0  0  0  0  0  0
    0.7491   -5.8240    2.3734 C   0  0  0  1  0  0  0  0  0  0  0  0
    0.1859   -6.1899    3.5814 C   0  0  0  1  0  0  0  0  0  0  0  0
   -0.5726   -5.2767    4.2971 C   0  0  0  1  0  0  0  0  0  0  0  0
   -0.7701   -4.0022    3.8003 C   0  0  0  1  0  0  0  0  0  0  0  0
    0.3051   -7.4036    4.1625 O   0  0  0  1  0  0  0  0  0  0  0  0
    1.0153   -8.4481    3.4791 C   0  0  0  1  0  0  0  0  0  0  0  0
    3.4860   -1.3797   -0.1723 N   0  0  0  1  0  0  0  0  0  0  0  0
    4.2908   -0.5225   -1.0338 C   0  0  0  1  0  0  0  0  0  0  0  0
    3.5132   -0.1423   -2.2970 C   0  0  0  1  0  0  0  0  0  0  0  0
    3.9188   -1.1782   -3.3541 C   0  0  0  1  0  0  0  0  0  0  0  0
    4.9288   -2.1101   -2.6761 C   0  0  0  1  0  0  0  0  0  0  0  0
    5.5205   -1.2767   -1.5513 C   0  0  0  1  0  0  0  0  0  0  0  0
    5.9965   -2.5286   -3.6439 N   0  0  0  1  0  0  0  0  0  0  0  0
    0.1127    1.3572   -0.1668 H   0  0  0  1  0  0  0  0  0  0  0  0
   -2.2580    0.1823    1.4808 H   0  0  0  1  0  0  0  0  0  0  0  0
    0.9716   -4.2718    0.9641 H   0  0  0  1  0  0  0  0  0  0  0  0
    1.3216   -6.5078    1.8383 H   0  0  0  1  0  0  0  0  0  0  0  0
   -0.9931   -5.5507    5.2080 H   0  0  0  1  0  0  0  0  0  0  0  0
   -1.3426   -3.3183    4.3354 H   0  0  0  1  0  0  0  0  0  0  0  0
    2.0074   -8.1170    3.2534 H   0  0  0  1  0  0  0  0  0  0  0  0
    0.5050   -8.6904    2.5703 H   0  0  0  1  0  0  0  0  0  0  0  0
    1.0624   -9.3152    4.1043 H   0  0  0  1  0  0  0  0  0  0  0  0
    3.8836   -2.2169    0.1460 H   0  0  0  1  0  0  0  0  0  0  0  0
    4.5843    0.3529   -0.4930 H   0  0  0  1  0  0  0  0  0  0  0  0
    2.4597   -0.1863   -2.1151 H   0  0  0  1  0  0  0  0  0  0  0  0
    3.7795    0.8432   -2.6177 H   0  0  0  1  0  0  0  0  0  0  0  0
    3.0625   -1.7323   -3.6775 H   0  0  0  1  0  0  0  0  0  0  0  0
    4.3686   -0.6930   -4.1949 H   0  0  0  1  0  0  0  0  0  0  0  0
    4.4398   -2.9783   -2.2864 H   0  0  0  1  0  0  0  0  0  0  0  0
    6.2650   -0.6012   -1.9181 H   0  0  0  1  0  0  0  0  0  0  0  0
    5.9451   -1.8969   -0.7898 H   0  0  0  1  0  0  0  0  0  0  0  0
    6.5145   -3.2669   -3.2604 H   0  0  0  1  0  0  0  0  0  0  0  0
    6.5913   -1.7704   -3.8218 H   0  0  0  1  0  0  0  0  0  0  0  0
  1  2  4  0  0  0  0
  1  6  4  0  0  0  0
  1 18  1  0  0  0  0
  2  3  4  0  0  0  0
  3  4  4  0  0  0  0
  3 25  1  0  0  0  0
  4  5  4  0  0  0  0
  4  7  4  0  0  0  0
  5  6  4  0  0  0  0
  5  9  4  0  0  0  0
  7  8  4  0  0  0  0
  7 26  1  0  0  0  0
  8  9  4  0  0  0  0
  9 10  1  0  0  0  0
 10 11  4  0  0  0  0
 10 15  4  0  0  0  0
 11 12  4  0  0  0  0
 11 27  1  0  0  0  0
 12 13  4  0  0  0  0
 12 28  1  0  0  0  0
 13 14  4  0  0  0  0
 13 16  1  0  0  0  0
 14 15  4  0  0  0  0
 14 29  1  0  0  0  0
 15 30  1  0  0  0  0
 16 17  1  0  0  0  0
 17 31  1  0  0  0  0
 17 32  1  0  0  0  0
 17 33  1  0  0  0  0
 18 19  1  0  0  0  0
 18 34  1  0  0  0  0
 19 20  1  0  0  0  0
 19 23  1  0  0  0  0
 19 35  1  0  0  0  0
 20 21  1  0  0  0  0
 20 36  1  0  0  0  0
 20 37  1  0  0  0  0
 21 22  1  0  0  0  0
 21 38  1  0  0  0  0
 21 39  1  0  0  0  0
 22 23  1  0  0  0  0
 22 24  1  0  0  0  0
 22 40  1  0  0  0  0
 23 41  1  0  0  0  0
 23 42  1  0  0  0  0
 24 43  1  0  0  0  0
 24 44  1  0  0  0  0
M  END
> <ConfClashScore>
0.00249356 

> <ConfOneFourInteractionScore>
-0.985399 

> <ConfScore>
0.212086 

> <ConfScorePBest>
0.00151404 

> <ConfTolerance>
0.810612 

$$$$
c22.sdf
 OpenBabel04162418103D

 44 47  0  0  0  0  0  0  0  0999 V2000
    2.9087    0.6039    0.5972 C   0  0  0  1  0  0  0  0  0  0  0  0
    2.4153    1.3505   -0.3959 N   0  0  0  1  0  0  0  0  0  0  0  0
    1.3891    2.1788   -0.1164 C   0  0  0  1  0  0  0  0  0  0  0  0
    0.8886    2.2206    1.2176 C   0  0  0  1  0  0  0  0  0  0  0  0
    1.5244    1.3803    2.1233 C   0  0  0  1  0  0  0  0  0  0  0  0
    2.5508    0.5337    1.8705 N   0  0  0  1  0  0  0  0  0  0  0  0
   -0.0909    2.8795    1.9877 C   0  0  0  1  0  0  0  0  0  0  0  0
   -0.0727    2.4865    3.2404 N   0  0  0  1  0  0  0  0  0  0  0  0
    0.9278    1.5583    3.3237 N   0  0  0  1  0  0  0  0  0  0  0  0
    1.2906    0.8751    4.5079 C   0  0  0  1  0  0  0  0  0  0  0  0
    0.3139    0.4629    5.3946 C   0  0  0  1  0  0  0  0  0  0  0  0
    0.6691   -0.2113    6.5525 C   0  0  0  1  0  0  0  0  0  0  0  0
    2.0002   -0.4666    6.8230 C   0  0  0  1  0  0  0  0  0  0  0  0
    2.9797   -0.0531    5.9336 C   0  0  0  1  0  0  0  0  0  0  0  0
    2.6257    0.6192    4.7790 C   0  0  0  1  0  0  0  0  0  0  0  0
    2.2243   -1.1226    7.9782 O   0  0  0  1  0  0  0  0  0  0  0  0
    3.6160   -1.3847    8.2733 C   0  0  0  1  0  0  0  0  0  0  0  0
    3.9279   -0.2020    0.2489 N   0  0  0  1  0  0  0  0  0  0  0  0
    4.4965   -0.2651   -1.1045 C   0  0  0  1  0  0  0  0  0  0  0  0
    3.3981   -0.4783   -2.1767 C   0  0  0  1  0  0  0  0  0  0  0  0
    4.1101   -0.9337   -3.4606 C   0  0  0  1  0  0  0  0  0  0  0  0
    4.9604   -1.9900   -2.7292 C   0  0  0  1  0  0  0  0  0  0  0  0
    5.3327   -1.5276   -1.3060 C   0  0  0  1  0  0  0  0  0  0  0  0
    6.2153   -2.2271   -3.5069 N   0  0  0  1  0  0  0  0  0  0  0  0
    0.9712    2.7752   -0.8589 H   0  0  0  1  0  0  0  0  0  0  0  0
   -0.7485    3.5910    1.6094 H   0  0  0  1  0  0  0  0  0  0  0  0
   -0.6875    0.6585    5.1931 H   0  0  0  1  0  0  0  0  0  0  0  0
   -0.0662   -0.5250    7.2178 H   0  0  0  1  0  0  0  0  0  0  0  0
    3.9811   -0.2486    6.1351 H   0  0  0  1  0  0  0  0  0  0  0  0
    3.3609    0.9330    4.1137 H   0  0  0  1  0  0  0  0  0  0  0  0
    4.0206   -2.0422    7.5324 H   0  0  0  1  0  0  0  0  0  0  0  0
    3.6960   -1.8418    9.2374 H   0  0  0  1  0  0  0  0  0  0  0  0
    4.1609   -0.4638    8.2683 H   0  0  0  1  0  0  0  0  0  0  0  0
    4.3140   -0.7812    0.9387 H   0  0  0  1  0  0  0  0  0  0  0  0
    5.0666    0.6203   -1.2940 H   0  0  0  1  0  0  0  0  0  0  0  0
    2.8729    0.4372   -2.3522 H   0  0  0  1  0  0  0  0  0  0  0  0
    2.7083   -1.2293   -1.8524 H   0  0  0  1  0  0  0  0  0  0  0  0
    4.6946   -0.1620   -3.9165 H   0  0  0  1  0  0  0  0  0  0  0  0
    3.4456   -1.3543   -4.1862 H   0  0  0  1  0  0  0  0  0  0  0  0
    4.4030   -2.9010   -2.6643 H   0  0  0  1  0  0  0  0  0  0  0  0
    6.3776   -1.3079   -1.2375 H   0  0  0  1  0  0  0  0  0  0  0  0
    5.0765   -2.2740   -0.5834 H   0  0  0  1  0  0  0  0  0  0  0  0
    6.0268   -2.1450   -4.4651 H   0  0  0  1  0  0  0  0  0  0  0  0
    6.5522   -3.1275   -3.3165 H   0  0  0  1  0  0  0  0  0  0  0  0
  1  2  4  0  0  0  0
  1  6  4  0  0  0  0
  1 18  1  0  0  0  0
  2  3  4  0  0  0  0
  3  4  4  0  0  0  0
  3 25  1  0  0  0  0
  4  5  4  0  0  0  0
  4  7  4  0  0  0  0
  5  6  4  0  0  0  0
  5  9  4  0  0  0  0
  7  8  4  0  0  0  0
  7 26  1  0  0  0  0
  8  9  4  0  0  0  0
  9 10  1  0  0  0  0
 10 11  4  0  0  0  0
 10 15  4  0  0  0  0
 11 12  4  0  0  0  0
 11 27  1  0  0  0  0
 12 13  4  0  0  0  0
 12 28  1  0  0  0  0
 13 14  4  0  0  0  0
 13 16  1  0  0  0  0
 14 15  4  0  0  0  0
 14 29  1  0  0  0  0
 15 30  1  0  0  0  0
 16 17  1  0  0  0  0
 17 31  1  0  0  0  0
 17 32  1  0  0  0  0
 17 33  1  0  0  0  0
 18 19  1  0  0  0  0
 18 34  1  0  0  0  0
 19 20  1  0  0  0  0
 19 23  1  0  0  0  0
 19 35  1  0  0  0  0
 20 21  1  0  0  0  0
 20 36  1  0  0  0  0
 20 37  1  0  0  0  0
 21 22  1  0  0  0  0
 21 38  1  0  0  0  0
 21 39  1  0  0  0  0
 22 23  1  0  0  0  0
 22 24  1  0  0  0  0
 22 40  1  0  0  0  0
 23 41  1  0  0  0  0
 23 42  1  0  0  0  0
 24 43  1  0  0  0  0
 24 44  1  0  0  0  0
M  END
> <ConfClashScore>
0 

> <ConfOneFourInteractionScore>
-0.985399 

> <ConfScore>
0.229316 

> <ConfScorePBest>
0.00150071 

> <ConfTolerance>
0.949728 

$$$$
c22.sdf
 OpenBabel04162418103D

 44 47  0  0  0  0  0  0  0  0999 V2000
    3.2806   -0.3220    0.6342 C   0  0  0  1  0  0  0  0  0  0  0  0
    3.0738    0.2571    1.8211 N   0  0  0  1  0  0  0  0  0  0  0  0
    2.0897   -0.2320    2.6020 C   0  0  0  1  0  0  0  0  0  0  0  0
    1.3275   -1.3391    2.1274 C   0  0  0  1  0  0  0  0  0  0  0  0
    1.6830   -1.8182    0.8726 C   0  0  0  1  0  0  0  0  0  0  0  0
    2.6601   -1.3437    0.0638 N   0  0  0  1  0  0  0  0  0  0  0  0
    0.2714   -2.1808    2.5313 C   0  0  0  1  0  0  0  0  0  0  0  0
   -0.0072   -3.0852    1.6211 N   0  0  0  1  0  0  0  0  0  0  0  0
    0.8673   -2.8602    0.5943 N   0  0  0  1  0  0  0  0  0  0  0  0
    0.9126   -3.6142   -0.5958 C   0  0  0  1  0  0  0  0  0  0  0  0
    2.0359   -3.6618   -1.3996 C   0  0  0  1  0  0  0  0  0  0  0  0
    2.0277   -4.4242   -2.5573 C   0  0  0  1  0  0  0  0  0  0  0  0
    0.8946   -5.1323   -2.9106 C   0  0  0  1  0  0  0  0  0  0  0  0
   -0.2320   -5.0844   -2.1043 C   0  0  0  1  0  0  0  0  0  0  0  0
   -0.2239   -4.3243   -0.9500 C   0  0  0  1  0  0  0  0  0  0  0  0
    0.7672   -5.9041   -4.0160 O   0  0  0  1  0  0  0  0  0  0  0  0
    1.9039   -5.9925   -4.8892 C   0  0  0  1  0  0  0  0  0  0  0  0
    4.2780    0.2192   -0.0975 N   0  0  0  1  0  0  0  0  0  0  0  0
    4.7166   -0.3045   -1.3978 C   0  0  0  1  0  0  0  0  0  0  0  0
    3.5549   -0.3145   -2.3971 C   0  0  0  1  0  0  0  0  0  0  0  0
    3.7335   -1.5771   -3.2507 C   0  0  0  1  0  0  0  0  0  0  0  0
    5.0069   -2.2471   -2.7270 C   0  0  0  1  0  0  0  0  0  0  0  0
    5.1286   -1.7625   -1.2781 C   0  0  0  1  0  0  0  0  0  0  0  0
    6.1997   -1.8195   -3.5307 N   0  0  0  1  0  0  0  0  0  0  0  0
    1.8906    0.1898    3.5315 H   0  0  0  1  0  0  0  0  0  0  0  0
   -0.2268   -2.0957    3.4402 H   0  0  0  1  0  0  0  0  0  0  0  0
    2.8872   -3.1258   -1.1358 H   0  0  0  1  0  0  0  0  0  0  0  0
    2.8744   -4.4633   -3.1600 H   0  0  0  1  0  0  0  0  0  0  0  0
   -1.0833   -5.6204   -2.3680 H   0  0  0  1  0  0  0  0  0  0  0  0
   -1.0705   -4.2852   -0.3472 H   0  0  0  1  0  0  0  0  0  0  0  0
    1.8915   -5.1719   -5.5758 H   0  0  0  1  0  0  0  0  0  0  0  0
    1.8647   -6.9130   -5.4333 H   0  0  0  1  0  0  0  0  0  0  0  0
    2.8024   -5.9585   -4.3092 H   0  0  0  1  0  0  0  0  0  0  0  0
    4.7364    1.0080    0.2601 H   0  0  0  1  0  0  0  0  0  0  0  0
    5.5274    0.2884   -1.7665 H   0  0  0  1  0  0  0  0  0  0  0  0
    3.5900    0.5585   -3.0148 H   0  0  0  1  0  0  0  0  0  0  0  0
    2.6199   -0.3474   -1.8780 H   0  0  0  1  0  0  0  0  0  0  0  0
    2.8931   -2.2291   -3.1346 H   0  0  0  1  0  0  0  0  0  0  0  0
    3.8447   -1.3181   -4.2829 H   0  0  0  1  0  0  0  0  0  0  0  0
    4.9155   -3.3126   -2.7626 H   0  0  0  1  0  0  0  0  0  0  0  0
    6.1328   -1.8546   -0.9204 H   0  0  0  1  0  0  0  0  0  0  0  0
    4.4682   -2.3013   -0.6312 H   0  0  0  1  0  0  0  0  0  0  0  0
    6.9987   -1.8338   -2.9634 H   0  0  0  1  0  0  0  0  0  0  0  0
    6.0564   -0.9113   -3.8698 H   0  0  0  1  0  0  0  0  0  0  0  0
  1  2  4  0  0  0  0
  1  6  4  0  0  0  0
  1 18  1  0  0  0  0
  2  3  4  0  0  0  0
  3  4  4  0  0  0  0
  3 25  1  0  0  0  0
  4  5  4  0  0  0  0
  4  7  4  0  0  0  0
  5  6  4  0  0  0  0
  5  9  4  0  0  0  0
  7  8  4  0  0  0  0
  7 26  1  0  0  0  0
  8  9  4  0  0  0  0
  9 10  1  0  0  0  0
 10 11  4  0  0  0  0
 10 15  4  0  0  0  0
 11 12  4  0  0  0  0
 11 27  1  0  0  0  0
 12 13  4  0  0  0  0
 12 28  1  0  0  0  0
 13 14  4  0  0  0  0
 13 16  1  0  0  0  0
 14 15  4  0  0  0  0
 14 29  1  0  0  0  0
 15 30  1  0  0  0  0
 16 17  1  0  0  0  0
 17 31  1  0  0  0  0
 17 32  1  0  0  0  0
 17 33  1  0  0  0  0
 18 19  1  0  0  0  0
 18 34  1  0  0  0  0
 19 20  1  0  0  0  0
 19 23  1  0  0  0  0
 19 35  1  0  0  0  0
 20 21  1  0  0  0  0
 20 36  1  0  0  0  0
 20 37  1  0  0  0  0
 21 22  1  0  0  0  0
 21 38  1  0  0  0  0
 21 39  1  0  0  0  0
 22 23  1  0  0  0  0
 22 24  1  0  0  0  0
 22 40  1  0  0  0  0
 23 41  1  0  0  0  0
 23 42  1  0  0  0  0
 24 43  1  0  0  0  0
 24 44  1  0  0  0  0
M  END
> <ConfClashScore>
0 

> <ConfOneFourInteractionScore>
-0.980204 

> <ConfScore>
0.26315 

> <ConfScorePBest>
0.00148738 

> <ConfTolerance>
0.649707 

$$$$
c22.sdf
 OpenBabel04162418103D

 44 47  0  0  0  0  0  0  0  0999 V2000
    5.0955    0.8027    0.8598 C   0  0  0  1  0  0  0  0  0  0  0  0
    4.4996    1.3099    1.9437 N   0  0  0  1  0  0  0  0  0  0  0  0
    5.2719    1.9220    2.8635 C   0  0  0  1  0  0  0  0  0  0  0  0
    6.6762    2.0020    2.6325 C   0  0  0  1  0  0  0  0  0  0  0  0
    7.1234    1.4251    1.4502 C   0  0  0  1  0  0  0  0  0  0  0  0
    6.3737    0.7983    0.5125 N   0  0  0  1  0  0  0  0  0  0  0  0
    7.8456    2.5144    3.2298 C   0  0  0  1  0  0  0  0  0  0  0  0
    8.9110    2.2760    2.5003 N   0  0  0  1  0  0  0  0  0  0  0  0
    8.4630    1.6016    1.3984 N   0  0  0  1  0  0  0  0  0  0  0  0
    9.2964    1.1458    0.3374 C   0  0  0  1  0  0  0  0  0  0  0  0
   10.4622    0.4596    0.6205 C   0  0  0  1  0  0  0  0  0  0  0  0
   11.2707    0.0112   -0.4124 C   0  0  0  1  0  0  0  0  0  0  0  0
   10.9138    0.2550   -1.7252 C   0  0  0  1  0  0  0  0  0  0  0  0
    9.7445    0.9434   -2.0090 C   0  0  0  1  0  0  0  0  0  0  0  0
    8.9383    1.3904   -0.9792 C   0  0  0  1  0  0  0  0  0  0  0  0
   11.6580   -0.2617   -2.7317 O   0  0  0  1  0  0  0  0  0  0  0  0
   11.3918   -1.6202   -3.1139 C   0  0  0  1  0  0  0  0  0  0  0  0
    4.2647    0.2010   -0.0180 N   0  0  0  1  0  0  0  0  0  0  0  0
    4.6781   -0.2705   -1.3427 C   0  0  0  1  0  0  0  0  0  0  0  0
    3.4973   -0.2854   -2.3211 C   0  0  0  1  0  0  0  0  0  0  0  0
    3.8130   -1.3135   -3.4027 C   0  0  0  1  0  0  0  0  0  0  0  0
    4.9311   -2.2148   -2.7723 C   0  0  0  1  0  0  0  0  0  0  0  0
    5.0931   -1.7796   -1.3041 C   0  0  0  1  0  0  0  0  0  0  0  0
    6.2231   -2.0229   -3.5108 N   0  0  0  1  0  0  0  0  0  0  0  0
    4.8518    2.3277    3.7240 H   0  0  0  1  0  0  0  0  0  0  0  0
    7.8625    3.0200    4.1384 H   0  0  0  1  0  0  0  0  0  0  0  0
   10.7329    0.2796    1.6084 H   0  0  0  1  0  0  0  0  0  0  0  0
   12.1459   -0.5087   -0.1994 H   0  0  0  1  0  0  0  0  0  0  0  0
    9.4738    1.1234   -2.9969 H   0  0  0  1  0  0  0  0  0  0  0  0
    8.0631    1.9103   -1.1921 H   0  0  0  1  0  0  0  0  0  0  0  0
   10.7258   -1.6317   -3.9513 H   0  0  0  1  0  0  0  0  0  0  0  0
   10.9420   -2.1396   -2.2936 H   0  0  0  1  0  0  0  0  0  0  0  0
   12.3092   -2.1015   -3.3815 H   0  0  0  1  0  0  0  0  0  0  0  0
    3.3298    0.0719    0.2462 H   0  0  0  1  0  0  0  0  0  0  0  0
    5.4761    0.3422   -1.7069 H   0  0  0  1  0  0  0  0  0  0  0  0
    3.3751    0.6823   -2.7612 H   0  0  0  1  0  0  0  0  0  0  0  0
    2.6000   -0.5597   -1.8069 H   0  0  0  1  0  0  0  0  0  0  0  0
    2.9457   -1.8948   -3.6366 H   0  0  0  1  0  0  0  0  0  0  0  0
    4.1702   -0.8323   -4.2892 H   0  0  0  1  0  0  0  0  0  0  0  0
    4.6421   -3.2440   -2.8196 H   0  0  0  1  0  0  0  0  0  0  0  0
    4.4467   -2.3408   -0.6621 H   0  0  0  1  0  0  0  0  0  0  0  0
    6.1060   -1.8925   -0.9782 H   0  0  0  1  0  0  0  0  0  0  0  0
    6.9235   -2.5646   -3.0909 H   0  0  0  1  0  0  0  0  0  0  0  0
    6.4793   -1.0774   -3.4801 H   0  0  0  1  0  0  0  0  0  0  0  0
  1  2  4  0  0  0  0
  1  6  4  0  0  0  0
  1 18  1  0  0  0  0
  2  3  4  0  0  0  0
  3  4  4  0  0  0  0
  3 25  1  0  0  0  0
  4  5  4  0  0  0  0
  4  7  4  0  0  0  0
  5  6  4  0  0  0  0
  5  9  4  0  0  0  0
  7  8  4  0  0  0  0
  7 26  1  0  0  0  0
  8  9  4  0  0  0  0
  9 10  1  0  0  0  0
 10 11  4  0  0  0  0
 10 15  4  0  0  0  0
 11 12  4  0  0  0  0
 11 27  1  0  0  0  0
 12 13  4  0  0  0  0
 12 28  1  0  0  0  0
 13 14  4  0  0  0  0
 13 16  1  0  0  0  0
 14 15  4  0  0  0  0
 14 29  1  0  0  0  0
 15 30  1  0  0  0  0
 16 17  1  0  0  0  0
 17 31  1  0  0  0  0
 17 32  1  0  0  0  0
 17 33  1  0  0  0  0
 18 19  1  0  0  0  0
 18 34  1  0  0  0  0
 19 20  1  0  0  0  0
 19 23  1  0  0  0  0
 19 35  1  0  0  0  0
 20 21  1  0  0  0  0
 20 36  1  0  0  0  0
 20 37  1  0  0  0  0
 21 22  1  0  0  0  0
 21 38  1  0  0  0  0
 21 39  1  0  0  0  0
 22 23  1  0  0  0  0
 22 24  1  0  0  0  0
 22 40  1  0  0  0  0
 23 41  1  0  0  0  0
 23 42  1  0  0  0  0
 24 43  1  0  0  0  0
 24 44  1  0  0  0  0
M  END
> <ConfClashScore>
0 

> <ConfOneFourInteractionScore>
-0.984337 

> <ConfScore>
0.319588 

> <ConfScorePBest>
0.00147405 

> <ConfTolerance>
0.979937 

$$$$
c22.sdf
 OpenBabel04162418103D

 44 47  0  0  0  0  0  0  0  0999 V2000
    3.8367    1.4008    0.3798 C   0  0  0  1  0  0  0  0  0  0  0  0
    4.1670    1.7470    1.6281 N   0  0  0  1  0  0  0  0  0  0  0  0
    3.7494    2.9445    2.0851 C   0  0  0  1  0  0  0  0  0  0  0  0
    2.9764    3.7738    1.2211 C   0  0  0  1  0  0  0  0  0  0  0  0
    2.7228    3.2527   -0.0417 C   0  0  0  1  0  0  0  0  0  0  0  0
    3.1345    2.0586   -0.5304 N   0  0  0  1  0  0  0  0  0  0  0  0
    2.3248    5.0237    1.2154 C   0  0  0  1  0  0  0  0  0  0  0  0
    1.7330    5.2604    0.0675 N   0  0  0  1  0  0  0  0  0  0  0  0
    1.9797    4.1633   -0.7105 N   0  0  0  1  0  0  0  0  0  0  0  0
    1.5206    4.0028   -2.0334 C   0  0  0  1  0  0  0  0  0  0  0  0
    0.2175    4.3723   -2.3083 C   0  0  0  1  0  0  0  0  0  0  0  0
   -0.2836    4.2405   -3.5940 C   0  0  0  1  0  0  0  0  0  0  0  0
    0.5180    3.7347   -4.5999 C   0  0  0  1  0  0  0  0  0  0  0  0
    1.8250    3.3642   -4.3240 C   0  0  0  1  0  0  0  0  0  0  0  0
    2.3248    3.4955   -3.0421 C   0  0  0  1  0  0  0  0  0  0  0  0
    0.1388    3.5560   -5.8875 O   0  0  0  1  0  0  0  0  0  0  0  0
   -1.1892    3.9704   -6.2440 C   0  0  0  1  0  0  0  0  0  0  0  0
    4.2856    0.2028   -0.0111 N   0  0  0  1  0  0  0  0  0  0  0  0
    4.6604   -0.2398   -1.3484 C   0  0  0  1  0  0  0  0  0  0  0  0
    3.4242   -0.3333   -2.2635 C   0  0  0  1  0  0  0  0  0  0  0  0
    3.7643   -1.3877   -3.3315 C   0  0  0  1  0  0  0  0  0  0  0  0
    4.9704   -2.2026   -2.7850 C   0  0  0  1  0  0  0  0  0  0  0  0
    5.2080   -1.7070   -1.3187 C   0  0  0  1  0  0  0  0  0  0  0  0
    6.1773   -1.9530   -3.6139 N   0  0  0  1  0  0  0  0  0  0  0  0
    3.9863    3.2568    3.0484 H   0  0  0  1  0  0  0  0  0  0  0  0
    2.3141    5.6791    2.0229 H   0  0  0  1  0  0  0  0  0  0  0  0
   -0.3871    4.7492   -1.5506 H   0  0  0  1  0  0  0  0  0  0  0  0
   -1.2629    4.5223   -3.8018 H   0  0  0  1  0  0  0  0  0  0  0  0
    2.4296    2.9873   -5.0817 H   0  0  0  1  0  0  0  0  0  0  0  0
    3.3041    3.2137   -2.8343 H   0  0  0  1  0  0  0  0  0  0  0  0
   -1.6288    3.2417   -6.8925 H   0  0  0  1  0  0  0  0  0  0  0  0
   -1.1453    4.9142   -6.7462 H   0  0  0  1  0  0  0  0  0  0  0  0
   -1.7830    4.0642   -5.3588 H   0  0  0  1  0  0  0  0  0  0  0  0
    4.3745   -0.4681    0.6976 H   0  0  0  1  0  0  0  0  0  0  0  0
    5.3875    0.4311   -1.7559 H   0  0  0  1  0  0  0  0  0  0  0  0
    2.5672   -0.6382   -1.7001 H   0  0  0  1  0  0  0  0  0  0  0  0
    3.2306    0.6129   -2.7241 H   0  0  0  1  0  0  0  0  0  0  0  0
    4.0290   -0.9091   -4.2511 H   0  0  0  1  0  0  0  0  0  0  0  0
    2.9261   -2.0329   -3.4929 H   0  0  0  1  0  0  0  0  0  0  0  0
    4.7435   -3.2483   -2.7902 H   0  0  0  1  0  0  0  0  0  0  0  0
    4.6647   -2.3058   -0.6179 H   0  0  0  1  0  0  0  0  0  0  0  0
    6.2489   -1.7237   -1.0714 H   0  0  0  1  0  0  0  0  0  0  0  0
    6.8791   -2.5923   -3.3708 H   0  0  0  1  0  0  0  0  0  0  0  0
    6.4982   -1.0404   -3.4567 H   0  0  0  1  0  0  0  0  0  0  0  0
  1  2  4  0  0  0  0
  1  6  4  0  0  0  0
  1 18  1  0  0  0  0
  2  3  4  0  0  0  0
  3  4  4  0  0  0  0
  3 25  1  0  0  0  0
  4  5  4  0  0  0  0
  4  7  4  0  0  0  0
  5  6  4  0  0  0  0
  5  9  4  0  0  0  0
  7  8  4  0  0  0  0
  7 26  1  0  0  0  0
  8  9  4  0  0  0  0
  9 10  1  0  0  0  0
 10 11  4  0  0  0  0
 10 15  4  0  0  0  0
 11 12  4  0  0  0  0
 11 27  1  0  0  0  0
 12 13  4  0  0  0  0
 12 28  1  0  0  0  0
 13 14  4  0  0  0  0
 13 16  1  0  0  0  0
 14 15  4  0  0  0  0
 14 29  1  0  0  0  0
 15 30  1  0  0  0  0
 16 17  1  0  0  0  0
 17 31  1  0  0  0  0
 17 32  1  0  0  0  0
 17 33  1  0  0  0  0
 18 19  1  0  0  0  0
 18 34  1  0  0  0  0
 19 20  1  0  0  0  0
 19 23  1  0  0  0  0
 19 35  1  0  0  0  0
 20 21  1  0  0  0  0
 20 36  1  0  0  0  0
 20 37  1  0  0  0  0
 21 22  1  0  0  0  0
 21 38  1  0  0  0  0
 21 39  1  0  0  0  0
 22 23  1  0  0  0  0
 22 24  1  0  0  0  0
 22 40  1  0  0  0  0
 23 41  1  0  0  0  0
 23 42  1  0  0  0  0
 24 43  1  0  0  0  0
 24 44  1  0  0  0  0
M  END
> <ConfClashScore>
0 

> <ConfOneFourInteractionScore>
-0.987888 

> <ConfScore>
0.347164 

> <ConfScorePBest>
0.00146072 

> <ConfTolerance>
1.04102 

$$$$
c22.sdf
 OpenBabel04162418103D

 44 47  0  0  0  0  0  0  0  0999 V2000
    2.7273   -1.0358    0.9575 C   0  0  0  1  0  0  0  0  0  0  0  0
    3.2623   -0.0304    1.6575 N   0  0  0  1  0  0  0  0  0  0  0  0
    2.8184    0.1737    2.9139 C   0  0  0  1  0  0  0  0  0  0  0  0
    1.8106   -0.6915    3.4314 C   0  0  0  1  0  0  0  0  0  0  0  0
    1.3725   -1.6868    2.5665 C   0  0  0  1  0  0  0  0  0  0  0  0
    1.7939   -1.9112    1.2992 N   0  0  0  1  0  0  0  0  0  0  0  0
    1.0647   -0.9046    4.6082 C   0  0  0  1  0  0  0  0  0  0  0  0
    0.2427   -1.9214    4.4877 N   0  0  0  1  0  0  0  0  0  0  0  0
    0.4340   -2.4054    3.2232 N   0  0  0  1  0  0  0  0  0  0  0  0
   -0.2553   -3.5069    2.6769 C   0  0  0  1  0  0  0  0  0  0  0  0
   -0.4707   -3.5146    1.3117 C   0  0  0  1  0  0  0  0  0  0  0  0
   -1.1387   -4.5762    0.7216 C   0  0  0  1  0  0  0  0  0  0  0  0
   -1.5941   -5.6243    1.4990 C   0  0  0  1  0  0  0  0  0  0  0  0
   -1.3781   -5.6164    2.8683 C   0  0  0  1  0  0  0  0  0  0  0  0
   -0.7120   -4.5580    3.4568 C   0  0  0  1  0  0  0  0  0  0  0  0
   -2.2428   -6.6104    0.8065 O   0  0  0  1  0  0  0  0  0  0  0  0
   -2.5590   -6.2291   -0.5415 C   0  0  0  1  0  0  0  0  0  0  0  0
    3.2094   -1.1800   -0.2804 N   0  0  0  1  0  0  0  0  0  0  0  0
    4.2614   -0.4761   -1.0153 C   0  0  0  1  0  0  0  0  0  0  0  0
    3.7984   -0.0904   -2.4262 C   0  0  0  1  0  0  0  0  0  0  0  0
    3.8876   -1.3824   -3.2288 C   0  0  0  1  0  0  0  0  0  0  0  0
    5.0158   -2.1896   -2.5761 C   0  0  0  1  0  0  0  0  0  0  0  0
    5.4411   -1.4006   -1.3276 C   0  0  0  1  0  0  0  0  0  0  0  0
    6.1631   -2.3259   -3.5159 N   0  0  0  1  0  0  0  0  0  0  0  0
    3.2033    0.9465    3.4938 H   0  0  0  1  0  0  0  0  0  0  0  0
    1.1544   -0.3264    5.4680 H   0  0  0  1  0  0  0  0  0  0  0  0
   -0.1315   -2.7241    0.7273 H   0  0  0  1  0  0  0  0  0  0  0  0
   -1.2972   -4.5840   -0.3062 H   0  0  0  1  0  0  0  0  0  0  0  0
   -1.7172   -6.4069    3.4528 H   0  0  0  1  0  0  0  0  0  0  0  0
   -0.5535   -4.5501    4.4846 H   0  0  0  1  0  0  0  0  0  0  0  0
   -3.1155   -7.0121   -1.0130 H   0  0  0  1  0  0  0  0  0  0  0  0
   -1.6535   -6.0582   -1.0853 H   0  0  0  1  0  0  0  0  0  0  0  0
   -3.1436   -5.3330   -0.5306 H   0  0  0  1  0  0  0  0  0  0  0  0
    2.7760   -1.8932   -0.7941 H   0  0  0  1  0  0  0  0  0  0  0  0
    4.5737    0.3821   -0.4577 H   0  0  0  1  0  0  0  0  0  0  0  0
    4.4404    0.6575   -2.8427 H   0  0  0  1  0  0  0  0  0  0  0  0
    2.7922    0.2730   -2.4069 H   0  0  0  1  0  0  0  0  0  0  0  0
    2.9640   -1.9201   -3.1764 H   0  0  0  1  0  0  0  0  0  0  0  0
    4.1210   -1.1723   -4.2517 H   0  0  0  1  0  0  0  0  0  0  0  0
    4.6640   -3.1612   -2.2986 H   0  0  0  1  0  0  0  0  0  0  0  0
    6.3230   -0.8288   -1.5278 H   0  0  0  1  0  0  0  0  0  0  0  0
    5.6242   -2.0646   -0.5088 H   0  0  0  1  0  0  0  0  0  0  0  0
    6.5286   -1.4391   -3.7168 H   0  0  0  1  0  0  0  0  0  0  0  0
    5.8571   -2.7485   -4.3455 H   0  0  0  1  0  0  0  0  0  0  0  0
  1  2  4  0  0  0  0
  1  6  4  0  0  0  0
  1 18  1  0  0  0  0
  2  3  4  0  0  0  0
  3  4  4  0  0  0  0
  3 25  1  0  0  0  0
  4  5  4  0  0  0  0
  4  7  4  0  0  0  0
  5  6  4  0  0  0  0
  5  9  4  0  0  0  0
  7  8  4  0  0  0  0
  7 26  1  0  0  0  0
  8  9  4  0  0  0  0
  9 10  1  0  0  0  0
 10 11  4  0  0  0  0
 10 15  4  0  0  0  0
 11 12  4  0  0  0  0
 11 27  1  0  0  0  0
 12 13  4  0  0  0  0
 12 28  1  0  0  0  0
 13 14  4  0  0  0  0
 13 16  1  0  0  0  0
 14 15  4  0  0  0  0
 14 29  1  0  0  0  0
 15 30  1  0  0  0  0
 16 17  1  0  0  0  0
 17 31  1  0  0  0  0
 17 32  1  0  0  0  0
 17 33  1  0  0  0  0
 18 19  1  0  0  0  0
 18 34  1  0  0  0  0
 19 20  1  0  0  0  0
 19 23  1  0  0  0  0
 19 35  1  0  0  0  0
 20 21  1  0  0  0  0
 20 36  1  0  0  0  0
 20 37  1  0  0  0  0
 21 22  1  0  0  0  0
 21 38  1  0  0  0  0
 21 39  1  0  0  0  0
 22 23  1  0  0  0  0
 22 24  1  0  0  0  0
 22 40  1  0  0  0  0
 23 41  1  0  0  0  0
 23 42  1  0  0  0  0
 24 43  1  0  0  0  0
 24 44  1  0  0  0  0
M  END
> <ConfClashScore>
0.00416815 

> <ConfOneFourInteractionScore>
-0.984337 

> <ConfScore>
0.347779 

> <ConfScorePBest>
0.0014474 

> <ConfTolerance>
1.26282 

$$$$
c22.sdf
 OpenBabel04162418103D

 44 47  0  0  0  0  0  0  0  0999 V2000
    3.1951   -1.1508    0.8027 C   0  0  0  1  0  0  0  0  0  0  0  0
    3.0829   -0.8998    2.1109 N   0  0  0  1  0  0  0  0  0  0  0  0
    2.2814   -1.6990    2.8430 C   0  0  0  1  0  0  0  0  0  0  0  0
    1.6023   -2.7687    2.1899 C   0  0  0  1  0  0  0  0  0  0  0  0
    1.8392   -2.8854    0.8257 C   0  0  0  1  0  0  0  0  0  0  0  0
    2.6318   -2.0947    0.0638 N   0  0  0  1  0  0  0  0  0  0  0  0
    0.7216   -3.8305    2.4789 C   0  0  0  1  0  0  0  0  0  0  0  0
    0.4338   -4.5316    1.4066 N   0  0  0  1  0  0  0  0  0  0  0  0
    1.1263   -3.9458    0.3834 N   0  0  0  1  0  0  0  0  0  0  0  0
    1.1005   -4.3885   -0.9546 C   0  0  0  1  0  0  0  0  0  0  0  0
    1.0829   -3.5130   -2.0238 C   0  0  0  1  0  0  0  0  0  0  0  0
    1.0632   -4.0029   -3.3204 C   0  0  0  1  0  0  0  0  0  0  0  0
    1.0556   -5.3668   -3.5439 C   0  0  0  1  0  0  0  0  0  0  0  0
    1.0732   -6.2448   -2.4714 C   0  0  0  1  0  0  0  0  0  0  0  0
    1.0929   -5.7565   -1.1786 C   0  0  0  1  0  0  0  0  0  0  0  0
    1.0318   -5.9571   -4.7547 O   0  0  0  1  0  0  0  0  0  0  0  0
    0.8780   -7.3953   -4.7316 C   0  0  0  1  0  0  0  0  0  0  0  0
    4.0016   -0.3195    0.1363 N   0  0  0  1  0  0  0  0  0  0  0  0
    4.4626   -0.2976   -1.2537 C   0  0  0  1  0  0  0  0  0  0  0  0
    3.2411   -0.3923   -2.1879 C   0  0  0  1  0  0  0  0  0  0  0  0
    4.0490   -1.0128   -3.3391 C   0  0  0  1  0  0  0  0  0  0  0  0
    4.8936   -2.1599   -2.7289 C   0  0  0  1  0  0  0  0  0  0  0  0
    5.4362   -1.4723   -1.4774 C   0  0  0  1  0  0  0  0  0  0  0  0
    5.9932   -2.5819   -3.6459 N   0  0  0  1  0  0  0  0  0  0  0  0
    2.1610   -1.5385    3.8635 H   0  0  0  1  0  0  0  0  0  0  0  0
    0.3453   -4.0341    3.4268 H   0  0  0  1  0  0  0  0  0  0  0  0
    1.0845   -2.4866   -1.8556 H   0  0  0  1  0  0  0  0  0  0  0  0
    1.0540   -3.3440   -4.1250 H   0  0  0  1  0  0  0  0  0  0  0  0
    1.0716   -7.2712   -2.6396 H   0  0  0  1  0  0  0  0  0  0  0  0
    1.1021   -6.4153   -0.3739 H   0  0  0  1  0  0  0  0  0  0  0  0
   -0.0726   -7.6461   -4.3092 H   0  0  0  1  0  0  0  0  0  0  0  0
    1.6567   -7.8275   -4.1385 H   0  0  0  1  0  0  0  0  0  0  0  0
    0.9361   -7.7760   -5.7299 H   0  0  0  1  0  0  0  0  0  0  0  0
    4.3514    0.4158    0.6817 H   0  0  0  1  0  0  0  0  0  0  0  0
    4.9764    0.6212   -1.4451 H   0  0  0  1  0  0  0  0  0  0  0  0
    2.8206    0.5608   -2.4321 H   0  0  0  1  0  0  0  0  0  0  0  0
    2.4726   -1.0369   -1.8151 H   0  0  0  1  0  0  0  0  0  0  0  0
    4.6902   -0.2767   -3.7770 H   0  0  0  1  0  0  0  0  0  0  0  0
    3.3875   -1.4000   -4.0857 H   0  0  0  1  0  0  0  0  0  0  0  0
    4.2888   -3.0075   -2.4827 H   0  0  0  1  0  0  0  0  0  0  0  0
    6.4323   -1.1165   -1.6393 H   0  0  0  1  0  0  0  0  0  0  0  0
    5.4269   -2.1398   -0.6412 H   0  0  0  1  0  0  0  0  0  0  0  0
    6.5648   -3.2359   -3.1920 H   0  0  0  1  0  0  0  0  0  0  0  0
    6.5276   -1.7995   -3.8965 H   0  0  0  1  0  0  0  0  0  0  0  0
  1  2  4  0  0  0  0
  1  6  4  0  0  0  0
  1 18  1  0  0  0  0
  2  3  4  0  0  0  0
  3  4  4  0  0  0  0
  3 25  1  0  0  0  0
  4  5  4  0  0  0  0
  4  7  4  0  0  0  0
  5  6  4  0  0  0  0
  5  9  4  0  0  0  0
  7  8  4  0  0  0  0
  7 26  1  0  0  0  0
  8  9  4  0  0  0  0
  9 10  1  0  0  0  0
 10 11  4  0  0  0  0
 10 15  4  0  0  0  0
 11 12  4  0  0  0  0
 11 27  1  0  0  0  0
 12 13  4  0  0  0  0
 12 28  1  0  0  0  0
 13 14  4  0  0  0  0
 13 16  1  0  0  0  0
 14 15  4  0  0  0  0
 14 29  1  0  0  0  0
 15 30  1  0  0  0  0
 16 17  1  0  0  0  0
 17 31  1  0  0  0  0
 17 32  1  0  0  0  0
 17 33  1  0  0  0  0
 18 19  1  0  0  0  0
 18 34  1  0  0  0  0
 19 20  1  0  0  0  0
 19 23  1  0  0  0  0
 19 35  1  0  0  0  0
 20 21  1  0  0  0  0
 20 36  1  0  0  0  0
 20 37  1  0  0  0  0
 21 22  1  0  0  0  0
 21 38  1  0  0  0  0
 21 39  1  0  0  0  0
 22 23  1  0  0  0  0
 22 24  1  0  0  0  0
 22 40  1  0  0  0  0
 23 41  1  0  0  0  0
 23 42  1  0  0  0  0
 24 43  1  0  0  0  0
 24 44  1  0  0  0  0
M  END
> <ConfClashScore>
0.00375913 

> <ConfOneFourInteractionScore>
-0.982693 

> <ConfScore>
0.460494 

> <ConfScorePBest>
0.00143407 

> <ConfTolerance>
0.778292 

$$$$
c22.sdf
 OpenBabel04162418103D

 44 47  0  0  0  0  0  0  0  0999 V2000
    2.1522   -0.7559    0.2938 C   0  0  0  1  0  0  0  0  0  0  0  0
    1.1604   -1.6363    0.1254 N   0  0  0  1  0  0  0  0  0  0  0  0
   -0.0859   -1.2617    0.4770 C   0  0  0  1  0  0  0  0  0  0  0  0
   -0.2829    0.0487    1.0023 C   0  0  0  1  0  0  0  0  0  0  0  0
    0.8600    0.8323    1.1035 C   0  0  0  1  0  0  0  0  0  0  0  0
    2.1236    0.4813    0.7658 N   0  0  0  1  0  0  0  0  0  0  0  0
   -1.3161    0.8833    1.4742 C   0  0  0  1  0  0  0  0  0  0  0  0
   -0.8642    2.0612    1.8382 N   0  0  0  1  0  0  0  0  0  0  0  0
    0.4834    2.0289    1.6082 N   0  0  0  1  0  0  0  0  0  0  0  0
    1.3586    3.0953    1.8621 C   0  0  0  1  0  0  0  0  0  0  0  0
    1.3365    3.5860    3.1540 C   0  0  0  1  0  0  0  0  0  0  0  0
    2.1677    4.6365    3.5105 C   0  0  0  1  0  0  0  0  0  0  0  0
    3.0147    5.1967    2.5729 C   0  0  0  1  0  0  0  0  0  0  0  0
    3.0367    4.7044    1.2772 C   0  0  0  1  0  0  0  0  0  0  0  0
    2.2080    3.6570    0.9216 C   0  0  0  1  0  0  0  0  0  0  0  0
    3.8649    6.2256    2.8020 O   0  0  0  1  0  0  0  0  0  0  0  0
    3.9604    6.7100    4.1507 C   0  0  0  1  0  0  0  0  0  0  0  0
    3.3739   -1.1968   -0.0749 N   0  0  0  1  0  0  0  0  0  0  0  0
    4.2549   -0.4813   -0.9993 C   0  0  0  1  0  0  0  0  0  0  0  0
    3.5210   -0.1955   -2.3111 C   0  0  0  1  0  0  0  0  0  0  0  0
    4.2021   -1.0535   -3.3687 C   0  0  0  1  0  0  0  0  0  0  0  0
    4.9596   -2.1416   -2.6201 C   0  0  0  1  0  0  0  0  0  0  0  0
    5.4918   -1.3666   -1.3571 C   0  0  0  1  0  0  0  0  0  0  0  0
    6.0780   -2.6750   -3.4340 N   0  0  0  1  0  0  0  0  0  0  0  0
   -0.8873   -1.9154    0.3673 H   0  0  0  1  0  0  0  0  0  0  0  0
   -2.3154    0.6004    1.5277 H   0  0  0  1  0  0  0  0  0  0  0  0
    0.6963    3.1672    3.8585 H   0  0  0  1  0  0  0  0  0  0  0  0
    2.1540    5.0031    4.4836 H   0  0  0  1  0  0  0  0  0  0  0  0
    3.6769    5.1232    0.5727 H   0  0  0  1  0  0  0  0  0  0  0  0
    2.2217    3.2904   -0.0515 H   0  0  0  1  0  0  0  0  0  0  0  0
    3.3094    7.5499    4.2754 H   0  0  0  1  0  0  0  0  0  0  0  0
    4.9683    7.0072    4.3521 H   0  0  0  1  0  0  0  0  0  0  0  0
    3.6745    5.9336    4.8293 H   0  0  0  1  0  0  0  0  0  0  0  0
    3.6895   -2.0462    0.2984 H   0  0  0  1  0  0  0  0  0  0  0  0
    4.5758    0.4351   -0.5497 H   0  0  0  1  0  0  0  0  0  0  0  0
    3.6026    0.8409   -2.5644 H   0  0  0  1  0  0  0  0  0  0  0  0
    2.4883   -0.4619   -2.2249 H   0  0  0  1  0  0  0  0  0  0  0  0
    3.4713   -1.4908   -4.0165 H   0  0  0  1  0  0  0  0  0  0  0  0
    4.8809   -0.4602   -3.9449 H   0  0  0  1  0  0  0  0  0  0  0  0
    4.3093   -2.9430   -2.3379 H   0  0  0  1  0  0  0  0  0  0  0  0
    6.3460   -0.7681   -1.5958 H   0  0  0  1  0  0  0  0  0  0  0  0
    5.7370   -2.0374   -0.5604 H   0  0  0  1  0  0  0  0  0  0  0  0
    6.6540   -1.9364   -3.7224 H   0  0  0  1  0  0  0  0  0  0  0  0
    5.7185   -3.1350   -4.2211 H   0  0  0  1  0  0  0  0  0  0  0  0
  1  2  4  0  0  0  0
  1  6  4  0  0  0  0
  1 18  1  0  0  0  0
  2  3  4  0  0  0  0
  3  4  4  0  0  0  0
  3 25  1  0  0  0  0
  4  5  4  0  0  0  0
  4  7  4  0  0  0  0
  5  6  4  0  0  0  0
  5  9  4  0  0  0  0
  7  8  4  0  0  0  0
  7 26  1  0  0  0  0
  8  9  4  0  0  0  0
  9 10  1  0  0  0  0
 10 11  4  0  0  0  0
 10 15  4  0  0  0  0
 11 12  4  0  0  0  0
 11 27  1  0  0  0  0
 12 13  4  0  0  0  0
 12 28  1  0  0  0  0
 13 14  4  0  0  0  0
 13 16  1  0  0  0  0
 14 15  4  0  0  0  0
 14 29  1  0  0  0  0
 15 30  1  0  0  0  0
 16 17  1  0  0  0  0
 17 31  1  0  0  0  0
 17 32  1  0  0  0  0
 17 33  1  0  0  0  0
 18 19  1  0  0  0  0
 18 34  1  0  0  0  0
 19 20  1  0  0  0  0
 19 23  1  0  0  0  0
 19 35  1  0  0  0  0
 20 21  1  0  0  0  0
 20 36  1  0  0  0  0
 20 37  1  0  0  0  0
 21 22  1  0  0  0  0
 21 38  1  0  0  0  0
 21 39  1  0  0  0  0
 22 23  1  0  0  0  0
 22 24  1  0  0  0  0
 22 40  1  0  0  0  0
 23 41  1  0  0  0  0
 23 42  1  0  0  0  0
 24 43  1  0  0  0  0
 24 44  1  0  0  0  0
M  END
> <ConfClashScore>
0 

> <ConfOneFourInteractionScore>
-0.981704 

> <ConfScore>
0.499479 

> <ConfScorePBest>
0.00142074 

> <ConfTolerance>
1.24839 

$$$$
c22.sdf
 OpenBabel04162418103D

 44 47  0  0  0  0  0  0  0  0999 V2000
    3.1148   -1.6280    0.4895 C   0  0  0  1  0  0  0  0  0  0  0  0
    3.3348   -2.6993   -0.2793 N   0  0  0  1  0  0  0  0  0  0  0  0
    2.6294   -3.8190   -0.0227 C   0  0  0  1  0  0  0  0  0  0  0  0
    1.6859   -3.8024    1.0457 C   0  0  0  1  0  0  0  0  0  0  0  0
    1.5835   -2.6014    1.7368 C   0  0  0  1  0  0  0  0  0  0  0  0
    2.2827   -1.4646    1.5070 N   0  0  0  1  0  0  0  0  0  0  0  0
    0.7463   -4.6436    1.6752 C   0  0  0  1  0  0  0  0  0  0  0  0
    0.1279   -4.0337    2.6599 N   0  0  0  1  0  0  0  0  0  0  0  0
    0.6468   -2.7691    2.6974 N   0  0  0  1  0  0  0  0  0  0  0  0
    0.2556   -1.7694    3.6184 C   0  0  0  1  0  0  0  0  0  0  0  0
   -1.0690   -1.3829    3.6975 C   0  0  0  1  0  0  0  0  0  0  0  0
   -1.4532   -0.4070    4.6038 C   0  0  0  1  0  0  0  0  0  0  0  0
   -0.5109    0.1833    5.4248 C   0  0  0  1  0  0  0  0  0  0  0  0
    0.8176   -0.2044    5.3454 C   0  0  0  1  0  0  0  0  0  0  0  0
    1.2008   -1.1775    4.4417 C   0  0  0  1  0  0  0  0  0  0  0  0
   -0.7655    1.1470    6.3415 O   0  0  0  1  0  0  0  0  0  0  0  0
   -2.1342    1.5488    6.5083 C   0  0  0  1  0  0  0  0  0  0  0  0
    3.8540   -0.5471    0.1816 N   0  0  0  1  0  0  0  0  0  0  0  0
    4.4477   -0.3107   -1.1415 C   0  0  0  1  0  0  0  0  0  0  0  0
    3.3630   -0.3431   -2.2233 C   0  0  0  1  0  0  0  0  0  0  0  0
    4.0376   -0.9939   -3.4197 C   0  0  0  1  0  0  0  0  0  0  0  0
    4.8760   -2.0906   -2.7540 C   0  0  0  1  0  0  0  0  0  0  0  0
    5.4350   -1.4329   -1.4892 C   0  0  0  1  0  0  0  0  0  0  0  0
    5.9893   -2.5296   -3.6593 N   0  0  0  1  0  0  0  0  0  0  0  0
    2.7706   -4.6774   -0.5926 H   0  0  0  1  0  0  0  0  0  0  0  0
    0.5648   -5.6282    1.3937 H   0  0  0  1  0  0  0  0  0  0  0  0
   -1.7774   -1.8242    3.0770 H   0  0  0  1  0  0  0  0  0  0  0  0
   -2.4506   -0.1190    4.6661 H   0  0  0  1  0  0  0  0  0  0  0  0
    1.5260    0.2368    5.9659 H   0  0  0  1  0  0  0  0  0  0  0  0
    2.1981   -1.4655    4.3794 H   0  0  0  1  0  0  0  0  0  0  0  0
   -2.7099    0.7184    6.8603 H   0  0  0  1  0  0  0  0  0  0  0  0
   -2.5251    1.8810    5.5693 H   0  0  0  1  0  0  0  0  0  0  0  0
   -2.1873    2.3464    7.2196 H   0  0  0  1  0  0  0  0  0  0  0  0
    4.0055    0.1222    0.8812 H   0  0  0  1  0  0  0  0  0  0  0  0
    4.9465    0.6360   -1.1451 H   0  0  0  1  0  0  0  0  0  0  0  0
    3.0399    0.6480   -2.4645 H   0  0  0  1  0  0  0  0  0  0  0  0
    2.5242   -0.9236   -1.9003 H   0  0  0  1  0  0  0  0  0  0  0  0
    4.6563   -0.2962   -3.9443 H   0  0  0  1  0  0  0  0  0  0  0  0
    3.3177   -1.4099   -4.0932 H   0  0  0  1  0  0  0  0  0  0  0  0
    4.2659   -2.9332   -2.5037 H   0  0  0  1  0  0  0  0  0  0  0  0
    5.4897   -2.1434   -0.6911 H   0  0  0  1  0  0  0  0  0  0  0  0
    6.4084   -1.0300   -1.6761 H   0  0  0  1  0  0  0  0  0  0  0  0
    6.2603   -3.4420   -3.4258 H   0  0  0  1  0  0  0  0  0  0  0  0
    6.7534   -1.9251   -3.5538 H   0  0  0  1  0  0  0  0  0  0  0  0
  1  2  4  0  0  0  0
  1  6  4  0  0  0  0
  1 18  1  0  0  0  0
  2  3  4  0  0  0  0
  3  4  4  0  0  0  0
  3 25  1  0  0  0  0
  4  5  4  0  0  0  0
  4  7  4  0  0  0  0
  5  6  4  0  0  0  0
  5  9  4  0  0  0  0
  7  8  4  0  0  0  0
  7 26  1  0  0  0  0
  8  9  4  0  0  0  0
  9 10  1  0  0  0  0
 10 11  4  0  0  0  0
 10 15  4  0  0  0  0
 11 12  4  0  0  0  0
 11 27  1  0  0  0  0
 12 13  4  0  0  0  0
 12 28  1  0  0  0  0
 13 14  4  0  0  0  0
 13 16  1  0  0  0  0
 14 15  4  0  0  0  0
 14 29  1  0  0  0  0
 15 30  1  0  0  0  0
 16 17  1  0  0  0  0
 17 31  1  0  0  0  0
 17 32  1  0  0  0  0
 17 33  1  0  0  0  0
 18 19  1  0  0  0  0
 18 34  1  0  0  0  0
 19 20  1  0  0  0  0
 19 23  1  0  0  0  0
 19 35  1  0  0  0  0
 20 21  1  0  0  0  0
 20 36  1  0  0  0  0
 20 37  1  0  0  0  0
 21 22  1  0  0  0  0
 21 38  1  0  0  0  0
 21 39  1  0  0  0  0
 22 23  1  0  0  0  0
 22 24  1  0  0  0  0
 22 40  1  0  0  0  0
 23 41  1  0  0  0  0
 23 42  1  0  0  0  0
 24 43  1  0  0  0  0
 24 44  1  0  0  0  0
M  END
> <ConfClashScore>
0 

> <ConfOneFourInteractionScore>
-0.980204 

> <ConfScore>
0.509269 

> <ConfScorePBest>
0.00140741 

> <ConfTolerance>
0.669494 

$$$$
c22.sdf
 OpenBabel04162418103D

 44 47  0  0  0  0  0  0  0  0999 V2000
    2.6004   -2.2336   -0.3645 C   0  0  0  1  0  0  0  0  0  0  0  0
    2.5276   -2.5266   -1.6668 N   0  0  0  1  0  0  0  0  0  0  0  0
    1.6643   -3.4873   -2.0529 C   0  0  0  1  0  0  0  0  0  0  0  0
    0.8732   -4.1344   -1.0592 C   0  0  0  1  0  0  0  0  0  0  0  0
    1.0755   -3.7002    0.2451 C   0  0  0  1  0  0  0  0  0  0  0  0
    1.9390   -2.7443    0.6631 N   0  0  0  1  0  0  0  0  0  0  0  0
   -0.1233   -5.1244   -0.9423 C   0  0  0  1  0  0  0  0  0  0  0  0
   -0.4982   -5.2947    0.3045 N   0  0  0  1  0  0  0  0  0  0  0  0
    0.2444   -4.4123    1.0392 N   0  0  0  1  0  0  0  0  0  0  0  0
    0.1558   -4.2654    2.4314 C   0  0  0  1  0  0  0  0  0  0  0  0
   -0.4012   -3.0784    2.8683 C   0  0  0  1  0  0  0  0  0  0  0  0
   -0.5394   -2.8363    4.2261 C   0  0  0  1  0  0  0  0  0  0  0  0
   -0.1153   -3.7794    5.1432 C   0  0  0  1  0  0  0  0  0  0  0  0
    0.4434   -4.9698    4.7048 C   0  0  0  1  0  0  0  0  0  0  0  0
    0.5813   -5.2115    3.3510 C   0  0  0  1  0  0  0  0  0  0  0  0
   -0.3339   -3.5787    6.4645 O   0  0  0  1  0  0  0  0  0  0  0  0
   -1.0602   -2.3972    6.8374 C   0  0  0  1  0  0  0  0  0  0  0  0
    3.4785   -1.2747   -0.0501 N   0  0  0  1  0  0  0  0  0  0  0  0
    4.2881   -0.4941   -0.9893 C   0  0  0  1  0  0  0  0  0  0  0  0
    3.4995   -0.2013   -2.2397 C   0  0  0  1  0  0  0  0  0  0  0  0
    4.0753   -1.0391   -3.3523 C   0  0  0  1  0  0  0  0  0  0  0  0
    5.0230   -2.0294   -2.6938 C   0  0  0  1  0  0  0  0  0  0  0  0
    5.5033   -1.2956   -1.4294 C   0  0  0  1  0  0  0  0  0  0  0  0
    6.1675   -2.3432   -3.5905 N   0  0  0  1  0  0  0  0  0  0  0  0
    1.5771   -3.7509   -3.0551 H   0  0  0  1  0  0  0  0  0  0  0  0
   -0.5144   -5.6556   -1.7463 H   0  0  0  1  0  0  0  0  0  0  0  0
   -0.7167   -2.3670    2.1784 H   0  0  0  1  0  0  0  0  0  0  0  0
   -0.9623   -1.9448    4.5549 H   0  0  0  1  0  0  0  0  0  0  0  0
    0.7589   -5.6813    5.3947 H   0  0  0  1  0  0  0  0  0  0  0  0
    1.0041   -6.1029    3.0222 H   0  0  0  1  0  0  0  0  0  0  0  0
   -0.6065   -1.5409    6.3838 H   0  0  0  1  0  0  0  0  0  0  0  0
   -1.0417   -2.2885    7.9017 H   0  0  0  1  0  0  0  0  0  0  0  0
   -2.0736   -2.4819    6.5046 H   0  0  0  1  0  0  0  0  0  0  0  0
    3.5915   -1.0745    0.9025 H   0  0  0  1  0  0  0  0  0  0  0  0
    4.5955    0.4186   -0.5230 H   0  0  0  1  0  0  0  0  0  0  0  0
    2.4707   -0.4537   -2.0888 H   0  0  0  1  0  0  0  0  0  0  0  0
    3.5802    0.8367   -2.4864 H   0  0  0  1  0  0  0  0  0  0  0  0
    4.6079   -0.4206   -4.0442 H   0  0  0  1  0  0  0  0  0  0  0  0
    3.2943   -1.5595   -3.8663 H   0  0  0  1  0  0  0  0  0  0  0  0
    4.5113   -2.9337   -2.4380 H   0  0  0  1  0  0  0  0  0  0  0  0
    6.3254   -0.6485   -1.6538 H   0  0  0  1  0  0  0  0  0  0  0  0
    5.7941   -1.9930   -0.6717 H   0  0  0  1  0  0  0  0  0  0  0  0
    5.8402   -2.4751   -4.5048 H   0  0  0  1  0  0  0  0  0  0  0  0
    6.6101   -3.1610   -3.2810 H   0  0  0  1  0  0  0  0  0  0  0  0
  1  2  4  0  0  0  0
  1  6  4  0  0  0  0
  1 18  1  0  0  0  0
  2  3  4  0  0  0  0
  3  4  4  0  0  0  0
  3 25  1  0  0  0  0
  4  5  4  0  0  0  0
  4  7  4  0  0  0  0
  5  6  4  0  0  0  0
  5  9  4  0  0  0  0
  7  8  4  0  0  0  0
  7 26  1  0  0  0  0
  8  9  4  0  0  0  0
  9 10  1  0  0  0  0
 10 11  4  0  0  0  0
 10 15  4  0  0  0  0
 11 12  4  0  0  0  0
 11 27  1  0  0  0  0
 12 13  4  0  0  0  0
 12 28  1  0  0  0  0
 13 14  4  0  0  0  0
 13 16  1  0  0  0  0
 14 15  4  0  0  0  0
 14 29  1  0  0  0  0
 15 30  1  0  0  0  0
 16 17  1  0  0  0  0
 17 31  1  0  0  0  0
 17 32  1  0  0  0  0
 17 33  1  0  0  0  0
 18 19  1  0  0  0  0
 18 34  1  0  0  0  0
 19 20  1  0  0  0  0
 19 23  1  0  0  0  0
 19 35  1  0  0  0  0
 20 21  1  0  0  0  0
 20 36  1  0  0  0  0
 20 37  1  0  0  0  0
 21 22  1  0  0  0  0
 21 38  1  0  0  0  0
 21 39  1  0  0  0  0
 22 23  1  0  0  0  0
 22 24  1  0  0  0  0
 22 40  1  0  0  0  0
 23 41  1  0  0  0  0
 23 42  1  0  0  0  0
 24 43  1  0  0  0  0
 24 44  1  0  0  0  0
M  END
> <ConfClashScore>
0.00431929 

> <ConfOneFourInteractionScore>
-0.982693 

> <ConfScore>
0.635448 

> <ConfScorePBest>
0.00139408 

> <ConfTolerance>
1.11698 

$$$$
c22.sdf
 OpenBabel04162418103D

 44 47  0  0  0  0  0  0  0  0999 V2000
    2.5491   -2.2474   -0.7635 C   0  0  0  1  0  0  0  0  0  0  0  0
    1.5659   -1.8847   -1.5935 N   0  0  0  1  0  0  0  0  0  0  0  0
    0.8025   -2.8554   -2.1341 C   0  0  0  1  0  0  0  0  0  0  0  0
    1.0772   -4.2113   -1.7908 C   0  0  0  1  0  0  0  0  0  0  0  0
    2.1337   -4.4047   -0.9094 C   0  0  0  1  0  0  0  0  0  0  0  0
    2.9214   -3.4516   -0.3568 N   0  0  0  1  0  0  0  0  0  0  0  0
    0.6005   -5.5126   -2.0483 C   0  0  0  1  0  0  0  0  0  0  0  0
    1.2914   -6.4225   -1.4011 N   0  0  0  1  0  0  0  0  0  0  0  0
    2.2406   -5.7357   -0.6959 N   0  0  0  1  0  0  0  0  0  0  0  0
    3.2123   -6.3415    0.1507 C   0  0  0  1  0  0  0  0  0  0  0  0
    3.2771   -5.9944    1.4869 C   0  0  0  1  0  0  0  0  0  0  0  0
    4.2195   -6.5881    2.3121 C   0  0  0  1  0  0  0  0  0  0  0  0
    5.0977   -7.5232    1.7976 C   0  0  0  1  0  0  0  0  0  0  0  0
    5.0325   -7.8712    0.4574 C   0  0  0  1  0  0  0  0  0  0  0  0
    4.0929   -7.2793   -0.3655 C   0  0  0  1  0  0  0  0  0  0  0  0
    5.9708   -8.0273    2.6913 O   0  0  0  1  0  0  0  0  0  0  0  0
    6.9912   -8.8868    2.1323 C   0  0  0  1  0  0  0  0  0  0  0  0
    3.2762   -1.2265   -0.2614 N   0  0  0  1  0  0  0  0  0  0  0  0
    4.2734   -0.4772   -1.0314 C   0  0  0  1  0  0  0  0  0  0  0  0
    3.7431   -0.1039   -2.4060 C   0  0  0  1  0  0  0  0  0  0  0  0
    3.8913   -1.3839   -3.2353 C   0  0  0  1  0  0  0  0  0  0  0  0
    5.0061   -2.2010   -2.5688 C   0  0  0  1  0  0  0  0  0  0  0  0
    5.4794   -1.3548   -1.3836 C   0  0  0  1  0  0  0  0  0  0  0  0
    6.1099   -2.4278   -3.5109 N   0  0  0  1  0  0  0  0  0  0  0  0
    0.0290   -2.6198   -2.7881 H   0  0  0  1  0  0  0  0  0  0  0  0
   -0.2014   -5.7262   -2.6751 H   0  0  0  1  0  0  0  0  0  0  0  0
    2.6190   -5.2879    1.8732 H   0  0  0  1  0  0  0  0  0  0  0  0
    4.2657   -6.3299    3.3185 H   0  0  0  1  0  0  0  0  0  0  0  0
    5.6906   -8.5778    0.0711 H   0  0  0  1  0  0  0  0  0  0  0  0
    4.0467   -7.5375   -1.3719 H   0  0  0  1  0  0  0  0  0  0  0  0
    7.4864   -9.4132    2.9214 H   0  0  0  1  0  0  0  0  0  0  0  0
    7.7034   -8.2935    1.5979 H   0  0  0  1  0  0  0  0  0  0  0  0
    6.5387   -9.5895    1.4642 H   0  0  0  1  0  0  0  0  0  0  0  0
    3.1286   -0.9714    0.6733 H   0  0  0  1  0  0  0  0  0  0  0  0
    4.5715    0.3905   -0.4809 H   0  0  0  1  0  0  0  0  0  0  0  0
    2.7165    0.1920   -2.3475 H   0  0  0  1  0  0  0  0  0  0  0  0
    4.3202    0.6907   -2.8308 H   0  0  0  1  0  0  0  0  0  0  0  0
    4.1597   -1.1436   -4.2428 H   0  0  0  1  0  0  0  0  0  0  0  0
    2.9746   -1.9359   -3.2318 H   0  0  0  1  0  0  0  0  0  0  0  0
    4.6277   -3.1423   -2.2287 H   0  0  0  1  0  0  0  0  0  0  0  0
    5.7470   -1.9788   -0.5566 H   0  0  0  1  0  0  0  0  0  0  0  0
    6.3179   -0.7509   -1.6614 H   0  0  0  1  0  0  0  0  0  0  0  0
    6.7027   -1.6474   -3.5143 H   0  0  0  1  0  0  0  0  0  0  0  0
    5.7476   -2.5664   -4.4109 H   0  0  0  1  0  0  0  0  0  0  0  0
  1  2  4  0  0  0  0
  1  6  4  0  0  0  0
  1 18  1  0  0  0  0
  2  3  4  0  0  0  0
  3  4  4  0  0  0  0
  3 25  1  0  0  0  0
  4  5  4  0  0  0  0
  4  7  4  0  0  0  0
  5  6  4  0  0  0  0
  5  9  4  0  0  0  0
  7  8  4  0  0  0  0
  7 26  1  0  0  0  0
  8  9  4  0  0  0  0
  9 10  1  0  0  0  0
 10 11  4  0  0  0  0
 10 15  4  0  0  0  0
 11 12  4  0  0  0  0
 11 27  1  0  0  0  0
 12 13  4  0  0  0  0
 12 28  1  0  0  0  0
 13 14  4  0  0  0  0
 13 16  1  0  0  0  0
 14 15  4  0  0  0  0
 14 29  1  0  0  0  0
 15 30  1  0  0  0  0
 16 17  1  0  0  0  0
 17 31  1  0  0  0  0
 17 32  1  0  0  0  0
 17 33  1  0  0  0  0
 18 19  1  0  0  0  0
 18 34  1  0  0  0  0
 19 20  1  0  0  0  0
 19 23  1  0  0  0  0
 19 35  1  0  0  0  0
 20 21  1  0  0  0  0
 20 36  1  0  0  0  0
 20 37  1  0  0  0  0
 21 22  1  0  0  0  0
 21 38  1  0  0  0  0
 21 39  1  0  0  0  0
 22 23  1  0  0  0  0
 22 24  1  0  0  0  0
 22 40  1  0  0  0  0
 23 41  1  0  0  0  0
 23 42  1  0  0  0  0
 24 43  1  0  0  0  0
 24 44  1  0  0  0  0
M  END
> <ConfClashScore>
0 

> <ConfOneFourInteractionScore>
-0.978099 

> <ConfScore>
0.63817 

> <ConfScorePBest>
0.00138075 

> <ConfTolerance>
1.20847 

$$$$
c22.sdf
 OpenBabel04162418103D

 44 47  0  0  0  0  0  0  0  0999 V2000
    2.4524   -2.0427   -0.6827 C   0  0  0  1  0  0  0  0  0  0  0  0
    2.6868   -3.3010   -0.2970 N   0  0  0  1  0  0  0  0  0  0  0  0
    1.8404   -4.2614   -0.7195 C   0  0  0  1  0  0  0  0  0  0  0  0
    0.7477   -3.8894   -1.5559 C   0  0  0  1  0  0  0  0  0  0  0  0
    0.6595   -2.5369   -1.8614 C   0  0  0  1  0  0  0  0  0  0  0  0
    1.4891   -1.5500   -1.4466 N   0  0  0  1  0  0  0  0  0  0  0  0
   -0.3421   -4.4684   -2.2370 C   0  0  0  1  0  0  0  0  0  0  0  0
   -1.0406   -3.5705   -2.8927 N   0  0  0  1  0  0  0  0  0  0  0  0
   -0.4197   -2.3747   -2.6598 N   0  0  0  1  0  0  0  0  0  0  0  0
   -0.8516   -1.1262   -3.1872 C   0  0  0  1  0  0  0  0  0  0  0  0
   -0.5339    0.0480   -2.5313 C   0  0  0  1  0  0  0  0  0  0  0  0
   -0.9503    1.2650   -3.0481 C   0  0  0  1  0  0  0  0  0  0  0  0
   -1.6876    1.3038   -4.2165 C   0  0  0  1  0  0  0  0  0  0  0  0
   -2.0062    0.1259   -4.8743 C   0  0  0  1  0  0  0  0  0  0  0  0
   -1.5911   -1.0875   -4.3591 C   0  0  0  1  0  0  0  0  0  0  0  0
   -2.0988    2.4924   -4.7186 O   0  0  0  1  0  0  0  0  0  0  0  0
   -1.8882    3.6567   -3.9046 C   0  0  0  1  0  0  0  0  0  0  0  0
    3.3323   -1.1350   -0.2230 N   0  0  0  1  0  0  0  0  0  0  0  0
    4.3130   -0.4495   -1.0661 C   0  0  0  1  0  0  0  0  0  0  0  0
    3.7325   -0.1197   -2.4474 C   0  0  0  1  0  0  0  0  0  0  0  0
    3.7707   -1.4394   -3.2079 C   0  0  0  1  0  0  0  0  0  0  0  0
    4.9574   -2.2126   -2.6210 C   0  0  0  1  0  0  0  0  0  0  0  0
    5.4738   -1.3750   -1.4405 C   0  0  0  1  0  0  0  0  0  0  0  0
    6.0143   -2.3719   -3.6348 N   0  0  0  1  0  0  0  0  0  0  0  0
    1.9818   -5.2534   -0.4410 H   0  0  0  1  0  0  0  0  0  0  0  0
   -0.5658   -5.4840   -2.2220 H   0  0  0  1  0  0  0  0  0  0  0  0
    0.0174    0.0186   -1.6499 H   0  0  0  1  0  0  0  0  0  0  0  0
   -0.7078    2.1489   -2.5567 H   0  0  0  1  0  0  0  0  0  0  0  0
   -2.5576    0.1553   -5.7557 H   0  0  0  1  0  0  0  0  0  0  0  0
   -1.8335   -1.9715   -4.8505 H   0  0  0  1  0  0  0  0  0  0  0  0
   -2.3682    3.5222   -2.9578 H   0  0  0  1  0  0  0  0  0  0  0  0
   -2.3008    4.5137   -4.3949 H   0  0  0  1  0  0  0  0  0  0  0  0
   -0.8387    3.8018   -3.7548 H   0  0  0  1  0  0  0  0  0  0  0  0
    3.3158   -0.9199    0.7330 H   0  0  0  1  0  0  0  0  0  0  0  0
    4.6599    0.4310   -0.5669 H   0  0  0  1  0  0  0  0  0  0  0  0
    2.7271    0.2358   -2.3590 H   0  0  0  1  0  0  0  0  0  0  0  0
    4.3299    0.6179   -2.9414 H   0  0  0  1  0  0  0  0  0  0  0  0
    2.8606   -1.9825   -3.0610 H   0  0  0  1  0  0  0  0  0  0  0  0
    3.9177   -1.2649   -4.2533 H   0  0  0  1  0  0  0  0  0  0  0  0
    4.6403   -3.1763   -2.2812 H   0  0  0  1  0  0  0  0  0  0  0  0
    5.7304   -2.0070   -0.6161 H   0  0  0  1  0  0  0  0  0  0  0  0
    6.3300   -0.8034   -1.7324 H   0  0  0  1  0  0  0  0  0  0  0  0
    6.8890   -2.3991   -3.1938 H   0  0  0  1  0  0  0  0  0  0  0  0
    5.9859   -1.6156   -4.2574 H   0  0  0  1  0  0  0  0  0  0  0  0
  1  2  4  0  0  0  0
  1  6  4  0  0  0  0
  1 18  1  0  0  0  0
  2  3  4  0  0  0  0
  3  4  4  0  0  0  0
  3 25  1  0  0  0  0
  4  5  4  0  0  0  0
  4  7  4  0  0  0  0
  5  6  4  0  0  0  0
  5  9  4  0  0  0  0
  7  8  4  0  0  0  0
  7 26  1  0  0  0  0
  8  9  4  0  0  0  0
  9 10  1  0  0  0  0
 10 11  4  0  0  0  0
 10 15  4  0  0  0  0
 11 12  4  0  0  0  0
 11 27  1  0  0  0  0
 12 13  4  0  0  0  0
 12 28  1  0  0  0  0
 13 14  4  0  0  0  0
 13 16  1  0  0  0  0
 14 15  4  0  0  0  0
 14 29  1  0  0  0  0
 15 30  1  0  0  0  0
 16 17  1  0  0  0  0
 17 31  1  0  0  0  0
 17 32  1  0  0  0  0
 17 33  1  0  0  0  0
 18 19  1  0  0  0  0
 18 34  1  0  0  0  0
 19 20  1  0  0  0  0
 19 23  1  0  0  0  0
 19 35  1  0  0  0  0
 20 21  1  0  0  0  0
 20 36  1  0  0  0  0
 20 37  1  0  0  0  0
 21 22  1  0  0  0  0
 21 38  1  0  0  0  0
 21 39  1  0  0  0  0
 22 23  1  0  0  0  0
 22 24  1  0  0  0  0
 22 40  1  0  0  0  0
 23 41  1  0  0  0  0
 23 42  1  0  0  0  0
 24 43  1  0  0  0  0
 24 44  1  0  0  0  0
M  END
> <ConfClashScore>
0 

> <ConfOneFourInteractionScore>
-0.980588 

> <ConfScore>
0.68171 

> <ConfScorePBest>
0.00136743 

> <ConfTolerance>
1.06913 

$$$$
c22.sdf
 OpenBabel04162418103D

 44 47  0  0  0  0  0  0  0  0999 V2000
    2.8954   -0.6240    0.5525 C   0  0  0  1  0  0  0  0  0  0  0  0
    2.2484    0.1460    1.4331 N   0  0  0  1  0  0  0  0  0  0  0  0
    1.1951   -0.3853    2.0856 C   0  0  0  1  0  0  0  0  0  0  0  0
    0.8302   -1.7351    1.8090 C   0  0  0  1  0  0  0  0  0  0  0  0
    1.6168   -2.3885    0.8683 C   0  0  0  1  0  0  0  0  0  0  0  0
    2.6744   -1.8794    0.1928 N   0  0  0  1  0  0  0  0  0  0  0  0
   -0.1143   -2.7049    2.2019 C   0  0  0  1  0  0  0  0  0  0  0  0
    0.0605   -3.8414    1.5678 N   0  0  0  1  0  0  0  0  0  0  0  0
    1.1327   -3.6447    0.7423 N   0  0  0  1  0  0  0  0  0  0  0  0
    1.6628   -4.6216   -0.1246 C   0  0  0  1  0  0  0  0  0  0  0  0
    0.8827   -5.2972   -1.0439 C   0  0  0  1  0  0  0  0  0  0  0  0
    1.4570   -6.2451   -1.8764 C   0  0  0  1  0  0  0  0  0  0  0  0
    2.8087   -6.5186   -1.7835 C   0  0  0  1  0  0  0  0  0  0  0  0
    3.5910   -5.8409   -0.8614 C   0  0  0  1  0  0  0  0  0  0  0  0
    3.0185   -4.8957   -0.0313 C   0  0  0  1  0  0  0  0  0  0  0  0
    3.2550   -7.4654   -2.6427 O   0  0  0  1  0  0  0  0  0  0  0  0
    2.3005   -8.4333   -3.1061 C   0  0  0  1  0  0  0  0  0  0  0  0
    3.9332   -0.0310   -0.0649 N   0  0  0  1  0  0  0  0  0  0  0  0
    4.6319   -0.3237   -1.3208 C   0  0  0  1  0  0  0  0  0  0  0  0
    3.6555   -0.2681   -2.5034 C   0  0  0  1  0  0  0  0  0  0  0  0
    3.6816   -1.6585   -3.1470 C   0  0  0  1  0  0  0  0  0  0  0  0
    5.0339   -2.2329   -2.7579 C   0  0  0  1  0  0  0  0  0  0  0  0
    5.1775   -1.7544   -1.3090 C   0  0  0  1  0  0  0  0  0  0  0  0
    6.1233   -1.6870   -3.6199 N   0  0  0  1  0  0  0  0  0  0  0  0
    0.6597    0.1783    2.7765 H   0  0  0  1  0  0  0  0  0  0  0  0
   -0.8594   -2.5402    2.9085 H   0  0  0  1  0  0  0  0  0  0  0  0
   -0.1351   -5.0944   -1.1111 H   0  0  0  1  0  0  0  0  0  0  0  0
    0.8708   -6.7506   -2.5709 H   0  0  0  1  0  0  0  0  0  0  0  0
    4.6088   -6.0437   -0.7942 H   0  0  0  1  0  0  0  0  0  0  0  0
    3.6046   -4.3901    0.6633 H   0  0  0  1  0  0  0  0  0  0  0  0
    2.0602   -9.1072   -2.3106 H   0  0  0  1  0  0  0  0  0  0  0  0
    2.7180   -8.9821   -3.9243 H   0  0  0  1  0  0  0  0  0  0  0  0
    1.4122   -7.9316   -3.4288 H   0  0  0  1  0  0  0  0  0  0  0  0
    4.2905    0.7443    0.4164 H   0  0  0  1  0  0  0  0  0  0  0  0
    5.4272    0.3787   -1.4592 H   0  0  0  1  0  0  0  0  0  0  0  0
    3.9696    0.4726   -3.2088 H   0  0  0  1  0  0  0  0  0  0  0  0
    2.6690   -0.0377   -2.1589 H   0  0  0  1  0  0  0  0  0  0  0  0
    2.8885   -2.2668   -2.7651 H   0  0  0  1  0  0  0  0  0  0  0  0
    3.5944   -1.5844   -4.2108 H   0  0  0  1  0  0  0  0  0  0  0  0
    5.0337   -3.3014   -2.8162 H   0  0  0  1  0  0  0  0  0  0  0  0
    6.2041   -1.7649   -1.0076 H   0  0  0  1  0  0  0  0  0  0  0  0
    4.6050   -2.3717   -0.6487 H   0  0  0  1  0  0  0  0  0  0  0  0
    6.9936   -1.9245   -3.2368 H   0  0  0  1  0  0  0  0  0  0  0  0
    6.0433   -0.7115   -3.6684 H   0  0  0  1  0  0  0  0  0  0  0  0
  1  2  4  0  0  0  0
  1  6  4  0  0  0  0
  1 18  1  0  0  0  0
  2  3  4  0  0  0  0
  3  4  4  0  0  0  0
  3 25  1  0  0  0  0
  4  5  4  0  0  0  0
  4  7  4  0  0  0  0
  5  6  4  0  0  0  0
  5  9  4  0  0  0  0
  7  8  4  0  0  0  0
  7 26  1  0  0  0  0
  8  9  4  0  0  0  0
  9 10  1  0  0  0  0
 10 11  4  0  0  0  0
 10 15  4  0  0  0  0
 11 12  4  0  0  0  0
 11 27  1  0  0  0  0
 12 13  4  0  0  0  0
 12 28  1  0  0  0  0
 13 14  4  0  0  0  0
 13 16  1  0  0  0  0
 14 15  4  0  0  0  0
 14 29  1  0  0  0  0
 15 30  1  0  0  0  0
 16 17  1  0  0  0  0
 17 31  1  0  0  0  0
 17 32  1  0  0  0  0
 17 33  1  0  0  0  0
 18 19  1  0  0  0  0
 18 34  1  0  0  0  0
 19 20  1  0  0  0  0
 19 23  1  0  0  0  0
 19 35  1  0  0  0  0
 20 21  1  0  0  0  0
 20 36  1  0  0  0  0
 20 37  1  0  0  0  0
 21 22  1  0  0  0  0
 21 38  1  0  0  0  0
 21 39  1  0  0  0  0
 22 23  1  0  0  0  0
 22 24  1  0  0  0  0
 22 40  1  0  0  0  0
 23 41  1  0  0  0  0
 23 42  1  0  0  0  0
 24 43  1  0  0  0  0
 24 44  1  0  0  0  0
M  END
> <ConfClashScore>
0.00325378 

> <ConfOneFourInteractionScore>
-0.982693 

> <ConfScore>
1.09005 

> <ConfScorePBest>
0.0013541 

> <ConfTolerance>
1.04547 

$$$$
c22.sdf
 OpenBabel04162418103D

 44 47  0  0  0  0  0  0  0  0999 V2000
    4.1200   -2.2512    0.6961 C   0  0  0  1  0  0  0  0  0  0  0  0
    5.2745   -2.7592    0.2534 N   0  0  0  1  0  0  0  0  0  0  0  0
    5.7654   -3.8511    0.8732 C   0  0  0  1  0  0  0  0  0  0  0  0
    5.0299   -4.4088    1.9594 C   0  0  0  1  0  0  0  0  0  0  0  0
    3.8474   -3.7543    2.2819 C   0  0  0  1  0  0  0  0  0  0  0  0
    3.3337   -2.6535    1.6831 N   0  0  0  1  0  0  0  0  0  0  0  0
    5.0908   -5.4806    2.8728 C   0  0  0  1  0  0  0  0  0  0  0  0
    4.0585   -5.4895    3.6843 N   0  0  0  1  0  0  0  0  0  0  0  0
    3.2889   -4.4204    3.3176 N   0  0  0  1  0  0  0  0  0  0  0  0
    2.0624   -4.0568    3.9433 C   0  0  0  1  0  0  0  0  0  0  0  0
    1.7916   -2.7287    4.2133 C   0  0  0  1  0  0  0  0  0  0  0  0
    0.5955   -2.3743    4.8175 C   0  0  0  1  0  0  0  0  0  0  0  0
   -0.3241   -3.3495    5.1549 C   0  0  0  1  0  0  0  0  0  0  0  0
   -0.0523   -4.6816    4.8841 C   0  0  0  1  0  0  0  0  0  0  0  0
    1.1404   -5.0350    4.2816 C   0  0  0  1  0  0  0  0  0  0  0  0
   -1.5273   -3.1706    5.7499 O   0  0  0  1  0  0  0  0  0  0  0  0
   -1.8713   -1.8336    6.1457 C   0  0  0  1  0  0  0  0  0  0  0  0
    3.6894   -1.1611    0.0360 N   0  0  0  1  0  0  0  0  0  0  0  0
    4.3451   -0.4274   -1.0554 C   0  0  0  1  0  0  0  0  0  0  0  0
    3.3871   -0.2778   -2.2391 C   0  0  0  1  0  0  0  0  0  0  0  0
    3.9634   -1.1366   -3.3566 C   0  0  0  1  0  0  0  0  0  0  0  0
    4.9260   -2.1148   -2.6971 C   0  0  0  1  0  0  0  0  0  0  0  0
    5.5826   -1.2281   -1.5740 C   0  0  0  1  0  0  0  0  0  0  0  0
    5.9498   -2.6046   -3.6680 N   0  0  0  1  0  0  0  0  0  0  0  0
    6.6624   -4.2779    0.5651 H   0  0  0  1  0  0  0  0  0  0  0  0
    5.8603   -6.1797    2.9007 H   0  0  0  1  0  0  0  0  0  0  0  0
    2.4852   -1.9952    3.9631 H   0  0  0  1  0  0  0  0  0  0  0  0
    0.3899   -1.3745    5.0170 H   0  0  0  1  0  0  0  0  0  0  0  0
   -0.7458   -5.4150    5.1342 H   0  0  0  1  0  0  0  0  0  0  0  0
    1.3460   -6.0348    4.0821 H   0  0  0  1  0  0  0  0  0  0  0  0
   -2.9338   -1.7128    6.1102 H   0  0  0  1  0  0  0  0  0  0  0  0
   -1.4107   -1.1349    5.4789 H   0  0  0  1  0  0  0  0  0  0  0  0
   -1.5256   -1.6569    7.1428 H   0  0  0  1  0  0  0  0  0  0  0  0
    2.8209   -0.8084    0.3216 H   0  0  0  1  0  0  0  0  0  0  0  0
    4.6505    0.5363   -0.7049 H   0  0  0  1  0  0  0  0  0  0  0  0
    2.4098   -0.6221   -1.9721 H   0  0  0  1  0  0  0  0  0  0  0  0
    3.3336    0.7456   -2.5468 H   0  0  0  1  0  0  0  0  0  0  0  0
    4.4847   -0.5239   -4.0621 H   0  0  0  1  0  0  0  0  0  0  0  0
    3.1802   -1.6683   -3.8554 H   0  0  0  1  0  0  0  0  0  0  0  0
    4.4040   -2.9491   -2.2771 H   0  0  0  1  0  0  0  0  0  0  0  0
    6.0120   -1.8300   -0.8006 H   0  0  0  1  0  0  0  0  0  0  0  0
    6.3302   -0.5766   -1.9761 H   0  0  0  1  0  0  0  0  0  0  0  0
    6.4457   -3.3512   -3.2716 H   0  0  0  1  0  0  0  0  0  0  0  0
    6.5707   -1.8774   -3.8823 H   0  0  0  1  0  0  0  0  0  0  0  0
  1  2  4  0  0  0  0
  1  6  4  0  0  0  0
  1 18  1  0  0  0  0
  2  3  4  0  0  0  0
  3  4  4  0  0  0  0
  3 25  1  0  0  0  0
  4  5  4  0  0  0  0
  4  7  4  0  0  0  0
  5  6  4  0  0  0  0
  5  9  4  0  0  0  0
  7  8  4  0  0  0  0
  7 26  1  0  0  0  0
  8  9  4  0  0  0  0
  9 10  1  0  0  0  0
 10 11  4  0  0  0  0
 10 15  4  0  0  0  0
 11 12  4  0  0  0  0
 11 27  1  0  0  0  0
 12 13  4  0  0  0  0
 12 28  1  0  0  0  0
 13 14  4  0  0  0  0
 13 16  1  0  0  0  0
 14 15  4  0  0  0  0
 14 29  1  0  0  0  0
 15 30  1  0  0  0  0
 16 17  1  0  0  0  0
 17 31  1  0  0  0  0
 17 32  1  0  0  0  0
 17 33  1  0  0  0  0
 18 19  1  0  0  0  0
 18 34  1  0  0  0  0
 19 20  1  0  0  0  0
 19 23  1  0  0  0  0
 19 35  1  0  0  0  0
 20 21  1  0  0  0  0
 20 36  1  0  0  0  0
 20 37  1  0  0  0  0
 21 22  1  0  0  0  0
 21 38  1  0  0  0  0
 21 39  1  0  0  0  0
 22 23  1  0  0  0  0
 22 24  1  0  0  0  0
 22 40  1  0  0  0  0
 23 41  1  0  0  0  0
 23 42  1  0  0  0  0
 24 43  1  0  0  0  0
 24 44  1  0  0  0  0
M  END
> <ConfClashScore>
0.0204357 

> <ConfOneFourInteractionScore>
-0.978454 

> <ConfScore>
2.21515 

> <ConfScorePBest>
0.00134077 

> <ConfTolerance>
2.4118 

$$$$
