c13.sdf
 OpenBabel04162418043D

 44 47  0  0  0  0  0  0  0  0999 V2000
   26.1141    1.1413  -65.0937 N   0  0  0  1  0  0  0  0  0  0  0  0
   26.9099    0.5015  -65.9693 C   0  0  0  1  0  0  0  0  0  0  0  0
   28.0212   -0.1733  -65.6555 N   0  0  0  1  0  0  0  0  0  0  0  0
   28.3318   -0.1635  -64.3353 C   0  0  0  1  0  0  0  0  0  0  0  0
   27.5588    0.4690  -63.3856 C   0  0  0  1  0  0  0  0  0  0  0  0
   26.4372    1.1513  -63.7859 C   0  0  0  1  0  0  0  0  0  0  0  0
   29.4200   -0.6843  -63.6191 C   0  0  0  1  0  0  0  0  0  0  0  0
   29.3972   -0.3469  -62.3241 N   0  0  0  1  0  0  0  0  0  0  0  0
   28.2073    0.2980  -62.1774 N   0  0  0  1  0  0  0  0  0  0  0  0
   27.7594    0.7139  -60.9012 C   0  0  0  1  0  0  0  0  0  0  0  0
   28.6886    1.0771  -59.9148 C   0  0  0  1  0  0  0  0  0  0  0  0
   28.2411    1.4807  -58.6531 C   0  0  0  1  0  0  0  0  0  0  0  0
   26.8758    1.4818  -58.3532 C   0  0  0  1  0  0  0  0  0  0  0  0
   25.9595    1.1118  -59.3421 C   0  0  0  1  0  0  0  0  0  0  0  0
   26.3935    0.7523  -60.6145 C   0  0  0  1  0  0  0  0  0  0  0  0
   26.3157    1.8177  -57.1540 O   0  0  0  1  0  0  0  0  0  0  0  0
   27.2033    2.2031  -56.1122 C   0  0  0  1  0  0  0  0  0  0  0  0
   26.5848    0.5622  -67.3216 N   0  0  0  1  0  0  0  0  0  0  0  0
   25.9006    1.7537  -67.7996 C   0  0  0  1  0  0  0  0  0  0  0  0
   26.6696    3.0592  -67.5962 C   0  0  0  1  0  0  0  0  0  0  0  0
   26.0576    4.0368  -68.6056 C   0  0  0  1  0  0  0  0  0  0  0  0
   25.5484    3.1630  -69.7589 C   0  0  0  1  0  0  0  0  0  0  0  0
   25.7416    1.7092  -69.3213 C   0  0  0  1  0  0  0  0  0  0  0  0
   24.9695    4.8145  -68.0130 N   0  0  0  1  0  0  0  0  0  0  0  0
   25.8062    1.7426  -63.1356 H   0  0  0  1  0  0  0  0  0  0  0  0
   30.2525   -1.2670  -63.9965 H   0  0  0  1  0  0  0  0  0  0  0  0
   29.7522    1.0957  -60.1309 H   0  0  0  1  0  0  0  0  0  0  0  0
   28.9841    1.7921  -57.9243 H   0  0  0  1  0  0  0  0  0  0  0  0
   24.8960    1.0966  -59.1107 H   0  0  0  1  0  0  0  0  0  0  0  0
   25.6464    0.4507  -61.3444 H   0  0  0  1  0  0  0  0  0  0  0  0
   26.6018    2.4236  -55.2252 H   0  0  0  1  0  0  0  0  0  0  0  0
   27.7499    3.1142  -56.3787 H   0  0  0  1  0  0  0  0  0  0  0  0
   27.8908    1.3905  -55.8534 H   0  0  0  1  0  0  0  0  0  0  0  0
   27.3604    0.2006  -67.8603 H   0  0  0  1  0  0  0  0  0  0  0  0
   24.9024    1.8250  -67.3468 H   0  0  0  1  0  0  0  0  0  0  0  0
   27.7371    2.9249  -67.8134 H   0  0  0  1  0  0  0  0  0  0  0  0
   26.5994    3.4341  -66.5673 H   0  0  0  1  0  0  0  0  0  0  0  0
   26.8193    4.7428  -68.9555 H   0  0  0  1  0  0  0  0  0  0  0  0
   26.1097    3.3674  -70.6782 H   0  0  0  1  0  0  0  0  0  0  0  0
   24.4931    3.3555  -69.9922 H   0  0  0  1  0  0  0  0  0  0  0  0
   26.6391    1.3028  -69.8048 H   0  0  0  1  0  0  0  0  0  0  0  0
   24.8984    1.0819  -69.6268 H   0  0  0  1  0  0  0  0  0  0  0  0
   24.2170    4.2043  -67.6972 H   0  0  0  1  0  0  0  0  0  0  0  0
   24.5608    5.4300  -68.7158 H   0  0  0  1  0  0  0  0  0  0  0  0
  1  2  4  0  0  0  0
  1  6  4  0  0  0  0
  2  3  4  0  0  0  0
  2 18  1  0  0  0  0
  3  4  4  0  0  0  0
  4  5  4  0  0  0  0
  4  7  4  0  0  0  0
  5  6  4  0  0  0  0
  5  9  4  0  0  0  0
  6 25  1  0  0  0  0
  7  8  4  0  0  0  0
  7 26  1  0  0  0  0
  8  9  4  0  0  0  0
  9 10  1  0  0  0  0
 10 11  4  0  0  0  0
 10 15  4  0  0  0  0
 11 12  4  0  0  0  0
 11 27  1  0  0  0  0
 12 13  4  0  0  0  0
 12 28  1  0  0  0  0
 13 14  4  0  0  0  0
 13 16  1  0  0  0  0
 14 15  4  0  0  0  0
 14 29  1  0  0  0  0
 15 30  1  0  0  0  0
 16 17  1  0  0  0  0
 17 31  1  0  0  0  0
 17 32  1  0  0  0  0
 17 33  1  0  0  0  0
 18 19  1  0  0  0  0
 18 34  1  0  0  0  0
 19 20  1  0  0  0  0
 19 23  1  0  0  0  0
 19 35  1  0  0  0  0
 20 21  1  0  0  0  0
 20 36  1  0  0  0  0
 20 37  1  0  0  0  0
 21 22  1  0  0  0  0
 21 24  1  0  0  0  0
 21 38  1  0  0  0  0
 22 23  1  0  0  0  0
 22 39  1  0  0  0  0
 22 40  1  0  0  0  0
 23 41  1  0  0  0  0
 23 42  1  0  0  0  0
 24 43  1  0  0  0  0
 24 44  1  0  0  0  0
M  END
$$$$
