c13.sdf
  ChemDraw04162418002D

 24 27  0  0  1  0  0  0  0  0999 V2000
   -0.3972   -1.3674    0.0000 N   0  0  0  0  0  0  0  0  0  0  0  0
   -0.3972   -2.1911    0.0000 C   0  0  0  0  0  0  0  0  0  0  0  0
    0.3161   -2.6027    0.0000 N   0  0  0  0  0  0  0  0  0  0  0  0
    1.0295   -2.1911    0.0000 C   0  0  0  0  0  0  0  0  0  0  0  0
    1.0295   -1.3674    0.0000 C   0  0  0  0  0  0  0  0  0  0  0  0
    0.3161   -0.9555    0.0000 C   0  0  0  0  0  0  0  0  0  0  0  0
    1.8127   -2.4457    0.0000 C   0  0  0  0  0  0  0  0  0  0  0  0
    2.2967   -1.7791    0.0000 N   0  0  0  0  0  0  0  0  0  0  0  0
    1.8127   -1.1128    0.0000 N   0  0  0  0  0  0  0  0  0  0  0  0
    2.0670   -0.3296    0.0000 C   0  0  0  0  0  0  0  0  0  0  0  0
    2.8728   -0.1583    0.0000 C   0  0  0  0  0  0  0  0  0  0  0  0
    3.1274    0.6249    0.0000 C   0  0  0  0  0  0  0  0  0  0  0  0
    2.5763    1.2371    0.0000 C   0  0  0  0  0  0  0  0  0  0  0  0
    1.7706    1.0658    0.0000 C   0  0  0  0  0  0  0  0  0  0  0  0
    1.5159    0.2826    0.0000 C   0  0  0  0  0  0  0  0  0  0  0  0
    2.8307    2.0203    0.0000 O   0  0  0  0  0  0  0  0  0  0  0  0
    2.2483    2.6027    0.0000 C   0  0  0  0  0  0  0  0  0  0  0  0
   -1.1106   -2.6027    0.0000 N   0  0  0  0  0  0  0  0  0  0  0  0
   -1.8237   -2.1911    0.0000 C   0  0  0  0  0  0  0  0  0  0  0  0
   -1.9097   -1.3718    0.0000 C   0  0  0  0  0  0  0  0  0  0  0  0
   -2.7155   -1.2008    0.0000 C   0  0  0  0  0  0  0  0  0  0  0  0
   -3.1274   -1.9139    0.0000 C   0  0  0  0  0  0  0  0  0  0  0  0
   -2.5761   -2.5260    0.0000 C   0  0  0  0  0  0  0  0  0  0  0  0
   -3.0504   -0.4484    0.0000 N   0  0  0  0  0  0  0  0  0  0  0  0
  1  2  2  0        0
  2  3  1  0        0
  3  4  2  0        0
  4  5  1  0        0
  5  6  2  0        0
  6  1  1  0        0
  4  7  1  0        0
  7  8  2  0        0
  8  9  1  0        0
  9  5  1  0        0
  9 10  1  0        0
 10 11  2  0        0
 11 12  1  0        0
 12 13  2  0        0
 13 14  1  0        0
 14 15  2  0        0
 15 10  1  0        0
 13 16  1  0        0
 16 17  1  0        0
  2 18  1  0        0
 19 18  1  6        0
 19 20  1  0        0
 20 21  1  0        0
 21 22  1  0        0
 22 23  1  0        0
 23 19  1  0        0
 21 24  1  1        0
M  END
$$$$
