c13.sdf
 OpenBabel04162418043D

 44 47  0  0  0  0  0  0  0  0999 V2000
    2.1080   -0.3774   -1.8533 N   0  0  0  1  0  0  0  0  0  0  0  0
    2.5364    0.5907   -2.6455 C   0  0  0  1  0  0  0  0  0  0  0  0
    2.1526    0.6996   -3.8968 N   0  0  0  1  0  0  0  0  0  0  0  0
    1.2985   -0.1838   -4.4201 C   0  0  0  1  0  0  0  0  0  0  0  0
    0.8205   -1.2305   -3.6034 C   0  0  0  1  0  0  0  0  0  0  0  0
    1.2615   -1.2961   -2.2850 C   0  0  0  1  0  0  0  0  0  0  0  0
    0.7018   -0.3512   -5.6890 C   0  0  0  1  0  0  0  0  0  0  0  0
   -0.0690   -1.4010   -5.6538 N   0  0  0  1  0  0  0  0  0  0  0  0
   -0.0256   -1.9781   -4.3778 N   0  0  0  1  0  0  0  0  0  0  0  0
   -0.8022   -3.1445   -4.1241 C   0  0  0  1  0  0  0  0  0  0  0  0
   -0.8105   -4.1813   -5.0378 C   0  0  0  1  0  0  0  0  0  0  0  0
   -1.5623   -5.3190   -4.7882 C   0  0  0  1  0  0  0  0  0  0  0  0
   -2.3077   -5.4141   -3.6282 C   0  0  0  1  0  0  0  0  0  0  0  0
   -2.2992   -4.3741   -2.7118 C   0  0  0  1  0  0  0  0  0  0  0  0
   -1.5497   -3.2398   -2.9606 C   0  0  0  1  0  0  0  0  0  0  0  0
   -3.0574   -6.4817   -3.3308 O   0  0  0  1  0  0  0  0  0  0  0  0
   -3.0805   -7.6711   -4.1898 C   0  0  0  1  0  0  0  0  0  0  0  0
    3.4278    1.5069   -2.0879 N   0  0  0  1  0  0  0  0  0  0  0  0
    3.6999    1.3107   -0.6574 C   0  0  0  1  0  0  0  0  0  0  0  0
    5.1113    1.7914   -0.3037 C   0  0  0  1  0  0  0  0  0  0  0  0
    4.9604    3.2331    0.2001 C   0  0  0  1  0  0  0  0  0  0  0  0
    3.4645    3.5448    0.1030 C   0  0  0  1  0  0  0  0  0  0  0  0
    2.7799    2.1762    0.1879 C   0  0  0  1  0  0  0  0  0  0  0  0
    5.4263    3.3431    1.6167 N   0  0  0  1  0  0  0  0  0  0  0  0
    0.9318   -2.0527   -1.6523 H   0  0  0  1  0  0  0  0  0  0  0  0
    0.8529    0.2620   -6.5152 H   0  0  0  1  0  0  0  0  0  0  0  0
   -0.2528   -4.1082   -5.9126 H   0  0  0  1  0  0  0  0  0  0  0  0
   -1.5653   -6.1009   -5.4739 H   0  0  0  1  0  0  0  0  0  0  0  0
   -2.8569   -4.4473   -1.8370 H   0  0  0  1  0  0  0  0  0  0  0  0
   -1.5466   -2.4578   -2.2749 H   0  0  0  1  0  0  0  0  0  0  0  0
   -2.1718   -8.2215   -4.0621 H   0  0  0  1  0  0  0  0  0  0  0  0
   -3.1746   -7.3704   -5.2123 H   0  0  0  1  0  0  0  0  0  0  0  0
   -3.9120   -8.2886   -3.9211 H   0  0  0  1  0  0  0  0  0  0  0  0
    3.8409    2.2261   -2.6100 H   0  0  0  1  0  0  0  0  0  0  0  0
    3.5795    0.2768   -0.4094 H   0  0  0  1  0  0  0  0  0  0  0  0
    5.7394    1.7654   -1.1697 H   0  0  0  1  0  0  0  0  0  0  0  0
    5.5324    1.1735    0.4616 H   0  0  0  1  0  0  0  0  0  0  0  0
    5.5230    3.9047   -0.4142 H   0  0  0  1  0  0  0  0  0  0  0  0
    3.1559    4.1724    0.9127 H   0  0  0  1  0  0  0  0  0  0  0  0
    3.2378    4.0237   -0.8265 H   0  0  0  1  0  0  0  0  0  0  0  0
    1.7922    2.2095   -0.2222 H   0  0  0  1  0  0  0  0  0  0  0  0
    2.7357    1.8256    1.1978 H   0  0  0  1  0  0  0  0  0  0  0  0
    6.3922    3.1818    1.6568 H   0  0  0  1  0  0  0  0  0  0  0  0
    4.9612    2.6778    2.1659 H   0  0  0  1  0  0  0  0  0  0  0  0
  1  2  4  0  0  0  0
  1  6  4  0  0  0  0
  2  3  4  0  0  0  0
  2 18  1  0  0  0  0
  3  4  4  0  0  0  0
  4  5  4  0  0  0  0
  4  7  4  0  0  0  0
  5  6  4  0  0  0  0
  5  9  4  0  0  0  0
  6 25  1  0  0  0  0
  7  8  4  0  0  0  0
  7 26  1  0  0  0  0
  8  9  4  0  0  0  0
  9 10  1  0  0  0  0
 10 11  4  0  0  0  0
 10 15  4  0  0  0  0
 11 12  4  0  0  0  0
 11 27  1  0  0  0  0
 12 13  4  0  0  0  0
 12 28  1  0  0  0  0
 13 14  4  0  0  0  0
 13 16  1  0  0  0  0
 14 15  4  0  0  0  0
 14 29  1  0  0  0  0
 15 30  1  0  0  0  0
 16 17  1  0  0  0  0
 17 31  1  0  0  0  0
 17 32  1  0  0  0  0
 17 33  1  0  0  0  0
 18 19  1  0  0  0  0
 18 34  1  0  0  0  0
 19 20  1  0  0  0  0
 19 23  1  0  0  0  0
 19 35  1  0  0  0  0
 20 21  1  0  0  0  0
 20 36  1  0  0  0  0
 20 37  1  0  0  0  0
 21 22  1  0  0  0  0
 21 24  1  0  0  0  0
 21 38  1  0  0  0  0
 22 23  1  0  0  0  0
 22 39  1  0  0  0  0
 22 40  1  0  0  0  0
 23 41  1  0  0  0  0
 23 42  1  0  0  0  0
 24 43  1  0  0  0  0
 24 44  1  0  0  0  0
M  END
> <ConfClashScore>
0 

> <ConfOneFourInteractionScore>
-0.984337 

> <ConfScore>
-0.134924 

> <ConfScorePBest>
0.0053259 

> <ConfTolerance>
0.352487 

$$$$
c13.sdf
 OpenBabel04162418043D

 44 47  0  0  0  0  0  0  0  0999 V2000
    2.1080   -0.3774   -1.8532 N   0  0  0  1  0  0  0  0  0  0  0  0
    2.5364    0.5907   -2.6455 C   0  0  0  1  0  0  0  0  0  0  0  0
    2.1526    0.6996   -3.8968 N   0  0  0  1  0  0  0  0  0  0  0  0
    1.2985   -0.1838   -4.4201 C   0  0  0  1  0  0  0  0  0  0  0  0
    0.8204   -1.2305   -3.6033 C   0  0  0  1  0  0  0  0  0  0  0  0
    1.2615   -1.2960   -2.2850 C   0  0  0  1  0  0  0  0  0  0  0  0
    0.7018   -0.3512   -5.6890 C   0  0  0  1  0  0  0  0  0  0  0  0
   -0.0690   -1.4010   -5.6537 N   0  0  0  1  0  0  0  0  0  0  0  0
   -0.0256   -1.9781   -4.3778 N   0  0  0  1  0  0  0  0  0  0  0  0
   -0.8540   -3.0679   -4.0716 C   0  0  0  1  0  0  0  0  0  0  0  0
   -0.7225   -4.1646   -4.9023 C   0  0  0  1  0  0  0  0  0  0  0  0
   -1.4919   -5.2965   -4.6826 C   0  0  0  1  0  0  0  0  0  0  0  0
   -2.3944   -5.3264   -3.6363 C   0  0  0  1  0  0  0  0  0  0  0  0
   -2.5263   -4.2263   -2.8031 C   0  0  0  1  0  0  0  0  0  0  0  0
   -1.7591   -3.0977   -3.0221 C   0  0  0  1  0  0  0  0  0  0  0  0
   -3.2006   -6.3699   -3.3278 O   0  0  0  1  0  0  0  0  0  0  0  0
   -3.0558   -7.5649   -4.1110 C   0  0  0  1  0  0  0  0  0  0  0  0
    3.3977    1.4988   -2.1526 N   0  0  0  1  0  0  0  0  0  0  0  0
    3.9273    2.6241   -2.9246 C   0  0  0  1  0  0  0  0  0  0  0  0
    4.2141    3.8181   -2.0054 C   0  0  0  1  0  0  0  0  0  0  0  0
    5.6778    4.2019   -2.2345 C   0  0  0  1  0  0  0  0  0  0  0  0
    6.0658    3.5689   -3.5731 C   0  0  0  1  0  0  0  0  0  0  0  0
    5.2791    2.2584   -3.5474 C   0  0  0  1  0  0  0  0  0  0  0  0
    5.8221    5.6788   -2.2989 N   0  0  0  1  0  0  0  0  0  0  0  0
    0.9317   -2.0527   -1.6523 H   0  0  0  1  0  0  0  0  0  0  0  0
    0.8528    0.2621   -6.5151 H   0  0  0  1  0  0  0  0  0  0  0  0
   -0.0463   -4.1406   -5.6922 H   0  0  0  1  0  0  0  0  0  0  0  0
   -1.3901   -6.1232   -5.3052 H   0  0  0  1  0  0  0  0  0  0  0  0
   -3.2025   -4.2503   -2.0134 H   0  0  0  1  0  0  0  0  0  0  0  0
   -1.8609   -2.2708   -2.3995 H   0  0  0  1  0  0  0  0  0  0  0  0
   -3.3149   -7.3587   -5.1285 H   0  0  0  1  0  0  0  0  0  0  0  0
   -3.7033   -8.3245   -3.7253 H   0  0  0  1  0  0  0  0  0  0  0  0
   -2.0414   -7.9019   -4.0628 H   0  0  0  1  0  0  0  0  0  0  0  0
    3.6878    1.4013   -1.2216 H   0  0  0  1  0  0  0  0  0  0  0  0
    3.2260    2.8969   -3.6852 H   0  0  0  1  0  0  0  0  0  0  0  0
    3.5737    4.6383   -2.2546 H   0  0  0  1  0  0  0  0  0  0  0  0
    4.0601    3.5426   -0.9830 H   0  0  0  1  0  0  0  0  0  0  0  0
    6.2921    3.8169   -1.4477 H   0  0  0  1  0  0  0  0  0  0  0  0
    7.1191    3.3884   -3.6264 H   0  0  0  1  0  0  0  0  0  0  0  0
    5.7671    4.1851   -4.3951 H   0  0  0  1  0  0  0  0  0  0  0  0
    5.1466    1.8792   -4.5391 H   0  0  0  1  0  0  0  0  0  0  0  0
    5.7836    1.5277   -2.9502 H   0  0  0  1  0  0  0  0  0  0  0  0
    5.4602    6.0787   -1.4807 H   0  0  0  1  0  0  0  0  0  0  0  0
    5.3309    6.0214   -3.0746 H   0  0  0  1  0  0  0  0  0  0  0  0
  1  2  4  0  0  0  0
  1  6  4  0  0  0  0
  2  3  4  0  0  0  0
  2 18  1  0  0  0  0
  3  4  4  0  0  0  0
  4  5  4  0  0  0  0
  4  7  4  0  0  0  0
  5  6  4  0  0  0  0
  5  9  4  0  0  0  0
  6 25  1  0  0  0  0
  7  8  4  0  0  0  0
  7 26  1  0  0  0  0
  8  9  4  0  0  0  0
  9 10  1  0  0  0  0
 10 11  4  0  0  0  0
 10 15  4  0  0  0  0
 11 12  4  0  0  0  0
 11 27  1  0  0  0  0
 12 13  4  0  0  0  0
 12 28  1  0  0  0  0
 13 14  4  0  0  0  0
 13 16  1  0  0  0  0
 14 15  4  0  0  0  0
 14 29  1  0  0  0  0
 15 30  1  0  0  0  0
 16 17  1  0  0  0  0
 17 31  1  0  0  0  0
 17 32  1  0  0  0  0
 17 33  1  0  0  0  0
 18 19  1  0  0  0  0
 18 34  1  0  0  0  0
 19 20  1  0  0  0  0
 19 23  1  0  0  0  0
 19 35  1  0  0  0  0
 20 21  1  0  0  0  0
 20 36  1  0  0  0  0
 20 37  1  0  0  0  0
 21 22  1  0  0  0  0
 21 24  1  0  0  0  0
 21 38  1  0  0  0  0
 22 23  1  0  0  0  0
 22 39  1  0  0  0  0
 22 40  1  0  0  0  0
 23 41  1  0  0  0  0
 23 42  1  0  0  0  0
 24 43  1  0  0  0  0
 24 44  1  0  0  0  0
M  END
> <ConfClashScore>
0 

> <ConfOneFourInteractionScore>
-0.984337 

> <ConfScore>
-0.134924 

> <ConfScorePBest>
0.00531257 

> <ConfTolerance>
0.326649 

$$$$
c13.sdf
 OpenBabel04162418043D

 44 47  0  0  0  0  0  0  0  0999 V2000
    2.1080   -0.3774   -1.8532 N   0  0  0  1  0  0  0  0  0  0  0  0
    2.5363    0.5907   -2.6455 C   0  0  0  1  0  0  0  0  0  0  0  0
    2.1524    0.6996   -3.8968 N   0  0  0  1  0  0  0  0  0  0  0  0
    1.2986   -0.1837   -4.4201 C   0  0  0  1  0  0  0  0  0  0  0  0
    0.8205   -1.2305   -3.6033 C   0  0  0  1  0  0  0  0  0  0  0  0
    1.2616   -1.2961   -2.2850 C   0  0  0  1  0  0  0  0  0  0  0  0
    0.7018   -0.3513   -5.6890 C   0  0  0  1  0  0  0  0  0  0  0  0
   -0.0690   -1.4010   -5.6537 N   0  0  0  1  0  0  0  0  0  0  0  0
   -0.0256   -1.9781   -4.3778 N   0  0  0  1  0  0  0  0  0  0  0  0
   -0.7147   -3.1971   -4.1128 C   0  0  0  1  0  0  0  0  0  0  0  0
   -0.4566   -4.3138   -4.8851 C   0  0  0  1  0  0  0  0  0  0  0  0
   -1.0502   -5.5263   -4.5703 C   0  0  0  1  0  0  0  0  0  0  0  0
   -1.9043   -5.6172   -3.4874 C   0  0  0  1  0  0  0  0  0  0  0  0
   -2.1629   -4.4971   -2.7129 C   0  0  0  1  0  0  0  0  0  0  0  0
   -1.5712   -3.2881   -3.0266 C   0  0  0  1  0  0  0  0  0  0  0  0
   -2.4539   -6.8258   -3.2378 O   0  0  0  1  0  0  0  0  0  0  0  0
   -2.1404   -7.9355   -4.0937 C   0  0  0  1  0  0  0  0  0  0  0  0
    3.4008    1.5023   -2.1508 N   0  0  0  1  0  0  0  0  0  0  0  0
    3.8927    2.6485   -2.9049 C   0  0  0  1  0  0  0  0  0  0  0  0
    4.0236    3.8699   -1.9887 C   0  0  0  1  0  0  0  0  0  0  0  0
    5.4784    3.8620   -1.5491 C   0  0  0  1  0  0  0  0  0  0  0  0
    6.1974    3.4458   -2.8369 C   0  0  0  1  0  0  0  0  0  0  0  0
    5.3004    2.3645   -3.4458 C   0  0  0  1  0  0  0  0  0  0  0  0
    5.9180    5.2229   -1.0946 N   0  0  0  1  0  0  0  0  0  0  0  0
    0.9318   -2.0528   -1.6523 H   0  0  0  1  0  0  0  0  0  0  0  0
    0.8527    0.2621   -6.5151 H   0  0  0  1  0  0  0  0  0  0  0  0
    0.1829   -4.2445   -5.7023 H   0  0  0  1  0  0  0  0  0  0  0  0
   -0.8530   -6.3675   -5.1490 H   0  0  0  1  0  0  0  0  0  0  0  0
   -2.8025   -4.5664   -1.8956 H   0  0  0  1  0  0  0  0  0  0  0  0
   -1.7684   -2.4468   -2.4479 H   0  0  0  1  0  0  0  0  0  0  0  0
   -1.0790   -8.0624   -4.1396 H   0  0  0  1  0  0  0  0  0  0  0  0
   -2.5196   -7.7462   -5.0762 H   0  0  0  1  0  0  0  0  0  0  0  0
   -2.5890   -8.8249   -3.7029 H   0  0  0  1  0  0  0  0  0  0  0  0
    3.7162    1.3863   -1.2302 H   0  0  0  1  0  0  0  0  0  0  0  0
    3.2217    2.8603   -3.7110 H   0  0  0  1  0  0  0  0  0  0  0  0
    3.3729    3.7803   -1.1440 H   0  0  0  1  0  0  0  0  0  0  0  0
    3.7947    4.7688   -2.5221 H   0  0  0  1  0  0  0  0  0  0  0  0
    5.6437    3.1529   -0.7650 H   0  0  0  1  0  0  0  0  0  0  0  0
    6.2914    4.2779   -3.5030 H   0  0  0  1  0  0  0  0  0  0  0  0
    7.1680    3.0524   -2.6177 H   0  0  0  1  0  0  0  0  0  0  0  0
    5.3105    2.4279   -4.5139 H   0  0  0  1  0  0  0  0  0  0  0  0
    5.6284    1.3922   -3.1426 H   0  0  0  1  0  0  0  0  0  0  0  0
    5.3823    5.4985   -0.3217 H   0  0  0  1  0  0  0  0  0  0  0  0
    5.7944    5.8662   -1.8235 H   0  0  0  1  0  0  0  0  0  0  0  0
  1  2  4  0  0  0  0
  1  6  4  0  0  0  0
  2  3  4  0  0  0  0
  2 18  1  0  0  0  0
  3  4  4  0  0  0  0
  4  5  4  0  0  0  0
  4  7  4  0  0  0  0
  5  6  4  0  0  0  0
  5  9  4  0  0  0  0
  6 25  1  0  0  0  0
  7  8  4  0  0  0  0
  7 26  1  0  0  0  0
  8  9  4  0  0  0  0
  9 10  1  0  0  0  0
 10 11  4  0  0  0  0
 10 15  4  0  0  0  0
 11 12  4  0  0  0  0
 11 27  1  0  0  0  0
 12 13  4  0  0  0  0
 12 28  1  0  0  0  0
 13 14  4  0  0  0  0
 13 16  1  0  0  0  0
 14 15  4  0  0  0  0
 14 29  1  0  0  0  0
 15 30  1  0  0  0  0
 16 17  1  0  0  0  0
 17 31  1  0  0  0  0
 17 32  1  0  0  0  0
 17 33  1  0  0  0  0
 18 19  1  0  0  0  0
 18 34  1  0  0  0  0
 19 20  1  0  0  0  0
 19 23  1  0  0  0  0
 19 35  1  0  0  0  0
 20 21  1  0  0  0  0
 20 36  1  0  0  0  0
 20 37  1  0  0  0  0
 21 22  1  0  0  0  0
 21 24  1  0  0  0  0
 21 38  1  0  0  0  0
 22 23  1  0  0  0  0
 22 39  1  0  0  0  0
 22 40  1  0  0  0  0
 23 41  1  0  0  0  0
 23 42  1  0  0  0  0
 24 43  1  0  0  0  0
 24 44  1  0  0  0  0
M  END
> <ConfClashScore>
0 

> <ConfOneFourInteractionScore>
-0.984337 

> <ConfScore>
-0.134924 

> <ConfScorePBest>
0.00529924 

> <ConfTolerance>
0.233728 

$$$$
c13.sdf
 OpenBabel04162418043D

 44 47  0  0  0  0  0  0  0  0999 V2000
    2.1080   -0.3774   -1.8533 N   0  0  0  1  0  0  0  0  0  0  0  0
    2.5363    0.5907   -2.6455 C   0  0  0  1  0  0  0  0  0  0  0  0
    2.1526    0.6996   -3.8969 N   0  0  0  1  0  0  0  0  0  0  0  0
    1.2985   -0.1837   -4.4201 C   0  0  0  1  0  0  0  0  0  0  0  0
    0.8205   -1.2305   -3.6034 C   0  0  0  1  0  0  0  0  0  0  0  0
    1.2616   -1.2960   -2.2850 C   0  0  0  1  0  0  0  0  0  0  0  0
    0.7018   -0.3513   -5.6890 C   0  0  0  1  0  0  0  0  0  0  0  0
   -0.0690   -1.4010   -5.6538 N   0  0  0  1  0  0  0  0  0  0  0  0
   -0.0256   -1.9781   -4.3778 N   0  0  0  1  0  0  0  0  0  0  0  0
   -0.8601   -3.0489   -4.0240 C   0  0  0  1  0  0  0  0  0  0  0  0
   -0.8489   -4.2877   -4.6366 C   0  0  0  1  0  0  0  0  0  0  0  0
   -1.7136   -5.2818   -4.2058 C   0  0  0  1  0  0  0  0  0  0  0  0
   -2.5907   -5.0325   -3.1671 C   0  0  0  1  0  0  0  0  0  0  0  0
   -2.6019   -3.7899   -2.5527 C   0  0  0  1  0  0  0  0  0  0  0  0
   -1.7397   -2.7987   -2.9823 C   0  0  0  1  0  0  0  0  0  0  0  0
   -3.3276   -6.0711   -2.7066 O   0  0  0  1  0  0  0  0  0  0  0  0
   -3.3454   -7.2667   -3.5021 C   0  0  0  1  0  0  0  0  0  0  0  0
    3.4223    1.5435   -2.1763 N   0  0  0  1  0  0  0  0  0  0  0  0
    3.8743    1.4332   -0.7865 C   0  0  0  1  0  0  0  0  0  0  0  0
    5.2105    2.1595   -0.5977 C   0  0  0  1  0  0  0  0  0  0  0  0
    4.8286    3.5821   -0.1883 C   0  0  0  1  0  0  0  0  0  0  0  0
    3.6393    3.3389    0.7442 C   0  0  0  1  0  0  0  0  0  0  0  0
    2.8915    2.1404    0.1554 C   0  0  0  1  0  0  0  0  0  0  0  0
    5.9553    4.2625    0.5324 N   0  0  0  1  0  0  0  0  0  0  0  0
    0.9318   -2.0527   -1.6523 H   0  0  0  1  0  0  0  0  0  0  0  0
    0.8528    0.2620   -6.5152 H   0  0  0  1  0  0  0  0  0  0  0  0
   -0.1917   -4.4740   -5.4209 H   0  0  0  1  0  0  0  0  0  0  0  0
   -1.7023   -6.2152   -4.6642 H   0  0  0  1  0  0  0  0  0  0  0  0
   -3.2591   -3.6035   -1.7686 H   0  0  0  1  0  0  0  0  0  0  0  0
   -1.7510   -1.8652   -2.5239 H   0  0  0  1  0  0  0  0  0  0  0  0
   -3.8043   -7.0606   -4.4464 H   0  0  0  1  0  0  0  0  0  0  0  0
   -3.9026   -8.0252   -2.9930 H   0  0  0  1  0  0  0  0  0  0  0  0
   -2.3426   -7.6051   -3.6594 H   0  0  0  1  0  0  0  0  0  0  0  0
    3.7377    2.2691   -2.7546 H   0  0  0  1  0  0  0  0  0  0  0  0
    3.9687    0.4005   -0.5226 H   0  0  0  1  0  0  0  0  0  0  0  0
    5.7896    1.6895    0.1697 H   0  0  0  1  0  0  0  0  0  0  0  0
    5.7674    2.1672   -1.5112 H   0  0  0  1  0  0  0  0  0  0  0  0
    4.5429    4.1670   -1.0375 H   0  0  0  1  0  0  0  0  0  0  0  0
    3.0036    4.1993    0.7702 H   0  0  0  1  0  0  0  0  0  0  0  0
    3.9803    3.1167    1.7336 H   0  0  0  1  0  0  0  0  0  0  0  0
    2.5854    1.4761    0.9364 H   0  0  0  1  0  0  0  0  0  0  0  0
    2.0321    2.4721   -0.3887 H   0  0  0  1  0  0  0  0  0  0  0  0
    6.1134    3.8143    1.3894 H   0  0  0  1  0  0  0  0  0  0  0  0
    5.7211    5.2005    0.6927 H   0  0  0  1  0  0  0  0  0  0  0  0
  1  2  4  0  0  0  0
  1  6  4  0  0  0  0
  2  3  4  0  0  0  0
  2 18  1  0  0  0  0
  3  4  4  0  0  0  0
  4  5  4  0  0  0  0
  4  7  4  0  0  0  0
  5  6  4  0  0  0  0
  5  9  4  0  0  0  0
  6 25  1  0  0  0  0
  7  8  4  0  0  0  0
  7 26  1  0  0  0  0
  8  9  4  0  0  0  0
  9 10  1  0  0  0  0
 10 11  4  0  0  0  0
 10 15  4  0  0  0  0
 11 12  4  0  0  0  0
 11 27  1  0  0  0  0
 12 13  4  0  0  0  0
 12 28  1  0  0  0  0
 13 14  4  0  0  0  0
 13 16  1  0  0  0  0
 14 15  4  0  0  0  0
 14 29  1  0  0  0  0
 15 30  1  0  0  0  0
 16 17  1  0  0  0  0
 17 31  1  0  0  0  0
 17 32  1  0  0  0  0
 17 33  1  0  0  0  0
 18 19  1  0  0  0  0
 18 34  1  0  0  0  0
 19 20  1  0  0  0  0
 19 23  1  0  0  0  0
 19 35  1  0  0  0  0
 20 21  1  0  0  0  0
 20 36  1  0  0  0  0
 20 37  1  0  0  0  0
 21 22  1  0  0  0  0
 21 24  1  0  0  0  0
 21 38  1  0  0  0  0
 22 23  1  0  0  0  0
 22 39  1  0  0  0  0
 22 40  1  0  0  0  0
 23 41  1  0  0  0  0
 23 42  1  0  0  0  0
 24 43  1  0  0  0  0
 24 44  1  0  0  0  0
M  END
> <ConfClashScore>
0 

> <ConfOneFourInteractionScore>
-0.984337 

> <ConfScore>
-0.131922 

> <ConfScorePBest>
0.00528591 

> <ConfTolerance>
0.255936 

$$$$
c13.sdf
 OpenBabel04162418043D

 44 47  0  0  0  0  0  0  0  0999 V2000
    2.1080   -0.3774   -1.8533 N   0  0  0  1  0  0  0  0  0  0  0  0
    2.5364    0.5907   -2.6454 C   0  0  0  1  0  0  0  0  0  0  0  0
    2.1525    0.6997   -3.8968 N   0  0  0  1  0  0  0  0  0  0  0  0
    1.2985   -0.1837   -4.4202 C   0  0  0  1  0  0  0  0  0  0  0  0
    0.8204   -1.2305   -3.6034 C   0  0  0  1  0  0  0  0  0  0  0  0
    1.2616   -1.2961   -2.2850 C   0  0  0  1  0  0  0  0  0  0  0  0
    0.7019   -0.3512   -5.6890 C   0  0  0  1  0  0  0  0  0  0  0  0
   -0.0690   -1.4010   -5.6538 N   0  0  0  1  0  0  0  0  0  0  0  0
   -0.0256   -1.9781   -4.3778 N   0  0  0  1  0  0  0  0  0  0  0  0
   -0.7942   -3.1326   -4.1267 C   0  0  0  1  0  0  0  0  0  0  0  0
   -1.5807   -3.2673   -2.9982 C   0  0  0  1  0  0  0  0  0  0  0  0
   -2.3211   -4.4229   -2.8035 C   0  0  0  1  0  0  0  0  0  0  0  0
   -2.2687   -5.4426   -3.7349 C   0  0  0  1  0  0  0  0  0  0  0  0
   -1.4798   -5.3074   -4.8667 C   0  0  0  1  0  0  0  0  0  0  0  0
   -0.7415   -4.1553   -5.0610 C   0  0  0  1  0  0  0  0  0  0  0  0
   -3.0269   -6.5199   -3.4359 O   0  0  0  1  0  0  0  0  0  0  0  0
   -3.1151   -7.6045   -4.3732 C   0  0  0  1  0  0  0  0  0  0  0  0
    3.4009    1.5329   -2.2121 N   0  0  0  1  0  0  0  0  0  0  0  0
    3.8072    1.6863   -0.8143 C   0  0  0  1  0  0  0  0  0  0  0  0
    5.0852    2.5266   -0.7163 C   0  0  0  1  0  0  0  0  0  0  0  0
    4.5961    3.9667   -0.5612 C   0  0  0  1  0  0  0  0  0  0  0  0
    3.3919    3.7978    0.3685 C   0  0  0  1  0  0  0  0  0  0  0  0
    2.7465    2.4684   -0.0295 C   0  0  0  1  0  0  0  0  0  0  0  0
    5.6359    4.8245    0.0559 N   0  0  0  1  0  0  0  0  0  0  0  0
    0.9319   -2.0528   -1.6523 H   0  0  0  1  0  0  0  0  0  0  0  0
    0.8527    0.2621   -6.5152 H   0  0  0  1  0  0  0  0  0  0  0  0
   -1.6170   -2.5016   -2.2953 H   0  0  0  1  0  0  0  0  0  0  0  0
   -2.9160   -4.5226   -1.9563 H   0  0  0  1  0  0  0  0  0  0  0  0
   -1.4435   -6.0730   -5.5696 H   0  0  0  1  0  0  0  0  0  0  0  0
   -0.1465   -4.0555   -5.9081 H   0  0  0  1  0  0  0  0  0  0  0  0
   -3.4551   -7.2338   -5.3175 H   0  0  0  1  0  0  0  0  0  0  0  0
   -3.8056   -8.3359   -4.0080 H   0  0  0  1  0  0  0  0  0  0  0  0
   -2.1506   -8.0521   -4.4923 H   0  0  0  1  0  0  0  0  0  0  0  0
    3.7788    2.1506   -2.8724 H   0  0  0  1  0  0  0  0  0  0  0  0
    3.9594    0.7209   -0.3786 H   0  0  0  1  0  0  0  0  0  0  0  0
    5.6735    2.4222   -1.6038 H   0  0  0  1  0  0  0  0  0  0  0  0
    5.6653    2.2323    0.1334 H   0  0  0  1  0  0  0  0  0  0  0  0
    4.3041    4.3812   -1.5035 H   0  0  0  1  0  0  0  0  0  0  0  0
    2.7007    4.6034    0.2338 H   0  0  0  1  0  0  0  0  0  0  0  0
    3.7102    3.7672    1.3896 H   0  0  0  1  0  0  0  0  0  0  0  0
    2.4560    1.9227    0.8439 H   0  0  0  1  0  0  0  0  0  0  0  0
    1.8876    2.6438   -0.6431 H   0  0  0  1  0  0  0  0  0  0  0  0
    5.8927    4.4529    0.9255 H   0  0  0  1  0  0  0  0  0  0  0  0
    5.2813    5.7297    0.1794 H   0  0  0  1  0  0  0  0  0  0  0  0
  1  2  4  0  0  0  0
  1  6  4  0  0  0  0
  2  3  4  0  0  0  0
  2 18  1  0  0  0  0
  3  4  4  0  0  0  0
  4  5  4  0  0  0  0
  4  7  4  0  0  0  0
  5  6  4  0  0  0  0
  5  9  4  0  0  0  0
  6 25  1  0  0  0  0
  7  8  4  0  0  0  0
  7 26  1  0  0  0  0
  8  9  4  0  0  0  0
  9 10  1  0  0  0  0
 10 11  4  0  0  0  0
 10 15  4  0  0  0  0
 11 12  4  0  0  0  0
 11 27  1  0  0  0  0
 12 13  4  0  0  0  0
 12 28  1  0  0  0  0
 13 14  4  0  0  0  0
 13 16  1  0  0  0  0
 14 15  4  0  0  0  0
 14 29  1  0  0  0  0
 15 30  1  0  0  0  0
 16 17  1  0  0  0  0
 17 31  1  0  0  0  0
 17 32  1  0  0  0  0
 17 33  1  0  0  0  0
 18 19  1  0  0  0  0
 18 34  1  0  0  0  0
 19 20  1  0  0  0  0
 19 23  1  0  0  0  0
 19 35  1  0  0  0  0
 20 21  1  0  0  0  0
 20 36  1  0  0  0  0
 20 37  1  0  0  0  0
 21 22  1  0  0  0  0
 21 24  1  0  0  0  0
 21 38  1  0  0  0  0
 22 23  1  0  0  0  0
 22 39  1  0  0  0  0
 22 40  1  0  0  0  0
 23 41  1  0  0  0  0
 23 42  1  0  0  0  0
 24 43  1  0  0  0  0
 24 44  1  0  0  0  0
M  END
> <ConfClashScore>
0 

> <ConfOneFourInteractionScore>
-0.984337 

> <ConfScore>
-0.131922 

> <ConfScorePBest>
0.00527258 

> <ConfTolerance>
0.331813 

$$$$
c13.sdf
 OpenBabel04162418043D

 44 47  0  0  0  0  0  0  0  0999 V2000
    2.1080   -0.3773   -1.8532 N   0  0  0  1  0  0  0  0  0  0  0  0
    2.5363    0.5907   -2.6455 C   0  0  0  1  0  0  0  0  0  0  0  0
    2.1525    0.6996   -3.8968 N   0  0  0  1  0  0  0  0  0  0  0  0
    1.2985   -0.1838   -4.4201 C   0  0  0  1  0  0  0  0  0  0  0  0
    0.8204   -1.2305   -3.6033 C   0  0  0  1  0  0  0  0  0  0  0  0
    1.2615   -1.2960   -2.2850 C   0  0  0  1  0  0  0  0  0  0  0  0
    0.7018   -0.3513   -5.6890 C   0  0  0  1  0  0  0  0  0  0  0  0
   -0.0690   -1.4010   -5.6537 N   0  0  0  1  0  0  0  0  0  0  0  0
   -0.0256   -1.9781   -4.3778 N   0  0  0  1  0  0  0  0  0  0  0  0
   -0.7857   -3.1448   -4.0791 C   0  0  0  1  0  0  0  0  0  0  0  0
   -0.4981   -4.3381   -4.7141 C   0  0  0  1  0  0  0  0  0  0  0  0
   -1.2344   -5.4750   -4.4194 C   0  0  0  1  0  0  0  0  0  0  0  0
   -2.2597   -5.4139   -3.4945 C   0  0  0  1  0  0  0  0  0  0  0  0
   -2.5480   -4.2168   -2.8576 C   0  0  0  1  0  0  0  0  0  0  0  0
   -1.8139   -3.0833   -3.1514 C   0  0  0  1  0  0  0  0  0  0  0  0
   -3.0479   -6.4531   -3.1303 O   0  0  0  1  0  0  0  0  0  0  0  0
   -2.8288   -7.7073   -3.7946 C   0  0  0  1  0  0  0  0  0  0  0  0
    3.4009    1.5023   -2.1509 N   0  0  0  1  0  0  0  0  0  0  0  0
    3.9806    2.5916   -2.9416 C   0  0  0  1  0  0  0  0  0  0  0  0
    4.0127    3.8824   -2.1275 C   0  0  0  1  0  0  0  0  0  0  0  0
    5.1060    4.7011   -2.8403 C   0  0  0  1  0  0  0  0  0  0  0  0
    6.0459    3.6840   -3.4684 C   0  0  0  1  0  0  0  0  0  0  0  0
    5.4296    2.2881   -3.2804 C   0  0  0  1  0  0  0  0  0  0  0  0
    4.4944    5.5778   -3.9051 N   0  0  0  1  0  0  0  0  0  0  0  0
    0.9318   -2.0526   -1.6522 H   0  0  0  1  0  0  0  0  0  0  0  0
    0.8528    0.2621   -6.5152 H   0  0  0  1  0  0  0  0  0  0  0  0
    0.2707   -4.3832   -5.4131 H   0  0  0  1  0  0  0  0  0  0  0  0
   -1.0155   -6.3738   -4.8943 H   0  0  0  1  0  0  0  0  0  0  0  0
   -3.3169   -4.1718   -2.1587 H   0  0  0  1  0  0  0  0  0  0  0  0
   -2.0329   -2.1844   -2.6765 H   0  0  0  1  0  0  0  0  0  0  0  0
   -3.6030   -8.3946   -3.5245 H   0  0  0  1  0  0  0  0  0  0  0  0
   -1.8801   -8.1054   -3.5003 H   0  0  0  1  0  0  0  0  0  0  0  0
   -2.8397   -7.5563   -4.8538 H   0  0  0  1  0  0  0  0  0  0  0  0
    3.6559    1.4312   -1.2073 H   0  0  0  1  0  0  0  0  0  0  0  0
    3.4085    2.7278   -3.8354 H   0  0  0  1  0  0  0  0  0  0  0  0
    3.0688    4.3850   -2.1631 H   0  0  0  1  0  0  0  0  0  0  0  0
    4.2767    3.6900   -1.1086 H   0  0  0  1  0  0  0  0  0  0  0  0
    5.6335    5.3097   -2.1359 H   0  0  0  1  0  0  0  0  0  0  0  0
    7.0008    3.7270   -2.9877 H   0  0  0  1  0  0  0  0  0  0  0  0
    6.1614    3.8923   -4.5115 H   0  0  0  1  0  0  0  0  0  0  0  0
    5.9083    1.7618   -2.4812 H   0  0  0  1  0  0  0  0  0  0  0  0
    5.5008    1.7129   -4.1799 H   0  0  0  1  0  0  0  0  0  0  0  0
    3.9415    5.0309   -4.5013 H   0  0  0  1  0  0  0  0  0  0  0  0
    5.2069    6.0072   -4.4232 H   0  0  0  1  0  0  0  0  0  0  0  0
  1  2  4  0  0  0  0
  1  6  4  0  0  0  0
  2  3  4  0  0  0  0
  2 18  1  0  0  0  0
  3  4  4  0  0  0  0
  4  5  4  0  0  0  0
  4  7  4  0  0  0  0
  5  6  4  0  0  0  0
  5  9  4  0  0  0  0
  6 25  1  0  0  0  0
  7  8  4  0  0  0  0
  7 26  1  0  0  0  0
  8  9  4  0  0  0  0
  9 10  1  0  0  0  0
 10 11  4  0  0  0  0
 10 15  4  0  0  0  0
 11 12  4  0  0  0  0
 11 27  1  0  0  0  0
 12 13  4  0  0  0  0
 12 28  1  0  0  0  0
 13 14  4  0  0  0  0
 13 16  1  0  0  0  0
 14 15  4  0  0  0  0
 14 29  1  0  0  0  0
 15 30  1  0  0  0  0
 16 17  1  0  0  0  0
 17 31  1  0  0  0  0
 17 32  1  0  0  0  0
 17 33  1  0  0  0  0
 18 19  1  0  0  0  0
 18 34  1  0  0  0  0
 19 20  1  0  0  0  0
 19 23  1  0  0  0  0
 19 35  1  0  0  0  0
 20 21  1  0  0  0  0
 20 36  1  0  0  0  0
 20 37  1  0  0  0  0
 21 22  1  0  0  0  0
 21 24  1  0  0  0  0
 21 38  1  0  0  0  0
 22 23  1  0  0  0  0
 22 39  1  0  0  0  0
 22 40  1  0  0  0  0
 23 41  1  0  0  0  0
 23 42  1  0  0  0  0
 24 43  1  0  0  0  0
 24 44  1  0  0  0  0
M  END
> <ConfClashScore>
0 

> <ConfOneFourInteractionScore>
-0.984337 

> <ConfScore>
-0.131922 

> <ConfScorePBest>
0.00525926 

> <ConfTolerance>
0.214654 

$$$$
c13.sdf
 OpenBabel04162418043D

 44 47  0  0  0  0  0  0  0  0999 V2000
    2.1079   -0.3774   -1.8532 N   0  0  0  1  0  0  0  0  0  0  0  0
    2.5364    0.5907   -2.6454 C   0  0  0  1  0  0  0  0  0  0  0  0
    2.1526    0.6996   -3.8968 N   0  0  0  1  0  0  0  0  0  0  0  0
    1.2985   -0.1837   -4.4202 C   0  0  0  1  0  0  0  0  0  0  0  0
    0.8205   -1.2304   -3.6033 C   0  0  0  1  0  0  0  0  0  0  0  0
    1.2615   -1.2960   -2.2850 C   0  0  0  1  0  0  0  0  0  0  0  0
    0.7019   -0.3513   -5.6890 C   0  0  0  1  0  0  0  0  0  0  0  0
   -0.0689   -1.4010   -5.6538 N   0  0  0  1  0  0  0  0  0  0  0  0
   -0.0256   -1.9781   -4.3778 N   0  0  0  1  0  0  0  0  0  0  0  0
   -0.7142   -3.1961   -4.1129 C   0  0  0  1  0  0  0  0  0  0  0  0
   -0.2051   -4.0914   -3.1912 C   0  0  0  1  0  0  0  0  0  0  0  0
   -0.8783   -5.2745   -2.9295 C   0  0  0  1  0  0  0  0  0  0  0  0
   -2.0557   -5.5614   -3.5941 C   0  0  0  1  0  0  0  0  0  0  0  0
   -2.5662   -4.6634   -4.5185 C   0  0  0  1  0  0  0  0  0  0  0  0
   -1.8951   -3.4837   -4.7795 C   0  0  0  1  0  0  0  0  0  0  0  0
   -2.7958   -6.6830   -3.4260 O   0  0  0  1  0  0  0  0  0  0  0  0
   -2.3130   -7.6526   -2.4830 C   0  0  0  1  0  0  0  0  0  0  0  0
    3.3976    1.4989   -2.1526 N   0  0  0  1  0  0  0  0  0  0  0  0
    4.0016    2.5557   -2.9453 C   0  0  0  1  0  0  0  0  0  0  0  0
    4.2259    3.8269   -2.0649 C   0  0  0  1  0  0  0  0  0  0  0  0
    5.6714    3.5589   -1.5013 C   0  0  0  1  0  0  0  0  0  0  0  0
    6.3897    2.9903   -2.7174 C   0  0  0  1  0  0  0  0  0  0  0  0
    5.3788    2.1161   -3.4467 C   0  0  0  1  0  0  0  0  0  0  0  0
    6.3147    4.8255   -1.0347 N   0  0  0  1  0  0  0  0  0  0  0  0
    0.9317   -2.0527   -1.6522 H   0  0  0  1  0  0  0  0  0  0  0  0
    0.8529    0.2621   -6.5152 H   0  0  0  1  0  0  0  0  0  0  0  0
    0.6829   -3.8774   -2.6941 H   0  0  0  1  0  0  0  0  0  0  0  0
   -0.4974   -5.9463   -2.2330 H   0  0  0  1  0  0  0  0  0  0  0  0
   -3.4543   -4.8774   -5.0156 H   0  0  0  1  0  0  0  0  0  0  0  0
   -2.2760   -2.8118   -5.4760 H   0  0  0  1  0  0  0  0  0  0  0  0
   -2.2299   -7.2006   -1.5168 H   0  0  0  1  0  0  0  0  0  0  0  0
   -1.3525   -8.0058   -2.7951 H   0  0  0  1  0  0  0  0  0  0  0  0
   -2.9971   -8.4739   -2.4345 H   0  0  0  1  0  0  0  0  0  0  0  0
    3.6315    1.4442   -1.2025 H   0  0  0  1  0  0  0  0  0  0  0  0
    3.3655    2.7889   -3.7734 H   0  0  0  1  0  0  0  0  0  0  0  0
    3.5040    3.8906   -1.2776 H   0  0  0  1  0  0  0  0  0  0  0  0
    4.1939    4.7208   -2.6521 H   0  0  0  1  0  0  0  0  0  0  0  0
    5.6498    2.8524   -0.6980 H   0  0  0  1  0  0  0  0  0  0  0  0
    7.2306    2.4047   -2.4095 H   0  0  0  1  0  0  0  0  0  0  0  0
    6.7210    3.7831   -3.3551 H   0  0  0  1  0  0  0  0  0  0  0  0
    5.4540    2.2638   -4.5038 H   0  0  0  1  0  0  0  0  0  0  0  0
    5.5459    1.0844   -3.2175 H   0  0  0  1  0  0  0  0  0  0  0  0
    5.7194    5.2818   -0.4040 H   0  0  0  1  0  0  0  0  0  0  0  0
    6.4838    5.4085   -1.8041 H   0  0  0  1  0  0  0  0  0  0  0  0
  1  2  4  0  0  0  0
  1  6  4  0  0  0  0
  2  3  4  0  0  0  0
  2 18  1  0  0  0  0
  3  4  4  0  0  0  0
  4  5  4  0  0  0  0
  4  7  4  0  0  0  0
  5  6  4  0  0  0  0
  5  9  4  0  0  0  0
  6 25  1  0  0  0  0
  7  8  4  0  0  0  0
  7 26  1  0  0  0  0
  8  9  4  0  0  0  0
  9 10  1  0  0  0  0
 10 11  4  0  0  0  0
 10 15  4  0  0  0  0
 11 12  4  0  0  0  0
 11 27  1  0  0  0  0
 12 13  4  0  0  0  0
 12 28  1  0  0  0  0
 13 14  4  0  0  0  0
 13 16  1  0  0  0  0
 14 15  4  0  0  0  0
 14 29  1  0  0  0  0
 15 30  1  0  0  0  0
 16 17  1  0  0  0  0
 17 31  1  0  0  0  0
 17 32  1  0  0  0  0
 17 33  1  0  0  0  0
 18 19  1  0  0  0  0
 18 34  1  0  0  0  0
 19 20  1  0  0  0  0
 19 23  1  0  0  0  0
 19 35  1  0  0  0  0
 20 21  1  0  0  0  0
 20 36  1  0  0  0  0
 20 37  1  0  0  0  0
 21 22  1  0  0  0  0
 21 24  1  0  0  0  0
 21 38  1  0  0  0  0
 22 23  1  0  0  0  0
 22 39  1  0  0  0  0
 22 40  1  0  0  0  0
 23 41  1  0  0  0  0
 23 42  1  0  0  0  0
 24 43  1  0  0  0  0
 24 44  1  0  0  0  0
M  END
> <ConfClashScore>
0 

> <ConfOneFourInteractionScore>
-0.984337 

> <ConfScore>
-0.130267 

> <ConfScorePBest>
0.00524593 

> <ConfTolerance>
0.194032 

$$$$
c13.sdf
 OpenBabel04162418043D

 44 47  0  0  0  0  0  0  0  0999 V2000
    2.1079   -0.3773   -1.8533 N   0  0  0  1  0  0  0  0  0  0  0  0
    2.5363    0.5907   -2.6455 C   0  0  0  1  0  0  0  0  0  0  0  0
    2.1526    0.6996   -3.8968 N   0  0  0  1  0  0  0  0  0  0  0  0
    1.2986   -0.1837   -4.4201 C   0  0  0  1  0  0  0  0  0  0  0  0
    0.8204   -1.2305   -3.6033 C   0  0  0  1  0  0  0  0  0  0  0  0
    1.2615   -1.2960   -2.2849 C   0  0  0  1  0  0  0  0  0  0  0  0
    0.7018   -0.3513   -5.6889 C   0  0  0  1  0  0  0  0  0  0  0  0
   -0.0689   -1.4010   -5.6537 N   0  0  0  1  0  0  0  0  0  0  0  0
   -0.0256   -1.9781   -4.3778 N   0  0  0  1  0  0  0  0  0  0  0  0
   -0.6655   -3.2140   -4.1249 C   0  0  0  1  0  0  0  0  0  0  0  0
   -0.0701   -4.1427   -3.2924 C   0  0  0  1  0  0  0  0  0  0  0  0
   -0.6996   -5.3517   -3.0405 C   0  0  0  1  0  0  0  0  0  0  0  0
   -1.9202   -5.6306   -3.6259 C   0  0  0  1  0  0  0  0  0  0  0  0
   -2.5173   -4.6990   -4.4608 C   0  0  0  1  0  0  0  0  0  0  0  0
   -1.8896   -3.4934   -4.7122 C   0  0  0  1  0  0  0  0  0  0  0  0
   -2.6250   -6.7748   -3.4588 O   0  0  0  1  0  0  0  0  0  0  0  0
   -2.2032   -7.6577   -2.4075 C   0  0  0  1  0  0  0  0  0  0  0  0
    3.4098    1.5117   -2.1457 N   0  0  0  1  0  0  0  0  0  0  0  0
    3.7707    1.5377   -0.7337 C   0  0  0  1  0  0  0  0  0  0  0  0
    5.0513    2.3526   -0.5222 C   0  0  0  1  0  0  0  0  0  0  0  0
    4.5687    3.7786   -0.2564 C   0  0  0  1  0  0  0  0  0  0  0  0
    3.3340    3.5416    0.6165 C   0  0  0  1  0  0  0  0  0  0  0  0
    2.6913    2.2590    0.0832 C   0  0  0  1  0  0  0  0  0  0  0  0
    5.5879    4.5629    0.4611 N   0  0  0  1  0  0  0  0  0  0  0  0
    0.9317   -2.0527   -1.6523 H   0  0  0  1  0  0  0  0  0  0  0  0
    0.8528    0.2620   -6.5152 H   0  0  0  1  0  0  0  0  0  0  0  0
    0.8504   -3.9345   -2.8551 H   0  0  0  1  0  0  0  0  0  0  0  0
   -0.2535   -6.0489   -2.4109 H   0  0  0  1  0  0  0  0  0  0  0  0
   -3.4376   -4.9071   -4.8981 H   0  0  0  1  0  0  0  0  0  0  0  0
   -2.3357   -2.7963   -5.3418 H   0  0  0  1  0  0  0  0  0  0  0  0
   -2.8157   -8.5350   -2.4107 H   0  0  0  1  0  0  0  0  0  0  0  0
   -2.2980   -7.1603   -1.4649 H   0  0  0  1  0  0  0  0  0  0  0  0
   -1.1818   -7.9355   -2.5636 H   0  0  0  1  0  0  0  0  0  0  0  0
    3.8048    2.1731   -2.7516 H   0  0  0  1  0  0  0  0  0  0  0  0
    3.9014    0.5362   -0.3800 H   0  0  0  1  0  0  0  0  0  0  0  0
    5.6015    1.9789    0.3160 H   0  0  0  1  0  0  0  0  0  0  0  0
    5.6671    2.3202   -1.3967 H   0  0  0  1  0  0  0  0  0  0  0  0
    4.3103    4.2772   -1.1673 H   0  0  0  1  0  0  0  0  0  0  0  0
    2.6536    4.3631    0.5318 H   0  0  0  1  0  0  0  0  0  0  0  0
    3.6191    3.4182    1.6405 H   0  0  0  1  0  0  0  0  0  0  0  0
    1.8540    2.4966   -0.5392 H   0  0  0  1  0  0  0  0  0  0  0  0
    2.3687    1.6420    0.8957 H   0  0  0  1  0  0  0  0  0  0  0  0
    6.3613    4.7069   -0.1234 H   0  0  0  1  0  0  0  0  0  0  0  0
    5.8709    4.0749    1.2626 H   0  0  0  1  0  0  0  0  0  0  0  0
  1  2  4  0  0  0  0
  1  6  4  0  0  0  0
  2  3  4  0  0  0  0
  2 18  1  0  0  0  0
  3  4  4  0  0  0  0
  4  5  4  0  0  0  0
  4  7  4  0  0  0  0
  5  6  4  0  0  0  0
  5  9  4  0  0  0  0
  6 25  1  0  0  0  0
  7  8  4  0  0  0  0
  7 26  1  0  0  0  0
  8  9  4  0  0  0  0
  9 10  1  0  0  0  0
 10 11  4  0  0  0  0
 10 15  4  0  0  0  0
 11 12  4  0  0  0  0
 11 27  1  0  0  0  0
 12 13  4  0  0  0  0
 12 28  1  0  0  0  0
 13 14  4  0  0  0  0
 13 16  1  0  0  0  0
 14 15  4  0  0  0  0
 14 29  1  0  0  0  0
 15 30  1  0  0  0  0
 16 17  1  0  0  0  0
 17 31  1  0  0  0  0
 17 32  1  0  0  0  0
 17 33  1  0  0  0  0
 18 19  1  0  0  0  0
 18 34  1  0  0  0  0
 19 20  1  0  0  0  0
 19 23  1  0  0  0  0
 19 35  1  0  0  0  0
 20 21  1  0  0  0  0
 20 36  1  0  0  0  0
 20 37  1  0  0  0  0
 21 22  1  0  0  0  0
 21 24  1  0  0  0  0
 21 38  1  0  0  0  0
 22 23  1  0  0  0  0
 22 39  1  0  0  0  0
 22 40  1  0  0  0  0
 23 41  1  0  0  0  0
 23 42  1  0  0  0  0
 24 43  1  0  0  0  0
 24 44  1  0  0  0  0
M  END
> <ConfClashScore>
0 

> <ConfOneFourInteractionScore>
-0.984337 

> <ConfScore>
-0.130267 

> <ConfScorePBest>
0.0052326 

> <ConfTolerance>
0.220591 

$$$$
c13.sdf
 OpenBabel04162418043D

 44 47  0  0  0  0  0  0  0  0999 V2000
    2.1079   -0.3773   -1.8532 N   0  0  0  1  0  0  0  0  0  0  0  0
    2.5364    0.5907   -2.6455 C   0  0  0  1  0  0  0  0  0  0  0  0
    2.1525    0.6996   -3.8968 N   0  0  0  1  0  0  0  0  0  0  0  0
    1.2985   -0.1838   -4.4201 C   0  0  0  1  0  0  0  0  0  0  0  0
    0.8204   -1.2305   -3.6033 C   0  0  0  1  0  0  0  0  0  0  0  0
    1.2615   -1.2960   -2.2850 C   0  0  0  1  0  0  0  0  0  0  0  0
    0.7019   -0.3513   -5.6890 C   0  0  0  1  0  0  0  0  0  0  0  0
   -0.0689   -1.4011   -5.6537 N   0  0  0  1  0  0  0  0  0  0  0  0
   -0.0256   -1.9781   -4.3778 N   0  0  0  1  0  0  0  0  0  0  0  0
   -0.7040   -3.1780   -4.1168 C   0  0  0  1  0  0  0  0  0  0  0  0
   -1.7451   -3.6722   -4.8797 C   0  0  0  1  0  0  0  0  0  0  0  0
   -2.3454   -4.8739   -4.5374 C   0  0  0  1  0  0  0  0  0  0  0  0
   -1.9065   -5.5751   -3.4301 C   0  0  0  1  0  0  0  0  0  0  0  0
   -0.8623   -5.0792   -2.6650 C   0  0  0  1  0  0  0  0  0  0  0  0
   -0.2637   -3.8811   -3.0063 C   0  0  0  1  0  0  0  0  0  0  0  0
   -2.4528   -6.7508   -3.0391 O   0  0  0  1  0  0  0  0  0  0  0  0
   -2.1257   -7.2205   -1.7219 C   0  0  0  1  0  0  0  0  0  0  0  0
    3.4220    1.5245   -2.1387 N   0  0  0  1  0  0  0  0  0  0  0  0
    3.7950    1.4182   -0.7255 C   0  0  0  1  0  0  0  0  0  0  0  0
    5.2156    1.9300   -0.4867 C   0  0  0  1  0  0  0  0  0  0  0  0
    5.2604    2.2830    1.0041 C   0  0  0  1  0  0  0  0  0  0  0  0
    3.8197    2.6560    1.3759 C   0  0  0  1  0  0  0  0  0  0  0  0
    2.9629    2.3662    0.1414 C   0  0  0  1  0  0  0  0  0  0  0  0
    5.7201    1.1095    1.8055 N   0  0  0  1  0  0  0  0  0  0  0  0
    0.9317   -2.0526   -1.6522 H   0  0  0  1  0  0  0  0  0  0  0  0
    0.8529    0.2619   -6.5152 H   0  0  0  1  0  0  0  0  0  0  0  0
   -2.0781   -3.1427   -5.7106 H   0  0  0  1  0  0  0  0  0  0  0  0
   -3.1261   -5.2479   -5.1138 H   0  0  0  1  0  0  0  0  0  0  0  0
   -0.5293   -5.6088   -1.8342 H   0  0  0  1  0  0  0  0  0  0  0  0
    0.5170   -3.5070   -2.4299 H   0  0  0  1  0  0  0  0  0  0  0  0
   -2.3742   -6.4683   -1.0025 H   0  0  0  1  0  0  0  0  0  0  0  0
   -1.0782   -7.4322   -1.6689 H   0  0  0  1  0  0  0  0  0  0  0  0
   -2.6811   -8.1109   -1.5128 H   0  0  0  1  0  0  0  0  0  0  0  0
    3.7882    2.2343   -2.7065 H   0  0  0  1  0  0  0  0  0  0  0  0
    3.6886    0.4034   -0.4033 H   0  0  0  1  0  0  0  0  0  0  0  0
    5.9332    1.1699   -0.7155 H   0  0  0  1  0  0  0  0  0  0  0  0
    5.4095    2.7958   -1.0847 H   0  0  0  1  0  0  0  0  0  0  0  0
    5.9172    3.1105    1.1734 H   0  0  0  1  0  0  0  0  0  0  0  0
    3.4871    2.0651    2.2037 H   0  0  0  1  0  0  0  0  0  0  0  0
    3.7609    3.6934    1.6313 H   0  0  0  1  0  0  0  0  0  0  0  0
    2.0429    1.9004    0.4268 H   0  0  0  1  0  0  0  0  0  0  0  0
    2.7550    3.2718   -0.3894 H   0  0  0  1  0  0  0  0  0  0  0  0
    6.6801    0.9725    1.6639 H   0  0  0  1  0  0  0  0  0  0  0  0
    5.2308    0.3091    1.5225 H   0  0  0  1  0  0  0  0  0  0  0  0
  1  2  4  0  0  0  0
  1  6  4  0  0  0  0
  2  3  4  0  0  0  0
  2 18  1  0  0  0  0
  3  4  4  0  0  0  0
  4  5  4  0  0  0  0
  4  7  4  0  0  0  0
  5  6  4  0  0  0  0
  5  9  4  0  0  0  0
  6 25  1  0  0  0  0
  7  8  4  0  0  0  0
  7 26  1  0  0  0  0
  8  9  4  0  0  0  0
  9 10  1  0  0  0  0
 10 11  4  0  0  0  0
 10 15  4  0  0  0  0
 11 12  4  0  0  0  0
 11 27  1  0  0  0  0
 12 13  4  0  0  0  0
 12 28  1  0  0  0  0
 13 14  4  0  0  0  0
 13 16  1  0  0  0  0
 14 15  4  0  0  0  0
 14 29  1  0  0  0  0
 15 30  1  0  0  0  0
 16 17  1  0  0  0  0
 17 31  1  0  0  0  0
 17 32  1  0  0  0  0
 17 33  1  0  0  0  0
 18 19  1  0  0  0  0
 18 34  1  0  0  0  0
 19 20  1  0  0  0  0
 19 23  1  0  0  0  0
 19 35  1  0  0  0  0
 20 21  1  0  0  0  0
 20 36  1  0  0  0  0
 20 37  1  0  0  0  0
 21 22  1  0  0  0  0
 21 24  1  0  0  0  0
 21 38  1  0  0  0  0
 22 23  1  0  0  0  0
 22 39  1  0  0  0  0
 22 40  1  0  0  0  0
 23 41  1  0  0  0  0
 23 42  1  0  0  0  0
 24 43  1  0  0  0  0
 24 44  1  0  0  0  0
M  END
> <ConfClashScore>
0 

> <ConfOneFourInteractionScore>
-0.984337 

> <ConfScore>
-0.13004 

> <ConfScorePBest>
0.00521927 

> <ConfTolerance>
0.294415 

$$$$
c13.sdf
 OpenBabel04162418043D

 44 47  0  0  0  0  0  0  0  0999 V2000
    2.1079   -0.3774   -1.8532 N   0  0  0  1  0  0  0  0  0  0  0  0
    2.5363    0.5907   -2.6455 C   0  0  0  1  0  0  0  0  0  0  0  0
    2.1526    0.6997   -3.8968 N   0  0  0  1  0  0  0  0  0  0  0  0
    1.2986   -0.1837   -4.4201 C   0  0  0  1  0  0  0  0  0  0  0  0
    0.8204   -1.2304   -3.6033 C   0  0  0  1  0  0  0  0  0  0  0  0
    1.2615   -1.2961   -2.2850 C   0  0  0  1  0  0  0  0  0  0  0  0
    0.7019   -0.3512   -5.6890 C   0  0  0  1  0  0  0  0  0  0  0  0
   -0.0690   -1.4010   -5.6537 N   0  0  0  1  0  0  0  0  0  0  0  0
   -0.0256   -1.9781   -4.3778 N   0  0  0  1  0  0  0  0  0  0  0  0
   -0.7857   -3.1447   -4.0791 C   0  0  0  1  0  0  0  0  0  0  0  0
   -1.8297   -3.5144   -4.9058 C   0  0  0  1  0  0  0  0  0  0  0  0
   -2.5093   -4.7004   -4.6757 C   0  0  0  1  0  0  0  0  0  0  0  0
   -2.1463   -5.5107   -3.6163 C   0  0  0  1  0  0  0  0  0  0  0  0
   -1.0992   -5.1396   -2.7873 C   0  0  0  1  0  0  0  0  0  0  0  0
   -0.4215   -3.9571   -3.0167 C   0  0  0  1  0  0  0  0  0  0  0  0
   -2.8756   -6.6253   -3.4894 O   0  0  0  1  0  0  0  0  0  0  0  0
   -2.5615   -7.6394   -2.4809 C   0  0  0  1  0  0  0  0  0  0  0  0
    3.3977    1.4989   -2.1525 N   0  0  0  1  0  0  0  0  0  0  0  0
    3.9966    2.7052   -2.7313 C   0  0  0  1  0  0  0  0  0  0  0  0
    4.0896    3.8298   -1.6871 C   0  0  0  1  0  0  0  0  0  0  0  0
    5.4628    4.4716   -1.8087 C   0  0  0  1  0  0  0  0  0  0  0  0
    6.1194    3.8331   -3.0475 C   0  0  0  1  0  0  0  0  0  0  0  0
    5.4471    2.4643   -3.1114 C   0  0  0  1  0  0  0  0  0  0  0  0
    5.3313    5.9496   -1.9938 N   0  0  0  1  0  0  0  0  0  0  0  0
    0.9318   -2.0527   -1.6522 H   0  0  0  1  0  0  0  0  0  0  0  0
    0.8528    0.2621   -6.5152 H   0  0  0  1  0  0  0  0  0  0  0  0
   -2.1055   -2.9028   -5.7006 H   0  0  0  1  0  0  0  0  0  0  0  0
   -3.2923   -4.9807   -5.3001 H   0  0  0  1  0  0  0  0  0  0  0  0
   -0.8234   -5.7512   -1.9926 H   0  0  0  1  0  0  0  0  0  0  0  0
    0.3615   -3.6769   -2.3922 H   0  0  0  1  0  0  0  0  0  0  0  0
   -1.5561   -7.9793   -2.6171 H   0  0  0  1  0  0  0  0  0  0  0  0
   -3.2340   -8.4652   -2.5843 H   0  0  0  1  0  0  0  0  0  0  0  0
   -2.6649   -7.2147   -1.5042 H   0  0  0  1  0  0  0  0  0  0  0  0
    3.6782    1.3199   -1.2308 H   0  0  0  1  0  0  0  0  0  0  0  0
    3.4243    3.0161   -3.5801 H   0  0  0  1  0  0  0  0  0  0  0  0
    3.3298    4.5603   -1.8716 H   0  0  0  1  0  0  0  0  0  0  0  0
    3.9642    3.4244   -0.7048 H   0  0  0  1  0  0  0  0  0  0  0  0
    6.0456    4.2717   -0.9340 H   0  0  0  1  0  0  0  0  0  0  0  0
    5.9172    4.4042   -3.9295 H   0  0  0  1  0  0  0  0  0  0  0  0
    7.1773    3.7382   -2.9182 H   0  0  0  1  0  0  0  0  0  0  0  0
    5.5122    2.0618   -4.1006 H   0  0  0  1  0  0  0  0  0  0  0  0
    5.9073    1.7894   -2.4202 H   0  0  0  1  0  0  0  0  0  0  0  0
    4.9508    6.1360   -2.8774 H   0  0  0  1  0  0  0  0  0  0  0  0
    6.2150    6.3671   -1.9240 H   0  0  0  1  0  0  0  0  0  0  0  0
  1  2  4  0  0  0  0
  1  6  4  0  0  0  0
  2  3  4  0  0  0  0
  2 18  1  0  0  0  0
  3  4  4  0  0  0  0
  4  5  4  0  0  0  0
  4  7  4  0  0  0  0
  5  6  4  0  0  0  0
  5  9  4  0  0  0  0
  6 25  1  0  0  0  0
  7  8  4  0  0  0  0
  7 26  1  0  0  0  0
  8  9  4  0  0  0  0
  9 10  1  0  0  0  0
 10 11  4  0  0  0  0
 10 15  4  0  0  0  0
 11 12  4  0  0  0  0
 11 27  1  0  0  0  0
 12 13  4  0  0  0  0
 12 28  1  0  0  0  0
 13 14  4  0  0  0  0
 13 16  1  0  0  0  0
 14 15  4  0  0  0  0
 14 29  1  0  0  0  0
 15 30  1  0  0  0  0
 16 17  1  0  0  0  0
 17 31  1  0  0  0  0
 17 32  1  0  0  0  0
 17 33  1  0  0  0  0
 18 19  1  0  0  0  0
 18 34  1  0  0  0  0
 19 20  1  0  0  0  0
 19 23  1  0  0  0  0
 19 35  1  0  0  0  0
 20 21  1  0  0  0  0
 20 36  1  0  0  0  0
 20 37  1  0  0  0  0
 21 22  1  0  0  0  0
 21 24  1  0  0  0  0
 21 38  1  0  0  0  0
 22 23  1  0  0  0  0
 22 39  1  0  0  0  0
 22 40  1  0  0  0  0
 23 41  1  0  0  0  0
 23 42  1  0  0  0  0
 24 43  1  0  0  0  0
 24 44  1  0  0  0  0
M  END
> <ConfClashScore>
0 

> <ConfOneFourInteractionScore>
-0.984337 

> <ConfScore>
-0.127265 

> <ConfScorePBest>
0.00520594 

> <ConfTolerance>
0.310819 

$$$$
c13.sdf
 OpenBabel04162418043D

 44 47  0  0  0  0  0  0  0  0999 V2000
    2.1080   -0.3773   -1.8532 N   0  0  0  1  0  0  0  0  0  0  0  0
    2.5363    0.5907   -2.6455 C   0  0  0  1  0  0  0  0  0  0  0  0
    2.1526    0.6996   -3.8968 N   0  0  0  1  0  0  0  0  0  0  0  0
    1.2986   -0.1837   -4.4201 C   0  0  0  1  0  0  0  0  0  0  0  0
    0.8205   -1.2305   -3.6033 C   0  0  0  1  0  0  0  0  0  0  0  0
    1.2615   -1.2960   -2.2849 C   0  0  0  1  0  0  0  0  0  0  0  0
    0.7020   -0.3513   -5.6890 C   0  0  0  1  0  0  0  0  0  0  0  0
   -0.0688   -1.4010   -5.6538 N   0  0  0  1  0  0  0  0  0  0  0  0
   -0.0256   -1.9781   -4.3778 N   0  0  0  1  0  0  0  0  0  0  0  0
   -0.7847   -3.1434   -4.0794 C   0  0  0  1  0  0  0  0  0  0  0  0
   -2.1058   -3.2291   -4.4767 C   0  0  0  1  0  0  0  0  0  0  0  0
   -2.8698   -4.3261   -4.1101 C   0  0  0  1  0  0  0  0  0  0  0  0
   -2.3122   -5.3317   -3.3431 C   0  0  0  1  0  0  0  0  0  0  0  0
   -0.9872   -5.2455   -2.9448 C   0  0  0  1  0  0  0  0  0  0  0  0
   -0.2254   -4.1518   -3.3102 C   0  0  0  1  0  0  0  0  0  0  0  0
   -3.1551   -6.3482   -3.0431 O   0  0  0  1  0  0  0  0  0  0  0  0
   -2.7172   -7.2936   -2.0546 C   0  0  0  1  0  0  0  0  0  0  0  0
    3.3977    1.4989   -2.1526 N   0  0  0  1  0  0  0  0  0  0  0  0
    3.8817    1.4987   -0.7713 C   0  0  0  1  0  0  0  0  0  0  0  0
    5.1844    2.2880   -0.6398 C   0  0  0  1  0  0  0  0  0  0  0  0
    5.2618    2.6741    0.8414 C   0  0  0  1  0  0  0  0  0  0  0  0
    3.8052    2.7608    1.3145 C   0  0  0  1  0  0  0  0  0  0  0  0
    2.9394    2.2802    0.1475 C   0  0  0  1  0  0  0  0  0  0  0  0
    5.9956    1.6414    1.6087 N   0  0  0  1  0  0  0  0  0  0  0  0
    0.9317   -2.0526   -1.6522 H   0  0  0  1  0  0  0  0  0  0  0  0
    0.8529    0.2620   -6.5152 H   0  0  0  1  0  0  0  0  0  0  0  0
   -2.5266   -2.4706   -5.0504 H   0  0  0  1  0  0  0  0  0  0  0  0
   -3.8627   -4.3926   -4.4124 H   0  0  0  1  0  0  0  0  0  0  0  0
   -0.5664   -6.0040   -2.3710 H   0  0  0  1  0  0  0  0  0  0  0  0
    0.7676   -4.0853   -3.0080 H   0  0  0  1  0  0  0  0  0  0  0  0
   -1.7804   -7.7152   -2.3537 H   0  0  0  1  0  0  0  0  0  0  0  0
   -3.4446   -8.0726   -1.9596 H   0  0  0  1  0  0  0  0  0  0  0  0
   -2.6006   -6.7972   -1.1138 H   0  0  0  1  0  0  0  0  0  0  0  0
    3.7202    2.2022   -2.7540 H   0  0  0  1  0  0  0  0  0  0  0  0
    4.0032    0.4901   -0.4355 H   0  0  0  1  0  0  0  0  0  0  0  0
    6.0217    1.6813   -0.9152 H   0  0  0  1  0  0  0  0  0  0  0  0
    5.1589    3.1623   -1.2561 H   0  0  0  1  0  0  0  0  0  0  0  0
    5.7499    3.6192    0.9569 H   0  0  0  1  0  0  0  0  0  0  0  0
    3.6562    2.1329    2.1680 H   0  0  0  1  0  0  0  0  0  0  0  0
    3.5581    3.7708    1.5665 H   0  0  0  1  0  0  0  0  0  0  0  0
    2.5181    3.1149   -0.3729 H   0  0  0  1  0  0  0  0  0  0  0  0
    2.1535    1.6467    0.5021 H   0  0  0  1  0  0  0  0  0  0  0  0
    5.5546    0.7737    1.4942 H   0  0  0  1  0  0  0  0  0  0  0  0
    6.0003    1.8824    2.5586 H   0  0  0  1  0  0  0  0  0  0  0  0
  1  2  4  0  0  0  0
  1  6  4  0  0  0  0
  2  3  4  0  0  0  0
  2 18  1  0  0  0  0
  3  4  4  0  0  0  0
  4  5  4  0  0  0  0
  4  7  4  0  0  0  0
  5  6  4  0  0  0  0
  5  9  4  0  0  0  0
  6 25  1  0  0  0  0
  7  8  4  0  0  0  0
  7 26  1  0  0  0  0
  8  9  4  0  0  0  0
  9 10  1  0  0  0  0
 10 11  4  0  0  0  0
 10 15  4  0  0  0  0
 11 12  4  0  0  0  0
 11 27  1  0  0  0  0
 12 13  4  0  0  0  0
 12 28  1  0  0  0  0
 13 14  4  0  0  0  0
 13 16  1  0  0  0  0
 14 15  4  0  0  0  0
 14 29  1  0  0  0  0
 15 30  1  0  0  0  0
 16 17  1  0  0  0  0
 17 31  1  0  0  0  0
 17 32  1  0  0  0  0
 17 33  1  0  0  0  0
 18 19  1  0  0  0  0
 18 34  1  0  0  0  0
 19 20  1  0  0  0  0
 19 23  1  0  0  0  0
 19 35  1  0  0  0  0
 20 21  1  0  0  0  0
 20 36  1  0  0  0  0
 20 37  1  0  0  0  0
 21 22  1  0  0  0  0
 21 24  1  0  0  0  0
 21 38  1  0  0  0  0
 22 23  1  0  0  0  0
 22 39  1  0  0  0  0
 22 40  1  0  0  0  0
 23 41  1  0  0  0  0
 23 42  1  0  0  0  0
 24 43  1  0  0  0  0
 24 44  1  0  0  0  0
M  END
> <ConfClashScore>
0 

> <ConfOneFourInteractionScore>
-0.984337 

> <ConfScore>
-0.124584 

> <ConfScorePBest>
0.00519261 

> <ConfTolerance>
0.193606 

$$$$
c13.sdf
 OpenBabel04162418043D

 44 47  0  0  0  0  0  0  0  0999 V2000
    2.1079   -0.3773   -1.8533 N   0  0  0  1  0  0  0  0  0  0  0  0
    2.5364    0.5907   -2.6454 C   0  0  0  1  0  0  0  0  0  0  0  0
    2.1526    0.6996   -3.8969 N   0  0  0  1  0  0  0  0  0  0  0  0
    1.2985   -0.1837   -4.4201 C   0  0  0  1  0  0  0  0  0  0  0  0
    0.8204   -1.2305   -3.6034 C   0  0  0  1  0  0  0  0  0  0  0  0
    1.2614   -1.2960   -2.2850 C   0  0  0  1  0  0  0  0  0  0  0  0
    0.7020   -0.3513   -5.6890 C   0  0  0  1  0  0  0  0  0  0  0  0
   -0.0688   -1.4010   -5.6537 N   0  0  0  1  0  0  0  0  0  0  0  0
   -0.0256   -1.9781   -4.3778 N   0  0  0  1  0  0  0  0  0  0  0  0
   -0.7857   -3.1448   -4.0791 C   0  0  0  1  0  0  0  0  0  0  0  0
   -0.7752   -4.2179   -4.9500 C   0  0  0  1  0  0  0  0  0  0  0  0
   -1.5108   -5.3555   -4.6566 C   0  0  0  1  0  0  0  0  0  0  0  0
   -2.2590   -5.4147   -3.4960 C   0  0  0  1  0  0  0  0  0  0  0  0
   -2.2694   -4.3382   -2.6227 C   0  0  0  1  0  0  0  0  0  0  0  0
   -1.5360   -3.2038   -2.9151 C   0  0  0  1  0  0  0  0  0  0  0  0
   -3.0028   -6.4933   -3.1535 O   0  0  0  1  0  0  0  0  0  0  0  0
   -2.9080   -7.6508   -3.9984 C   0  0  0  1  0  0  0  0  0  0  0  0
    3.3976    1.4989   -2.1526 N   0  0  0  1  0  0  0  0  0  0  0  0
    4.0581    1.5224   -0.8436 C   0  0  0  1  0  0  0  0  0  0  0  0
    5.4975    2.1304   -0.9546 C   0  0  0  1  0  0  0  0  0  0  0  0
    5.7810    2.6351    0.5004 C   0  0  0  1  0  0  0  0  0  0  0  0
    4.3953    2.9509    1.1310 C   0  0  0  1  0  0  0  0  0  0  0  0
    3.3337    2.4812    0.1209 C   0  0  0  1  0  0  0  0  0  0  0  0
    6.4707    1.5865    1.2802 N   0  0  0  1  0  0  0  0  0  0  0  0
    0.9317   -2.0526   -1.6523 H   0  0  0  1  0  0  0  0  0  0  0  0
    0.8530    0.2620   -6.5152 H   0  0  0  1  0  0  0  0  0  0  0  0
   -0.2154   -4.1720   -5.8253 H   0  0  0  1  0  0  0  0  0  0  0  0
   -1.4998   -6.1646   -5.3098 H   0  0  0  1  0  0  0  0  0  0  0  0
   -2.8291   -4.3842   -1.7473 H   0  0  0  1  0  0  0  0  0  0  0  0
   -1.5469   -2.3947   -2.2619 H   0  0  0  1  0  0  0  0  0  0  0  0
   -3.6622   -8.3576   -3.7218 H   0  0  0  1  0  0  0  0  0  0  0  0
   -1.9422   -8.0972   -3.8842 H   0  0  0  1  0  0  0  0  0  0  0  0
   -3.0487   -7.3600   -5.0185 H   0  0  0  1  0  0  0  0  0  0  0  0
    3.6128    2.2461   -2.7491 H   0  0  0  1  0  0  0  0  0  0  0  0
    4.0921    0.5310   -0.4429 H   0  0  0  1  0  0  0  0  0  0  0  0
    5.5197    2.9403   -1.6534 H   0  0  0  1  0  0  0  0  0  0  0  0
    6.2075    1.3856   -1.2481 H   0  0  0  1  0  0  0  0  0  0  0  0
    6.3860    3.5173    0.4749 H   0  0  0  1  0  0  0  0  0  0  0  0
    4.2827    2.4251    2.0559 H   0  0  0  1  0  0  0  0  0  0  0  0
    4.3000    4.0025    1.3040 H   0  0  0  1  0  0  0  0  0  0  0  0
    2.9358    3.3171   -0.4155 H   0  0  0  1  0  0  0  0  0  0  0  0
    2.5406    1.9707    0.6260 H   0  0  0  1  0  0  0  0  0  0  0  0
    6.4809    1.8367    2.2276 H   0  0  0  1  0  0  0  0  0  0  0  0
    7.3911    1.4918    0.9576 H   0  0  0  1  0  0  0  0  0  0  0  0
  1  2  4  0  0  0  0
  1  6  4  0  0  0  0
  2  3  4  0  0  0  0
  2 18  1  0  0  0  0
  3  4  4  0  0  0  0
  4  5  4  0  0  0  0
  4  7  4  0  0  0  0
  5  6  4  0  0  0  0
  5  9  4  0  0  0  0
  6 25  1  0  0  0  0
  7  8  4  0  0  0  0
  7 26  1  0  0  0  0
  8  9  4  0  0  0  0
  9 10  1  0  0  0  0
 10 11  4  0  0  0  0
 10 15  4  0  0  0  0
 11 12  4  0  0  0  0
 11 27  1  0  0  0  0
 12 13  4  0  0  0  0
 12 28  1  0  0  0  0
 13 14  4  0  0  0  0
 13 16  1  0  0  0  0
 14 15  4  0  0  0  0
 14 29  1  0  0  0  0
 15 30  1  0  0  0  0
 16 17  1  0  0  0  0
 17 31  1  0  0  0  0
 17 32  1  0  0  0  0
 17 33  1  0  0  0  0
 18 19  1  0  0  0  0
 18 34  1  0  0  0  0
 19 20  1  0  0  0  0
 19 23  1  0  0  0  0
 19 35  1  0  0  0  0
 20 21  1  0  0  0  0
 20 36  1  0  0  0  0
 20 37  1  0  0  0  0
 21 22  1  0  0  0  0
 21 24  1  0  0  0  0
 21 38  1  0  0  0  0
 22 23  1  0  0  0  0
 22 39  1  0  0  0  0
 22 40  1  0  0  0  0
 23 41  1  0  0  0  0
 23 42  1  0  0  0  0
 24 43  1  0  0  0  0
 24 44  1  0  0  0  0
M  END
> <ConfClashScore>
0 

> <ConfOneFourInteractionScore>
-0.984337 

> <ConfScore>
-0.117562 

> <ConfScorePBest>
0.00517929 

> <ConfTolerance>
0.211233 

$$$$
c13.sdf
 OpenBabel04162418043D

 44 47  0  0  0  0  0  0  0  0999 V2000
    2.1079   -0.3774   -1.8532 N   0  0  0  1  0  0  0  0  0  0  0  0
    2.5364    0.5907   -2.6455 C   0  0  0  1  0  0  0  0  0  0  0  0
    2.1525    0.6996   -3.8968 N   0  0  0  1  0  0  0  0  0  0  0  0
    1.2985   -0.1838   -4.4201 C   0  0  0  1  0  0  0  0  0  0  0  0
    0.8204   -1.2305   -3.6034 C   0  0  0  1  0  0  0  0  0  0  0  0
    1.2616   -1.2960   -2.2850 C   0  0  0  1  0  0  0  0  0  0  0  0
    0.7019   -0.3513   -5.6890 C   0  0  0  1  0  0  0  0  0  0  0  0
   -0.0689   -1.4010   -5.6538 N   0  0  0  1  0  0  0  0  0  0  0  0
   -0.0256   -1.9781   -4.3778 N   0  0  0  1  0  0  0  0  0  0  0  0
   -0.8541   -3.0680   -4.0716 C   0  0  0  1  0  0  0  0  0  0  0  0
   -0.6395   -3.9470   -3.0269 C   0  0  0  1  0  0  0  0  0  0  0  0
   -1.5244   -4.9911   -2.8070 C   0  0  0  1  0  0  0  0  0  0  0  0
   -2.6181   -5.1564   -3.6356 C   0  0  0  1  0  0  0  0  0  0  0  0
   -2.8332   -4.2746   -4.6834 C   0  0  0  1  0  0  0  0  0  0  0  0
   -1.9510   -3.2335   -4.9027 C   0  0  0  1  0  0  0  0  0  0  0  0
   -3.4160   -6.2236   -3.3237 O   0  0  0  1  0  0  0  0  0  0  0  0
   -4.5594   -6.3352   -4.1854 C   0  0  0  1  0  0  0  0  0  0  0  0
    3.4293    1.5323   -2.1346 N   0  0  0  1  0  0  0  0  0  0  0  0
    3.8356    1.3044   -0.7469 C   0  0  0  1  0  0  0  0  0  0  0  0
    5.3304    1.6303   -0.5659 C   0  0  0  1  0  0  0  0  0  0  0  0
    5.3019    3.0972   -0.1452 C   0  0  0  1  0  0  0  0  0  0  0  0
    4.1055    3.2319    0.7804 C   0  0  0  1  0  0  0  0  0  0  0  0
    3.0877    2.2457    0.1843 C   0  0  0  1  0  0  0  0  0  0  0  0
    6.5597    3.4580    0.5729 N   0  0  0  1  0  0  0  0  0  0  0  0
    0.9318   -2.0526   -1.6523 H   0  0  0  1  0  0  0  0  0  0  0  0
    0.8528    0.2621   -6.5152 H   0  0  0  1  0  0  0  0  0  0  0  0
    0.1857   -3.8252   -2.4058 H   0  0  0  1  0  0  0  0  0  0  0  0
   -1.3651   -5.6503   -2.0184 H   0  0  0  1  0  0  0  0  0  0  0  0
   -3.6584   -4.3965   -5.3044 H   0  0  0  1  0  0  0  0  0  0  0  0
   -2.1102   -2.5744   -5.6913 H   0  0  0  1  0  0  0  0  0  0  0  0
   -4.2382   -6.3410   -5.2061 H   0  0  0  1  0  0  0  0  0  0  0  0
   -5.2117   -5.5029   -4.0218 H   0  0  0  1  0  0  0  0  0  0  0  0
   -5.0803   -7.2448   -3.9705 H   0  0  0  1  0  0  0  0  0  0  0  0
    3.7594    2.2882   -2.6637 H   0  0  0  1  0  0  0  0  0  0  0  0
    3.6419    0.2863   -0.4807 H   0  0  0  1  0  0  0  0  0  0  0  0
    5.8674    1.5018   -1.4825 H   0  0  0  1  0  0  0  0  0  0  0  0
    5.7698    1.0189    0.1943 H   0  0  0  1  0  0  0  0  0  0  0  0
    5.1853    3.7292   -1.0008 H   0  0  0  1  0  0  0  0  0  0  0  0
    4.3629    2.9586    1.7824 H   0  0  0  1  0  0  0  0  0  0  0  0
    3.7229    4.2312    0.7699 H   0  0  0  1  0  0  0  0  0  0  0  0
    2.6220    1.6863    0.9686 H   0  0  0  1  0  0  0  0  0  0  0  0
    2.3413    2.7816   -0.3641 H   0  0  0  1  0  0  0  0  0  0  0  0
    7.3207    3.3763   -0.0390 H   0  0  0  1  0  0  0  0  0  0  0  0
    6.6862    2.8532    1.3337 H   0  0  0  1  0  0  0  0  0  0  0  0
  1  2  4  0  0  0  0
  1  6  4  0  0  0  0
  2  3  4  0  0  0  0
  2 18  1  0  0  0  0
  3  4  4  0  0  0  0
  4  5  4  0  0  0  0
  4  7  4  0  0  0  0
  5  6  4  0  0  0  0
  5  9  4  0  0  0  0
  6 25  1  0  0  0  0
  7  8  4  0  0  0  0
  7 26  1  0  0  0  0
  8  9  4  0  0  0  0
  9 10  1  0  0  0  0
 10 11  4  0  0  0  0
 10 15  4  0  0  0  0
 11 12  4  0  0  0  0
 11 27  1  0  0  0  0
 12 13  4  0  0  0  0
 12 28  1  0  0  0  0
 13 14  4  0  0  0  0
 13 16  1  0  0  0  0
 14 15  4  0  0  0  0
 14 29  1  0  0  0  0
 15 30  1  0  0  0  0
 16 17  1  0  0  0  0
 17 31  1  0  0  0  0
 17 32  1  0  0  0  0
 17 33  1  0  0  0  0
 18 19  1  0  0  0  0
 18 34  1  0  0  0  0
 19 20  1  0  0  0  0
 19 23  1  0  0  0  0
 19 35  1  0  0  0  0
 20 21  1  0  0  0  0
 20 36  1  0  0  0  0
 20 37  1  0  0  0  0
 21 22  1  0  0  0  0
 21 24  1  0  0  0  0
 21 38  1  0  0  0  0
 22 23  1  0  0  0  0
 22 39  1  0  0  0  0
 22 40  1  0  0  0  0
 23 41  1  0  0  0  0
 23 42  1  0  0  0  0
 24 43  1  0  0  0  0
 24 44  1  0  0  0  0
M  END
> <ConfClashScore>
0 

> <ConfOneFourInteractionScore>
-0.984337 

> <ConfScore>
-0.115556 

> <ConfScorePBest>
0.00516596 

> <ConfTolerance>
0.268401 

$$$$
c13.sdf
 OpenBabel04162418043D

 44 47  0  0  0  0  0  0  0  0999 V2000
    2.1079   -0.3774   -1.8532 N   0  0  0  1  0  0  0  0  0  0  0  0
    2.5363    0.5907   -2.6455 C   0  0  0  1  0  0  0  0  0  0  0  0
    2.1526    0.6996   -3.8968 N   0  0  0  1  0  0  0  0  0  0  0  0
    1.2985   -0.1837   -4.4201 C   0  0  0  1  0  0  0  0  0  0  0  0
    0.8205   -1.2305   -3.6034 C   0  0  0  1  0  0  0  0  0  0  0  0
    1.2615   -1.2960   -2.2850 C   0  0  0  1  0  0  0  0  0  0  0  0
    0.7019   -0.3513   -5.6890 C   0  0  0  1  0  0  0  0  0  0  0  0
   -0.0689   -1.4010   -5.6537 N   0  0  0  1  0  0  0  0  0  0  0  0
   -0.0256   -1.9781   -4.3778 N   0  0  0  1  0  0  0  0  0  0  0  0
   -0.8661   -3.0838   -4.0671 C   0  0  0  1  0  0  0  0  0  0  0  0
   -1.9754   -2.9039   -3.2627 C   0  0  0  1  0  0  0  0  0  0  0  0
   -2.7970   -3.9798   -2.9645 C   0  0  0  1  0  0  0  0  0  0  0  0
   -2.5039   -5.2335   -3.4672 C   0  0  0  1  0  0  0  0  0  0  0  0
   -1.3912   -5.4138   -4.2740 C   0  0  0  1  0  0  0  0  0  0  0  0
   -0.5720   -4.3411   -4.5714 C   0  0  0  1  0  0  0  0  0  0  0  0
   -3.3690   -6.2012   -3.1064 O   0  0  0  1  0  0  0  0  0  0  0  0
   -2.9970   -7.5381   -3.5146 C   0  0  0  1  0  0  0  0  0  0  0  0
    3.4098    1.5117   -2.1457 N   0  0  0  1  0  0  0  0  0  0  0  0
    3.7811    1.5311   -0.7277 C   0  0  0  1  0  0  0  0  0  0  0  0
    5.1437    0.8608   -0.5208 C   0  0  0  1  0  0  0  0  0  0  0  0
    6.1602    1.9971   -0.6335 C   0  0  0  1  0  0  0  0  0  0  0  0
    5.4454    3.1397    0.0919 C   0  0  0  1  0  0  0  0  0  0  0  0
    3.9604    2.9740   -0.2393 C   0  0  0  1  0  0  0  0  0  0  0  0
    7.4263    1.6497    0.0336 N   0  0  0  1  0  0  0  0  0  0  0  0
    0.9317   -2.0526   -1.6523 H   0  0  0  1  0  0  0  0  0  0  0  0
    0.8529    0.2620   -6.5153 H   0  0  0  1  0  0  0  0  0  0  0  0
   -2.1938   -1.9613   -2.8811 H   0  0  0  1  0  0  0  0  0  0  0  0
   -3.6341   -3.8436   -2.3625 H   0  0  0  1  0  0  0  0  0  0  0  0
   -1.1729   -6.3562   -4.6556 H   0  0  0  1  0  0  0  0  0  0  0  0
    0.2651   -4.4772   -5.1734 H   0  0  0  1  0  0  0  0  0  0  0  0
   -3.7117   -8.2389   -3.1365 H   0  0  0  1  0  0  0  0  0  0  0  0
   -2.0279   -7.7727   -3.1263 H   0  0  0  1  0  0  0  0  0  0  0  0
   -2.9760   -7.5918   -4.5831 H   0  0  0  1  0  0  0  0  0  0  0  0
    3.7992    2.1777   -2.7502 H   0  0  0  1  0  0  0  0  0  0  0  0
    3.0276    1.0325   -0.1544 H   0  0  0  1  0  0  0  0  0  0  0  0
    5.1957    0.4035    0.4452 H   0  0  0  1  0  0  0  0  0  0  0  0
    5.3188    0.1226   -1.2753 H   0  0  0  1  0  0  0  0  0  0  0  0
    6.3520    2.2464   -1.6563 H   0  0  0  1  0  0  0  0  0  0  0  0
    5.8025    4.0856   -0.2585 H   0  0  0  1  0  0  0  0  0  0  0  0
    5.6026    3.0676    1.1478 H   0  0  0  1  0  0  0  0  0  0  0  0
    3.6740    3.6622   -1.0070 H   0  0  0  1  0  0  0  0  0  0  0  0
    3.3658    3.1452    0.6338 H   0  0  0  1  0  0  0  0  0  0  0  0
    7.8301    0.8766   -0.4131 H   0  0  0  1  0  0  0  0  0  0  0  0
    7.2510    1.4295    0.9723 H   0  0  0  1  0  0  0  0  0  0  0  0
  1  2  4  0  0  0  0
  1  6  4  0  0  0  0
  2  3  4  0  0  0  0
  2 18  1  0  0  0  0
  3  4  4  0  0  0  0
  4  5  4  0  0  0  0
  4  7  4  0  0  0  0
  5  6  4  0  0  0  0
  5  9  4  0  0  0  0
  6 25  1  0  0  0  0
  7  8  4  0  0  0  0
  7 26  1  0  0  0  0
  8  9  4  0  0  0  0
  9 10  1  0  0  0  0
 10 11  4  0  0  0  0
 10 15  4  0  0  0  0
 11 12  4  0  0  0  0
 11 27  1  0  0  0  0
 12 13  4  0  0  0  0
 12 28  1  0  0  0  0
 13 14  4  0  0  0  0
 13 16  1  0  0  0  0
 14 15  4  0  0  0  0
 14 29  1  0  0  0  0
 15 30  1  0  0  0  0
 16 17  1  0  0  0  0
 17 31  1  0  0  0  0
 17 32  1  0  0  0  0
 17 33  1  0  0  0  0
 18 19  1  0  0  0  0
 18 34  1  0  0  0  0
 19 20  1  0  0  0  0
 19 23  1  0  0  0  0
 19 35  1  0  0  0  0
 20 21  1  0  0  0  0
 20 36  1  0  0  0  0
 20 37  1  0  0  0  0
 21 22  1  0  0  0  0
 21 24  1  0  0  0  0
 21 38  1  0  0  0  0
 22 23  1  0  0  0  0
 22 39  1  0  0  0  0
 22 40  1  0  0  0  0
 23 41  1  0  0  0  0
 23 42  1  0  0  0  0
 24 43  1  0  0  0  0
 24 44  1  0  0  0  0
M  END
> <ConfClashScore>
0 

> <ConfOneFourInteractionScore>
-0.984337 

> <ConfScore>
-0.115079 

> <ConfScorePBest>
0.00515263 

> <ConfTolerance>
0.289669 

$$$$
c13.sdf
 OpenBabel04162418043D

 44 47  0  0  0  0  0  0  0  0999 V2000
    2.1080   -0.3775   -1.8533 N   0  0  0  1  0  0  0  0  0  0  0  0
    2.5363    0.5907   -2.6455 C   0  0  0  1  0  0  0  0  0  0  0  0
    2.1525    0.6996   -3.8968 N   0  0  0  1  0  0  0  0  0  0  0  0
    1.2986   -0.1837   -4.4201 C   0  0  0  1  0  0  0  0  0  0  0  0
    0.8204   -1.2305   -3.6034 C   0  0  0  1  0  0  0  0  0  0  0  0
    1.2616   -1.2961   -2.2850 C   0  0  0  1  0  0  0  0  0  0  0  0
    0.7019   -0.3512   -5.6890 C   0  0  0  1  0  0  0  0  0  0  0  0
   -0.0690   -1.4010   -5.6538 N   0  0  0  1  0  0  0  0  0  0  0  0
   -0.0256   -1.9781   -4.3778 N   0  0  0  1  0  0  0  0  0  0  0  0
   -0.7743   -3.1272   -4.0837 C   0  0  0  1  0  0  0  0  0  0  0  0
   -0.5423   -4.2130   -4.9066 C   0  0  0  1  0  0  0  0  0  0  0  0
   -1.2272   -5.3999   -4.6975 C   0  0  0  1  0  0  0  0  0  0  0  0
   -2.1460   -5.4960   -3.6695 C   0  0  0  1  0  0  0  0  0  0  0  0
   -2.3786   -4.4068   -2.8441 C   0  0  0  1  0  0  0  0  0  0  0  0
   -1.6957   -3.2233   -3.0524 C   0  0  0  1  0  0  0  0  0  0  0  0
   -2.7461   -6.6823   -3.4122 O   0  0  0  1  0  0  0  0  0  0  0  0
   -2.3234   -7.8171   -4.1934 C   0  0  0  1  0  0  0  0  0  0  0  0
    3.4010    1.5022   -2.1509 N   0  0  0  1  0  0  0  0  0  0  0  0
    3.9987    1.4213   -0.8117 C   0  0  0  1  0  0  0  0  0  0  0  0
    5.1959    0.4666   -0.8168 C   0  0  0  1  0  0  0  0  0  0  0  0
    6.1906    1.0918    0.1674 C   0  0  0  1  0  0  0  0  0  0  0  0
    6.0631    2.5720   -0.1530 C   0  0  0  1  0  0  0  0  0  0  0  0
    4.5647    2.7850   -0.3937 C   0  0  0  1  0  0  0  0  0  0  0  0
    5.8055    0.8076    1.5821 N   0  0  0  1  0  0  0  0  0  0  0  0
    0.9318   -2.0527   -1.6523 H   0  0  0  1  0  0  0  0  0  0  0  0
    0.8529    0.2621   -6.5152 H   0  0  0  1  0  0  0  0  0  0  0  0
    0.1461   -4.1396   -5.6828 H   0  0  0  1  0  0  0  0  0  0  0  0
   -1.0497   -6.2182   -5.3144 H   0  0  0  1  0  0  0  0  0  0  0  0
   -3.0670   -4.4803   -2.0680 H   0  0  0  1  0  0  0  0  0  0  0  0
   -1.8732   -2.4050   -2.4357 H   0  0  0  1  0  0  0  0  0  0  0  0
   -1.3429   -8.1163   -3.8871 H   0  0  0  1  0  0  0  0  0  0  0  0
   -2.3072   -7.5504   -5.2295 H   0  0  0  1  0  0  0  0  0  0  0  0
   -3.0063   -8.6272   -4.0438 H   0  0  0  1  0  0  0  0  0  0  0  0
    3.6440    2.2628   -2.7190 H   0  0  0  1  0  0  0  0  0  0  0  0
    3.2606    1.0919   -0.1105 H   0  0  0  1  0  0  0  0  0  0  0  0
    5.6231    0.4015   -1.7956 H   0  0  0  1  0  0  0  0  0  0  0  0
    4.9027   -0.5089   -0.4893 H   0  0  0  1  0  0  0  0  0  0  0  0
    7.1856    0.7402   -0.0095 H   0  0  0  1  0  0  0  0  0  0  0  0
    6.4022    3.1673    0.6688 H   0  0  0  1  0  0  0  0  0  0  0  0
    6.6255    2.8190   -1.0291 H   0  0  0  1  0  0  0  0  0  0  0  0
    4.0899    3.1241    0.5032 H   0  0  0  1  0  0  0  0  0  0  0  0
    4.4129    3.5035   -1.1719 H   0  0  0  1  0  0  0  0  0  0  0  0
    5.8031   -0.1608    1.7323 H   0  0  0  1  0  0  0  0  0  0  0  0
    4.9104    1.1671    1.7553 H   0  0  0  1  0  0  0  0  0  0  0  0
  1  2  4  0  0  0  0
  1  6  4  0  0  0  0
  2  3  4  0  0  0  0
  2 18  1  0  0  0  0
  3  4  4  0  0  0  0
  4  5  4  0  0  0  0
  4  7  4  0  0  0  0
  5  6  4  0  0  0  0
  5  9  4  0  0  0  0
  6 25  1  0  0  0  0
  7  8  4  0  0  0  0
  7 26  1  0  0  0  0
  8  9  4  0  0  0  0
  9 10  1  0  0  0  0
 10 11  4  0  0  0  0
 10 15  4  0  0  0  0
 11 12  4  0  0  0  0
 11 27  1  0  0  0  0
 12 13  4  0  0  0  0
 12 28  1  0  0  0  0
 13 14  4  0  0  0  0
 13 16  1  0  0  0  0
 14 15  4  0  0  0  0
 14 29  1  0  0  0  0
 15 30  1  0  0  0  0
 16 17  1  0  0  0  0
 17 31  1  0  0  0  0
 17 32  1  0  0  0  0
 17 33  1  0  0  0  0
 18 19  1  0  0  0  0
 18 34  1  0  0  0  0
 19 20  1  0  0  0  0
 19 23  1  0  0  0  0
 19 35  1  0  0  0  0
 20 21  1  0  0  0  0
 20 36  1  0  0  0  0
 20 37  1  0  0  0  0
 21 22  1  0  0  0  0
 21 24  1  0  0  0  0
 21 38  1  0  0  0  0
 22 23  1  0  0  0  0
 22 39  1  0  0  0  0
 22 40  1  0  0  0  0
 23 41  1  0  0  0  0
 23 42  1  0  0  0  0
 24 43  1  0  0  0  0
 24 44  1  0  0  0  0
M  END
> <ConfClashScore>
0 

> <ConfOneFourInteractionScore>
-0.984337 

> <ConfScore>
-0.115079 

> <ConfScorePBest>
0.0051393 

> <ConfTolerance>
0.258807 

$$$$
c13.sdf
 OpenBabel04162418043D

 44 47  0  0  0  0  0  0  0  0999 V2000
    2.1079   -0.3775   -1.8532 N   0  0  0  1  0  0  0  0  0  0  0  0
    2.5363    0.5907   -2.6455 C   0  0  0  1  0  0  0  0  0  0  0  0
    2.1525    0.6997   -3.8968 N   0  0  0  1  0  0  0  0  0  0  0  0
    1.2986   -0.1837   -4.4201 C   0  0  0  1  0  0  0  0  0  0  0  0
    0.8205   -1.2305   -3.6034 C   0  0  0  1  0  0  0  0  0  0  0  0
    1.2616   -1.2961   -2.2850 C   0  0  0  1  0  0  0  0  0  0  0  0
    0.7019   -0.3512   -5.6890 C   0  0  0  1  0  0  0  0  0  0  0  0
   -0.0690   -1.4010   -5.6538 N   0  0  0  1  0  0  0  0  0  0  0  0
   -0.0256   -1.9781   -4.3778 N   0  0  0  1  0  0  0  0  0  0  0  0
   -0.8761   -3.0878   -4.1073 C   0  0  0  1  0  0  0  0  0  0  0  0
   -0.5975   -3.9296   -3.0472 C   0  0  0  1  0  0  0  0  0  0  0  0
   -1.4285   -5.0066   -2.7807 C   0  0  0  1  0  0  0  0  0  0  0  0
   -2.5326   -5.2418   -3.5781 C   0  0  0  1  0  0  0  0  0  0  0  0
   -2.8119   -4.3974   -4.6414 C   0  0  0  1  0  0  0  0  0  0  0  0
   -1.9834   -3.3234   -4.9072 C   0  0  0  1  0  0  0  0  0  0  0  0
   -3.4102   -6.2608   -3.4190 O   0  0  0  1  0  0  0  0  0  0  0  0
   -3.0803   -7.2650   -2.4467 C   0  0  0  1  0  0  0  0  0  0  0  0
    3.3977    1.4989   -2.1526 N   0  0  0  1  0  0  0  0  0  0  0  0
    3.9143    1.4753   -0.7791 C   0  0  0  1  0  0  0  0  0  0  0  0
    5.3919    1.8651   -0.7354 C   0  0  0  1  0  0  0  0  0  0  0  0
    5.6316    2.3353    0.7034 C   0  0  0  1  0  0  0  0  0  0  0  0
    4.2789    2.8761    1.1840 C   0  0  0  1  0  0  0  0  0  0  0  0
    3.2690    2.5686    0.0759 C   0  0  0  1  0  0  0  0  0  0  0  0
    6.0729    1.1926    1.5609 N   0  0  0  1  0  0  0  0  0  0  0  0
    0.9318   -2.0528   -1.6523 H   0  0  0  1  0  0  0  0  0  0  0  0
    0.8528    0.2621   -6.5151 H   0  0  0  1  0  0  0  0  0  0  0  0
    0.2355   -3.7551   -2.4495 H   0  0  0  1  0  0  0  0  0  0  0  0
   -1.2212   -5.6377   -1.9805 H   0  0  0  1  0  0  0  0  0  0  0  0
   -3.6450   -4.5719   -5.2391 H   0  0  0  1  0  0  0  0  0  0  0  0
   -2.1907   -2.6923   -5.7074 H   0  0  0  1  0  0  0  0  0  0  0  0
   -2.9568   -6.8068   -1.4877 H   0  0  0  1  0  0  0  0  0  0  0  0
   -2.1694   -7.7498   -2.7300 H   0  0  0  1  0  0  0  0  0  0  0  0
   -3.8688   -7.9866   -2.3980 H   0  0  0  1  0  0  0  0  0  0  0  0
    3.6979    2.2189   -2.7458 H   0  0  0  1  0  0  0  0  0  0  0  0
    3.7558    0.5060   -0.3544 H   0  0  0  1  0  0  0  0  0  0  0  0
    5.5936    2.6551   -1.4283 H   0  0  0  1  0  0  0  0  0  0  0  0
    6.0106    1.0227   -0.9643 H   0  0  0  1  0  0  0  0  0  0  0  0
    6.3729    3.1066    0.7269 H   0  0  0  1  0  0  0  0  0  0  0  0
    4.3396    3.9319    1.3460 H   0  0  0  1  0  0  0  0  0  0  0  0
    3.9892    2.3913    2.0929 H   0  0  0  1  0  0  0  0  0  0  0  0
    3.0839    3.4424   -0.5132 H   0  0  0  1  0  0  0  0  0  0  0  0
    2.3489    2.2195    0.4960 H   0  0  0  1  0  0  0  0  0  0  0  0
    6.9638    0.8971    1.2789 H   0  0  0  1  0  0  0  0  0  0  0  0
    5.4387    0.4513    1.4686 H   0  0  0  1  0  0  0  0  0  0  0  0
  1  2  4  0  0  0  0
  1  6  4  0  0  0  0
  2  3  4  0  0  0  0
  2 18  1  0  0  0  0
  3  4  4  0  0  0  0
  4  5  4  0  0  0  0
  4  7  4  0  0  0  0
  5  6  4  0  0  0  0
  5  9  4  0  0  0  0
  6 25  1  0  0  0  0
  7  8  4  0  0  0  0
  7 26  1  0  0  0  0
  8  9  4  0  0  0  0
  9 10  1  0  0  0  0
 10 11  4  0  0  0  0
 10 15  4  0  0  0  0
 11 12  4  0  0  0  0
 11 27  1  0  0  0  0
 12 13  4  0  0  0  0
 12 28  1  0  0  0  0
 13 14  4  0  0  0  0
 13 16  1  0  0  0  0
 14 15  4  0  0  0  0
 14 29  1  0  0  0  0
 15 30  1  0  0  0  0
 16 17  1  0  0  0  0
 17 31  1  0  0  0  0
 17 32  1  0  0  0  0
 17 33  1  0  0  0  0
 18 19  1  0  0  0  0
 18 34  1  0  0  0  0
 19 20  1  0  0  0  0
 19 23  1  0  0  0  0
 19 35  1  0  0  0  0
 20 21  1  0  0  0  0
 20 36  1  0  0  0  0
 20 37  1  0  0  0  0
 21 22  1  0  0  0  0
 21 24  1  0  0  0  0
 21 38  1  0  0  0  0
 22 23  1  0  0  0  0
 22 39  1  0  0  0  0
 22 40  1  0  0  0  0
 23 41  1  0  0  0  0
 23 42  1  0  0  0  0
 24 43  1  0  0  0  0
 24 44  1  0  0  0  0
M  END
> <ConfClashScore>
0 

> <ConfOneFourInteractionScore>
-0.984337 

> <ConfScore>
-0.114762 

> <ConfScorePBest>
0.00512597 

> <ConfTolerance>
0.273075 

$$$$
c13.sdf
 OpenBabel04162418043D

 44 47  0  0  0  0  0  0  0  0999 V2000
    2.1080   -0.3774   -1.8532 N   0  0  0  1  0  0  0  0  0  0  0  0
    2.5364    0.5907   -2.6455 C   0  0  0  1  0  0  0  0  0  0  0  0
    2.1526    0.6996   -3.8968 N   0  0  0  1  0  0  0  0  0  0  0  0
    1.2985   -0.1838   -4.4201 C   0  0  0  1  0  0  0  0  0  0  0  0
    0.8205   -1.2305   -3.6034 C   0  0  0  1  0  0  0  0  0  0  0  0
    1.2616   -1.2961   -2.2850 C   0  0  0  1  0  0  0  0  0  0  0  0
    0.7019   -0.3512   -5.6890 C   0  0  0  1  0  0  0  0  0  0  0  0
   -0.0689   -1.4009   -5.6537 N   0  0  0  1  0  0  0  0  0  0  0  0
   -0.0256   -1.9781   -4.3778 N   0  0  0  1  0  0  0  0  0  0  0  0
   -0.6691   -3.2210   -4.1236 C   0  0  0  1  0  0  0  0  0  0  0  0
   -1.8971   -3.4888   -4.6984 C   0  0  0  1  0  0  0  0  0  0  0  0
   -2.4823   -4.7345   -4.5337 C   0  0  0  1  0  0  0  0  0  0  0  0
   -1.8404   -5.7070   -3.7903 C   0  0  0  1  0  0  0  0  0  0  0  0
   -0.6087   -5.4382   -3.2140 C   0  0  0  1  0  0  0  0  0  0  0  0
   -0.0250   -4.1962   -3.3781 C   0  0  0  1  0  0  0  0  0  0  0  0
   -2.4548   -6.8885   -3.5444 O   0  0  0  1  0  0  0  0  0  0  0  0
   -1.7451   -7.8418   -2.7381 C   0  0  0  1  0  0  0  0  0  0  0  0
    3.3904    1.4685   -2.1111 N   0  0  0  1  0  0  0  0  0  0  0  0
    4.1470    2.5836   -2.6875 C   0  0  0  1  0  0  0  0  0  0  0  0
    4.6427    3.5607   -1.5681 C   0  0  0  1  0  0  0  0  0  0  0  0
    5.8697    4.2690   -2.2352 C   0  0  0  1  0  0  0  0  0  0  0  0
    6.4328    3.2702   -3.2853 C   0  0  0  1  0  0  0  0  0  0  0  0
    5.4525    2.0851   -3.3369 C   0  0  0  1  0  0  0  0  0  0  0  0
    5.4426    5.5150   -2.8946 N   0  0  0  1  0  0  0  0  0  0  0  0
    0.9317   -2.0528   -1.6523 H   0  0  0  1  0  0  0  0  0  0  0  0
    0.8529    0.2621   -6.5152 H   0  0  0  1  0  0  0  0  0  0  0  0
   -2.3819   -2.7558   -5.2544 H   0  0  0  1  0  0  0  0  0  0  0  0
   -3.4046   -4.9373   -4.9696 H   0  0  0  1  0  0  0  0  0  0  0  0
   -0.1238   -6.1713   -2.6580 H   0  0  0  1  0  0  0  0  0  0  0  0
    0.8972   -3.9932   -2.9423 H   0  0  0  1  0  0  0  0  0  0  0  0
   -2.3516   -8.7119   -2.5970 H   0  0  0  1  0  0  0  0  0  0  0  0
   -1.5196   -7.4064   -1.7871 H   0  0  0  1  0  0  0  0  0  0  0  0
   -0.8355   -8.1172   -3.2296 H   0  0  0  1  0  0  0  0  0  0  0  0
    3.5392    1.3428   -1.1508 H   0  0  0  1  0  0  0  0  0  0  0  0
    3.5376    3.0977   -3.4010 H   0  0  0  1  0  0  0  0  0  0  0  0
    3.8828    4.2690   -1.3122 H   0  0  0  1  0  0  0  0  0  0  0  0
    4.9392    3.0227   -0.6921 H   0  0  0  1  0  0  0  0  0  0  0  0
    6.6141    4.4912   -1.4993 H   0  0  0  1  0  0  0  0  0  0  0  0
    7.4041    2.9327   -2.9896 H   0  0  0  1  0  0  0  0  0  0  0  0
    6.4945    3.7397   -4.2447 H   0  0  0  1  0  0  0  0  0  0  0  0
    5.2751    1.7935   -4.3510 H   0  0  0  1  0  0  0  0  0  0  0  0
    5.8456    1.2537   -2.7898 H   0  0  0  1  0  0  0  0  0  0  0  0
    6.2035    5.9122   -3.3676 H   0  0  0  1  0  0  0  0  0  0  0  0
    5.1128    6.1448   -2.2200 H   0  0  0  1  0  0  0  0  0  0  0  0
  1  2  4  0  0  0  0
  1  6  4  0  0  0  0
  2  3  4  0  0  0  0
  2 18  1  0  0  0  0
  3  4  4  0  0  0  0
  4  5  4  0  0  0  0
  4  7  4  0  0  0  0
  5  6  4  0  0  0  0
  5  9  4  0  0  0  0
  6 25  1  0  0  0  0
  7  8  4  0  0  0  0
  7 26  1  0  0  0  0
  8  9  4  0  0  0  0
  9 10  1  0  0  0  0
 10 11  4  0  0  0  0
 10 15  4  0  0  0  0
 11 12  4  0  0  0  0
 11 27  1  0  0  0  0
 12 13  4  0  0  0  0
 12 28  1  0  0  0  0
 13 14  4  0  0  0  0
 13 16  1  0  0  0  0
 14 15  4  0  0  0  0
 14 29  1  0  0  0  0
 15 30  1  0  0  0  0
 16 17  1  0  0  0  0
 17 31  1  0  0  0  0
 17 32  1  0  0  0  0
 17 33  1  0  0  0  0
 18 19  1  0  0  0  0
 18 34  1  0  0  0  0
 19 20  1  0  0  0  0
 19 23  1  0  0  0  0
 19 35  1  0  0  0  0
 20 21  1  0  0  0  0
 20 36  1  0  0  0  0
 20 37  1  0  0  0  0
 21 22  1  0  0  0  0
 21 24  1  0  0  0  0
 21 38  1  0  0  0  0
 22 23  1  0  0  0  0
 22 39  1  0  0  0  0
 22 40  1  0  0  0  0
 23 41  1  0  0  0  0
 23 42  1  0  0  0  0
 24 43  1  0  0  0  0
 24 44  1  0  0  0  0
M  END
> <ConfClashScore>
0 

> <ConfOneFourInteractionScore>
-0.984337 

> <ConfScore>
-0.112904 

> <ConfScorePBest>
0.00511265 

> <ConfTolerance>
0.279176 

$$$$
c13.sdf
 OpenBabel04162418043D

 44 47  0  0  0  0  0  0  0  0999 V2000
    2.1079   -0.3775   -1.8533 N   0  0  0  1  0  0  0  0  0  0  0  0
    2.5363    0.5907   -2.6455 C   0  0  0  1  0  0  0  0  0  0  0  0
    2.1525    0.6995   -3.8968 N   0  0  0  1  0  0  0  0  0  0  0  0
    1.2985   -0.1838   -4.4201 C   0  0  0  1  0  0  0  0  0  0  0  0
    0.8204   -1.2304   -3.6033 C   0  0  0  1  0  0  0  0  0  0  0  0
    1.2615   -1.2961   -2.2850 C   0  0  0  1  0  0  0  0  0  0  0  0
    0.7019   -0.3512   -5.6890 C   0  0  0  1  0  0  0  0  0  0  0  0
   -0.0690   -1.4010   -5.6538 N   0  0  0  1  0  0  0  0  0  0  0  0
   -0.0256   -1.9781   -4.3778 N   0  0  0  1  0  0  0  0  0  0  0  0
   -0.7863   -3.1456   -4.0789 C   0  0  0  1  0  0  0  0  0  0  0  0
   -0.2481   -4.1362   -3.2794 C   0  0  0  1  0  0  0  0  0  0  0  0
   -0.9531   -5.3094   -3.0606 C   0  0  0  1  0  0  0  0  0  0  0  0
   -2.1918   -5.4909   -3.6464 C   0  0  0  1  0  0  0  0  0  0  0  0
   -2.7314   -4.4973   -4.4482 C   0  0  0  1  0  0  0  0  0  0  0  0
   -2.0285   -3.3275   -4.6664 C   0  0  0  1  0  0  0  0  0  0  0  0
   -2.7824   -6.6767   -3.3654 O   0  0  0  1  0  0  0  0  0  0  0  0
   -4.1154   -6.8794   -3.8601 C   0  0  0  1  0  0  0  0  0  0  0  0
    3.3977    1.4988   -2.1526 N   0  0  0  1  0  0  0  0  0  0  0  0
    3.9001    2.6490   -2.9154 C   0  0  0  1  0  0  0  0  0  0  0  0
    3.9719    3.8937   -2.0242 C   0  0  0  1  0  0  0  0  0  0  0  0
    5.3835    3.8745   -1.4376 C   0  0  0  1  0  0  0  0  0  0  0  0
    6.2196    3.4028   -2.6297 C   0  0  0  1  0  0  0  0  0  0  0  0
    5.3407    2.3981   -3.3785 C   0  0  0  1  0  0  0  0  0  0  0  0
    5.8018    5.2357   -0.9870 N   0  0  0  1  0  0  0  0  0  0  0  0
    0.9318   -2.0527   -1.6523 H   0  0  0  1  0  0  0  0  0  0  0  0
    0.8528    0.2621   -6.5152 H   0  0  0  1  0  0  0  0  0  0  0  0
    0.6857   -4.0013   -2.8418 H   0  0  0  1  0  0  0  0  0  0  0  0
   -0.5499   -6.0531   -2.4557 H   0  0  0  1  0  0  0  0  0  0  0  0
   -3.6652   -4.6321   -4.8858 H   0  0  0  1  0  0  0  0  0  0  0  0
   -2.4316   -2.5837   -5.2713 H   0  0  0  1  0  0  0  0  0  0  0  0
   -4.7350   -6.0591   -3.5635 H   0  0  0  1  0  0  0  0  0  0  0  0
   -4.5107   -7.7885   -3.4575 H   0  0  0  1  0  0  0  0  0  0  0  0
   -4.0934   -6.9415   -4.9281 H   0  0  0  1  0  0  0  0  0  0  0  0
    3.7084    1.3863   -1.2300 H   0  0  0  1  0  0  0  0  0  0  0  0
    3.2621    2.8264   -3.7558 H   0  0  0  1  0  0  0  0  0  0  0  0
    3.2398    3.8421   -1.2455 H   0  0  0  1  0  0  0  0  0  0  0  0
    3.8164    4.7804   -2.6024 H   0  0  0  1  0  0  0  0  0  0  0  0
    5.4544    3.1897   -0.6185 H   0  0  0  1  0  0  0  0  0  0  0  0
    7.1193    2.9325   -2.2918 H   0  0  0  1  0  0  0  0  0  0  0  0
    6.4649    4.2292   -3.2638 H   0  0  0  1  0  0  0  0  0  0  0  0
    5.4215    2.5517   -4.4344 H   0  0  0  1  0  0  0  0  0  0  0  0
    5.6369    1.3981   -3.1393 H   0  0  0  1  0  0  0  0  0  0  0  0
    5.8870    5.8259   -1.7648 H   0  0  0  1  0  0  0  0  0  0  0  0
    6.6646    5.1762   -0.5262 H   0  0  0  1  0  0  0  0  0  0  0  0
  1  2  4  0  0  0  0
  1  6  4  0  0  0  0
  2  3  4  0  0  0  0
  2 18  1  0  0  0  0
  3  4  4  0  0  0  0
  4  5  4  0  0  0  0
  4  7  4  0  0  0  0
  5  6  4  0  0  0  0
  5  9  4  0  0  0  0
  6 25  1  0  0  0  0
  7  8  4  0  0  0  0
  7 26  1  0  0  0  0
  8  9  4  0  0  0  0
  9 10  1  0  0  0  0
 10 11  4  0  0  0  0
 10 15  4  0  0  0  0
 11 12  4  0  0  0  0
 11 27  1  0  0  0  0
 12 13  4  0  0  0  0
 12 28  1  0  0  0  0
 13 14  4  0  0  0  0
 13 16  1  0  0  0  0
 14 15  4  0  0  0  0
 14 29  1  0  0  0  0
 15 30  1  0  0  0  0
 16 17  1  0  0  0  0
 17 31  1  0  0  0  0
 17 32  1  0  0  0  0
 17 33  1  0  0  0  0
 18 19  1  0  0  0  0
 18 34  1  0  0  0  0
 19 20  1  0  0  0  0
 19 23  1  0  0  0  0
 19 35  1  0  0  0  0
 20 21  1  0  0  0  0
 20 36  1  0  0  0  0
 20 37  1  0  0  0  0
 21 22  1  0  0  0  0
 21 24  1  0  0  0  0
 21 38  1  0  0  0  0
 22 23  1  0  0  0  0
 22 39  1  0  0  0  0
 22 40  1  0  0  0  0
 23 41  1  0  0  0  0
 23 42  1  0  0  0  0
 24 43  1  0  0  0  0
 24 44  1  0  0  0  0
M  END
> <ConfClashScore>
0 

> <ConfOneFourInteractionScore>
-0.984337 

> <ConfScore>
-0.112554 

> <ConfScorePBest>
0.00509932 

> <ConfTolerance>
0.245141 

$$$$
c13.sdf
 OpenBabel04162418043D

 44 47  0  0  0  0  0  0  0  0999 V2000
    2.1079   -0.3773   -1.8533 N   0  0  0  1  0  0  0  0  0  0  0  0
    2.5363    0.5907   -2.6455 C   0  0  0  1  0  0  0  0  0  0  0  0
    2.1525    0.6996   -3.8968 N   0  0  0  1  0  0  0  0  0  0  0  0
    1.2986   -0.1837   -4.4201 C   0  0  0  1  0  0  0  0  0  0  0  0
    0.8205   -1.2304   -3.6034 C   0  0  0  1  0  0  0  0  0  0  0  0
    1.2615   -1.2960   -2.2850 C   0  0  0  1  0  0  0  0  0  0  0  0
    0.7018   -0.3512   -5.6890 C   0  0  0  1  0  0  0  0  0  0  0  0
   -0.0689   -1.4010   -5.6538 N   0  0  0  1  0  0  0  0  0  0  0  0
   -0.0256   -1.9781   -4.3778 N   0  0  0  1  0  0  0  0  0  0  0  0
   -0.7805   -3.1369   -4.0812 C   0  0  0  1  0  0  0  0  0  0  0  0
   -1.5884   -3.1670   -2.9603 C   0  0  0  1  0  0  0  0  0  0  0  0
   -2.3323   -4.3007   -2.6725 C   0  0  0  1  0  0  0  0  0  0  0  0
   -2.2621   -5.4028   -3.5035 C   0  0  0  1  0  0  0  0  0  0  0  0
   -1.4517   -5.3725   -4.6278 C   0  0  0  1  0  0  0  0  0  0  0  0
   -0.7099   -4.2421   -4.9147 C   0  0  0  1  0  0  0  0  0  0  0  0
   -3.0277   -6.4516   -3.1187 O   0  0  0  1  0  0  0  0  0  0  0  0
   -2.8988   -7.6686   -3.8702 C   0  0  0  1  0  0  0  0  0  0  0  0
    3.3913    1.4695   -2.1106 N   0  0  0  1  0  0  0  0  0  0  0  0
    4.0843    2.5500   -2.8172 C   0  0  0  1  0  0  0  0  0  0  0  0
    3.4013    3.8967   -2.5782 C   0  0  0  1  0  0  0  0  0  0  0  0
    4.4829    4.9428   -2.8695 C   0  0  0  1  0  0  0  0  0  0  0  0
    5.8138    4.2493   -2.5518 C   0  0  0  1  0  0  0  0  0  0  0  0
    5.4790    2.7902   -2.2339 C   0  0  0  1  0  0  0  0  0  0  0  0
    4.4383    5.3518   -4.2911 N   0  0  0  1  0  0  0  0  0  0  0  0
    0.9318   -2.0527   -1.6523 H   0  0  0  1  0  0  0  0  0  0  0  0
    0.8528    0.2621   -6.5152 H   0  0  0  1  0  0  0  0  0  0  0  0
   -1.6382   -2.3391   -2.3327 H   0  0  0  1  0  0  0  0  0  0  0  0
   -2.9434   -4.3220   -1.8312 H   0  0  0  1  0  0  0  0  0  0  0  0
   -1.4019   -6.2003   -5.2553 H   0  0  0  1  0  0  0  0  0  0  0  0
   -0.0988   -4.2209   -5.7561 H   0  0  0  1  0  0  0  0  0  0  0  0
   -3.4438   -8.4493   -3.3819 H   0  0  0  1  0  0  0  0  0  0  0  0
   -1.8660   -7.9408   -3.9335 H   0  0  0  1  0  0  0  0  0  0  0  0
   -3.2907   -7.5226   -4.8551 H   0  0  0  1  0  0  0  0  0  0  0  0
    3.5720    1.3821   -1.1514 H   0  0  0  1  0  0  0  0  0  0  0  0
    4.1343    2.3199   -3.8609 H   0  0  0  1  0  0  0  0  0  0  0  0
    3.0656    3.9742   -1.5652 H   0  0  0  1  0  0  0  0  0  0  0  0
    2.5699    4.0201   -3.2404 H   0  0  0  1  0  0  0  0  0  0  0  0
    4.3503    5.8022   -2.2462 H   0  0  0  1  0  0  0  0  0  0  0  0
    6.2800    4.7136   -1.7080 H   0  0  0  1  0  0  0  0  0  0  0  0
    6.4689    4.3027   -3.3961 H   0  0  0  1  0  0  0  0  0  0  0  0
    6.1920    2.1357   -2.6903 H   0  0  0  1  0  0  0  0  0  0  0  0
    5.4736    2.6304   -1.1760 H   0  0  0  1  0  0  0  0  0  0  0  0
    4.5676    4.5657   -4.8619 H   0  0  0  1  0  0  0  0  0  0  0  0
    5.1499    6.0027   -4.4659 H   0  0  0  1  0  0  0  0  0  0  0  0
  1  2  4  0  0  0  0
  1  6  4  0  0  0  0
  2  3  4  0  0  0  0
  2 18  1  0  0  0  0
  3  4  4  0  0  0  0
  4  5  4  0  0  0  0
  4  7  4  0  0  0  0
  5  6  4  0  0  0  0
  5  9  4  0  0  0  0
  6 25  1  0  0  0  0
  7  8  4  0  0  0  0
  7 26  1  0  0  0  0
  8  9  4  0  0  0  0
  9 10  1  0  0  0  0
 10 11  4  0  0  0  0
 10 15  4  0  0  0  0
 11 12  4  0  0  0  0
 11 27  1  0  0  0  0
 12 13  4  0  0  0  0
 12 28  1  0  0  0  0
 13 14  4  0  0  0  0
 13 16  1  0  0  0  0
 14 15  4  0  0  0  0
 14 29  1  0  0  0  0
 15 30  1  0  0  0  0
 16 17  1  0  0  0  0
 17 31  1  0  0  0  0
 17 32  1  0  0  0  0
 17 33  1  0  0  0  0
 18 19  1  0  0  0  0
 18 34  1  0  0  0  0
 19 20  1  0  0  0  0
 19 23  1  0  0  0  0
 19 35  1  0  0  0  0
 20 21  1  0  0  0  0
 20 36  1  0  0  0  0
 20 37  1  0  0  0  0
 21 22  1  0  0  0  0
 21 24  1  0  0  0  0
 21 38  1  0  0  0  0
 22 23  1  0  0  0  0
 22 39  1  0  0  0  0
 22 40  1  0  0  0  0
 23 41  1  0  0  0  0
 23 42  1  0  0  0  0
 24 43  1  0  0  0  0
 24 44  1  0  0  0  0
M  END
> <ConfClashScore>
0 

> <ConfOneFourInteractionScore>
-0.984337 

> <ConfScore>
-0.112076 

> <ConfScorePBest>
0.00508599 

> <ConfTolerance>
0.227302 

$$$$
c13.sdf
 OpenBabel04162418043D

 44 47  0  0  0  0  0  0  0  0999 V2000
    2.1080   -0.3774   -1.8532 N   0  0  0  1  0  0  0  0  0  0  0  0
    2.5363    0.5907   -2.6455 C   0  0  0  1  0  0  0  0  0  0  0  0
    2.1525    0.6997   -3.8967 N   0  0  0  1  0  0  0  0  0  0  0  0
    1.2985   -0.1838   -4.4201 C   0  0  0  1  0  0  0  0  0  0  0  0
    0.8205   -1.2305   -3.6033 C   0  0  0  1  0  0  0  0  0  0  0  0
    1.2615   -1.2961   -2.2849 C   0  0  0  1  0  0  0  0  0  0  0  0
    0.7019   -0.3512   -5.6890 C   0  0  0  1  0  0  0  0  0  0  0  0
   -0.0689   -1.4010   -5.6537 N   0  0  0  1  0  0  0  0  0  0  0  0
   -0.0256   -1.9781   -4.3778 N   0  0  0  1  0  0  0  0  0  0  0  0
   -0.7643   -3.1411   -4.0293 C   0  0  0  1  0  0  0  0  0  0  0  0
   -1.6733   -3.0963   -2.9892 C   0  0  0  1  0  0  0  0  0  0  0  0
   -2.3977   -4.2292   -2.6527 C   0  0  0  1  0  0  0  0  0  0  0  0
   -2.2073   -5.4050   -3.3538 C   0  0  0  1  0  0  0  0  0  0  0  0
   -1.2955   -5.4498   -4.3970 C   0  0  0  1  0  0  0  0  0  0  0  0
   -0.5730   -4.3202   -4.7326 C   0  0  0  1  0  0  0  0  0  0  0  0
   -2.8508   -6.5721   -3.1139 O   0  0  0  1  0  0  0  0  0  0  0  0
   -3.7750   -6.5994   -2.0086 C   0  0  0  1  0  0  0  0  0  0  0  0
    3.4008    1.5022   -2.1508 N   0  0  0  1  0  0  0  0  0  0  0  0
    3.9605    2.5934   -2.9293 C   0  0  0  1  0  0  0  0  0  0  0  0
    4.3850    3.7372   -2.0230 C   0  0  0  1  0  0  0  0  0  0  0  0
    5.3972    4.4802   -2.9017 C   0  0  0  1  0  0  0  0  0  0  0  0
    6.1897    3.3701   -3.5977 C   0  0  0  1  0  0  0  0  0  0  0  0
    5.2534    2.1546   -3.6249 C   0  0  0  1  0  0  0  0  0  0  0  0
    4.6957    5.3375   -3.9060 N   0  0  0  1  0  0  0  0  0  0  0  0
    0.9318   -2.0527   -1.6522 H   0  0  0  1  0  0  0  0  0  0  0  0
    0.8528    0.2621   -6.5152 H   0  0  0  1  0  0  0  0  0  0  0  0
   -1.8139   -2.2126   -2.4589 H   0  0  0  1  0  0  0  0  0  0  0  0
   -3.0847   -4.1944   -1.8727 H   0  0  0  1  0  0  0  0  0  0  0  0
   -1.1549   -6.3334   -4.9271 H   0  0  0  1  0  0  0  0  0  0  0  0
    0.1139   -4.3550   -5.5126 H   0  0  0  1  0  0  0  0  0  0  0  0
   -3.2992   -6.2044   -1.1354 H   0  0  0  1  0  0  0  0  0  0  0  0
   -4.0792   -7.6083   -1.8232 H   0  0  0  1  0  0  0  0  0  0  0  0
   -4.6327   -6.0056   -2.2466 H   0  0  0  1  0  0  0  0  0  0  0  0
    3.6665    1.4231   -1.2107 H   0  0  0  1  0  0  0  0  0  0  0  0
    3.2397    2.9268   -3.6465 H   0  0  0  1  0  0  0  0  0  0  0  0
    4.8416    3.3738   -1.1262 H   0  0  0  1  0  0  0  0  0  0  0  0
    3.5543    4.3634   -1.7724 H   0  0  0  1  0  0  0  0  0  0  0  0
    6.0434    5.0874   -2.3029 H   0  0  0  1  0  0  0  0  0  0  0  0
    7.0795    3.1447   -3.0478 H   0  0  0  1  0  0  0  0  0  0  0  0
    6.4500    3.6642   -4.5931 H   0  0  0  1  0  0  0  0  0  0  0  0
    5.6963    1.3339   -3.1003 H   0  0  0  1  0  0  0  0  0  0  0  0
    5.0510    1.8653   -4.6350 H   0  0  0  1  0  0  0  0  0  0  0  0
    4.0243    4.8036   -4.3799 H   0  0  0  1  0  0  0  0  0  0  0  0
    5.3476    5.6874   -4.5486 H   0  0  0  1  0  0  0  0  0  0  0  0
  1  2  4  0  0  0  0
  1  6  4  0  0  0  0
  2  3  4  0  0  0  0
  2 18  1  0  0  0  0
  3  4  4  0  0  0  0
  4  5  4  0  0  0  0
  4  7  4  0  0  0  0
  5  6  4  0  0  0  0
  5  9  4  0  0  0  0
  6 25  1  0  0  0  0
  7  8  4  0  0  0  0
  7 26  1  0  0  0  0
  8  9  4  0  0  0  0
  9 10  1  0  0  0  0
 10 11  4  0  0  0  0
 10 15  4  0  0  0  0
 11 12  4  0  0  0  0
 11 27  1  0  0  0  0
 12 13  4  0  0  0  0
 12 28  1  0  0  0  0
 13 14  4  0  0  0  0
 13 16  1  0  0  0  0
 14 15  4  0  0  0  0
 14 29  1  0  0  0  0
 15 30  1  0  0  0  0
 16 17  1  0  0  0  0
 17 31  1  0  0  0  0
 17 32  1  0  0  0  0
 17 33  1  0  0  0  0
 18 19  1  0  0  0  0
 18 34  1  0  0  0  0
 19 20  1  0  0  0  0
 19 23  1  0  0  0  0
 19 35  1  0  0  0  0
 20 21  1  0  0  0  0
 20 36  1  0  0  0  0
 20 37  1  0  0  0  0
 21 22  1  0  0  0  0
 21 24  1  0  0  0  0
 21 38  1  0  0  0  0
 22 23  1  0  0  0  0
 22 39  1  0  0  0  0
 22 40  1  0  0  0  0
 23 41  1  0  0  0  0
 23 42  1  0  0  0  0
 24 43  1  0  0  0  0
 24 44  1  0  0  0  0
M  END
> <ConfClashScore>
0 

> <ConfOneFourInteractionScore>
-0.984337 

> <ConfScore>
-0.111618 

> <ConfScorePBest>
0.00507266 

> <ConfTolerance>
0.231394 

$$$$
c13.sdf
 OpenBabel04162418043D

 44 47  0  0  0  0  0  0  0  0999 V2000
    2.1080   -0.3774   -1.8532 N   0  0  0  1  0  0  0  0  0  0  0  0
    2.5364    0.5907   -2.6455 C   0  0  0  1  0  0  0  0  0  0  0  0
    2.1525    0.6996   -3.8968 N   0  0  0  1  0  0  0  0  0  0  0  0
    1.2985   -0.1838   -4.4201 C   0  0  0  1  0  0  0  0  0  0  0  0
    0.8205   -1.2304   -3.6033 C   0  0  0  1  0  0  0  0  0  0  0  0
    1.2616   -1.2960   -2.2849 C   0  0  0  1  0  0  0  0  0  0  0  0
    0.7020   -0.3512   -5.6890 C   0  0  0  1  0  0  0  0  0  0  0  0
   -0.0689   -1.4010   -5.6538 N   0  0  0  1  0  0  0  0  0  0  0  0
   -0.0256   -1.9781   -4.3778 N   0  0  0  1  0  0  0  0  0  0  0  0
   -0.7072   -3.1837   -4.1156 C   0  0  0  1  0  0  0  0  0  0  0  0
   -0.2669   -4.3223   -4.7636 C   0  0  0  1  0  0  0  0  0  0  0  0
   -0.8979   -5.5357   -4.5380 C   0  0  0  1  0  0  0  0  0  0  0  0
   -1.9707   -5.6061   -3.6694 C   0  0  0  1  0  0  0  0  0  0  0  0
   -2.4121   -4.4639   -3.0196 C   0  0  0  1  0  0  0  0  0  0  0  0
   -1.7831   -3.2540   -3.2444 C   0  0  0  1  0  0  0  0  0  0  0  0
   -2.5903   -6.7906   -3.4531 O   0  0  0  1  0  0  0  0  0  0  0  0
   -3.7369   -6.7831   -2.5883 C   0  0  0  1  0  0  0  0  0  0  0  0
    3.3977    1.4989   -2.1525 N   0  0  0  1  0  0  0  0  0  0  0  0
    4.0750    2.5540   -2.9078 C   0  0  0  1  0  0  0  0  0  0  0  0
    4.2419    3.8285   -2.0194 C   0  0  0  1  0  0  0  0  0  0  0  0
    5.6375    3.5520   -1.3448 C   0  0  0  1  0  0  0  0  0  0  0  0
    6.4423    2.9704   -2.4991 C   0  0  0  1  0  0  0  0  0  0  0  0
    5.4828    2.1002   -3.2995 C   0  0  0  1  0  0  0  0  0  0  0  0
    6.2487    4.8053   -0.8412 N   0  0  0  1  0  0  0  0  0  0  0  0
    0.9319   -2.0527   -1.6522 H   0  0  0  1  0  0  0  0  0  0  0  0
    0.8528    0.2621   -6.5151 H   0  0  0  1  0  0  0  0  0  0  0  0
    0.5378   -4.2686   -5.4203 H   0  0  0  1  0  0  0  0  0  0  0  0
   -0.5640   -6.3933   -5.0225 H   0  0  0  1  0  0  0  0  0  0  0  0
   -3.2168   -4.5176   -2.3628 H   0  0  0  1  0  0  0  0  0  0  0  0
   -2.1169   -2.3964   -2.7599 H   0  0  0  1  0  0  0  0  0  0  0  0
   -3.9726   -7.7859   -2.2989 H   0  0  0  1  0  0  0  0  0  0  0  0
   -4.5706   -6.3561   -3.1056 H   0  0  0  1  0  0  0  0  0  0  0  0
   -3.5217   -6.2017   -1.7163 H   0  0  0  1  0  0  0  0  0  0  0  0
    3.5908    1.4491   -1.1931 H   0  0  0  1  0  0  0  0  0  0  0  0
    3.5064    2.7876   -3.7836 H   0  0  0  1  0  0  0  0  0  0  0  0
    4.2628    4.7192   -2.6120 H   0  0  0  1  0  0  0  0  0  0  0  0
    3.4623    3.9027   -1.2904 H   0  0  0  1  0  0  0  0  0  0  0  0
    5.5481    2.8505   -0.5419 H   0  0  0  1  0  0  0  0  0  0  0  0
    6.8283    3.7567   -3.1137 H   0  0  0  1  0  0  0  0  0  0  0  0
    7.2519    2.3797   -2.1245 H   0  0  0  1  0  0  0  0  0  0  0  0
    5.6229    1.0686   -3.0528 H   0  0  0  1  0  0  0  0  0  0  0  0
    5.6403    2.2411   -4.3484 H   0  0  0  1  0  0  0  0  0  0  0  0
    6.3821    5.4269   -1.5870 H   0  0  0  1  0  0  0  0  0  0  0  0
    7.1132    4.6030   -0.4261 H   0  0  0  1  0  0  0  0  0  0  0  0
  1  2  4  0  0  0  0
  1  6  4  0  0  0  0
  2  3  4  0  0  0  0
  2 18  1  0  0  0  0
  3  4  4  0  0  0  0
  4  5  4  0  0  0  0
  4  7  4  0  0  0  0
  5  6  4  0  0  0  0
  5  9  4  0  0  0  0
  6 25  1  0  0  0  0
  7  8  4  0  0  0  0
  7 26  1  0  0  0  0
  8  9  4  0  0  0  0
  9 10  1  0  0  0  0
 10 11  4  0  0  0  0
 10 15  4  0  0  0  0
 11 12  4  0  0  0  0
 11 27  1  0  0  0  0
 12 13  4  0  0  0  0
 12 28  1  0  0  0  0
 13 14  4  0  0  0  0
 13 16  1  0  0  0  0
 14 15  4  0  0  0  0
 14 29  1  0  0  0  0
 15 30  1  0  0  0  0
 16 17  1  0  0  0  0
 17 31  1  0  0  0  0
 17 32  1  0  0  0  0
 17 33  1  0  0  0  0
 18 19  1  0  0  0  0
 18 34  1  0  0  0  0
 19 20  1  0  0  0  0
 19 23  1  0  0  0  0
 19 35  1  0  0  0  0
 20 21  1  0  0  0  0
 20 36  1  0  0  0  0
 20 37  1  0  0  0  0
 21 22  1  0  0  0  0
 21 24  1  0  0  0  0
 21 38  1  0  0  0  0
 22 23  1  0  0  0  0
 22 39  1  0  0  0  0
 22 40  1  0  0  0  0
 23 41  1  0  0  0  0
 23 42  1  0  0  0  0
 24 43  1  0  0  0  0
 24 44  1  0  0  0  0
M  END
> <ConfClashScore>
0 

> <ConfOneFourInteractionScore>
-0.984337 

> <ConfScore>
-0.111618 

> <ConfScorePBest>
0.00505933 

> <ConfTolerance>
0.282504 

$$$$
c13.sdf
 OpenBabel04162418043D

 44 47  0  0  0  0  0  0  0  0999 V2000
    2.1079   -0.3773   -1.8532 N   0  0  0  1  0  0  0  0  0  0  0  0
    2.5363    0.5907   -2.6455 C   0  0  0  1  0  0  0  0  0  0  0  0
    2.1525    0.6996   -3.8968 N   0  0  0  1  0  0  0  0  0  0  0  0
    1.2985   -0.1838   -4.4201 C   0  0  0  1  0  0  0  0  0  0  0  0
    0.8205   -1.2305   -3.6033 C   0  0  0  1  0  0  0  0  0  0  0  0
    1.2615   -1.2960   -2.2849 C   0  0  0  1  0  0  0  0  0  0  0  0
    0.7020   -0.3513   -5.6890 C   0  0  0  1  0  0  0  0  0  0  0  0
   -0.0688   -1.4011   -5.6538 N   0  0  0  1  0  0  0  0  0  0  0  0
   -0.0256   -1.9780   -4.3778 N   0  0  0  1  0  0  0  0  0  0  0  0
   -0.7856   -3.1447   -4.0791 C   0  0  0  1  0  0  0  0  0  0  0  0
   -1.6657   -3.1420   -3.0135 C   0  0  0  1  0  0  0  0  0  0  0  0
   -2.4095   -4.2758   -2.7261 C   0  0  0  1  0  0  0  0  0  0  0  0
   -2.2672   -5.4109   -3.5017 C   0  0  0  1  0  0  0  0  0  0  0  0
   -1.3844   -5.4135   -4.5706 C   0  0  0  1  0  0  0  0  0  0  0  0
   -0.6428   -4.2830   -4.8572 C   0  0  0  1  0  0  0  0  0  0  0  0
   -2.9335   -6.5749   -3.3151 O   0  0  0  1  0  0  0  0  0  0  0  0
   -4.0149   -6.5678   -2.3700 C   0  0  0  1  0  0  0  0  0  0  0  0
    3.3976    1.4989   -2.1526 N   0  0  0  1  0  0  0  0  0  0  0  0
    3.9391    2.6879   -2.7984 C   0  0  0  1  0  0  0  0  0  0  0  0
    4.3094    3.7461   -1.7515 C   0  0  0  1  0  0  0  0  0  0  0  0
    5.7773    4.1041   -1.9952 C   0  0  0  1  0  0  0  0  0  0  0  0
    6.0870    3.6312   -3.4176 C   0  0  0  1  0  0  0  0  0  0  0  0
    5.2498    2.3563   -3.5204 C   0  0  0  1  0  0  0  0  0  0  0  0
    5.9797    5.5812   -1.8811 N   0  0  0  1  0  0  0  0  0  0  0  0
    0.9317   -2.0527   -1.6522 H   0  0  0  1  0  0  0  0  0  0  0  0
    0.8530    0.2620   -6.5152 H   0  0  0  1  0  0  0  0  0  0  0  0
   -1.7700   -2.2892   -2.4273 H   0  0  0  1  0  0  0  0  0  0  0  0
   -3.0748   -4.2724   -1.9267 H   0  0  0  1  0  0  0  0  0  0  0  0
   -1.2801   -6.2663   -5.1568 H   0  0  0  1  0  0  0  0  0  0  0  0
    0.0225   -4.2864   -5.6566 H   0  0  0  1  0  0  0  0  0  0  0  0
   -4.4915   -7.5256   -2.3654 H   0  0  0  1  0  0  0  0  0  0  0  0
   -4.7254   -5.8173   -2.6473 H   0  0  0  1  0  0  0  0  0  0  0  0
   -3.6333   -6.3548   -1.3933 H   0  0  0  1  0  0  0  0  0  0  0  0
    3.7022    1.3395   -1.2348 H   0  0  0  1  0  0  0  0  0  0  0  0
    3.2202    3.0786   -3.4879 H   0  0  0  1  0  0  0  0  0  0  0  0
    4.1845    3.3498   -0.7655 H   0  0  0  1  0  0  0  0  0  0  0  0
    3.6934    4.6130   -1.8687 H   0  0  0  1  0  0  0  0  0  0  0  0
    6.4059    3.6019   -1.2898 H   0  0  0  1  0  0  0  0  0  0  0  0
    7.1293    3.4221   -3.5389 H   0  0  0  1  0  0  0  0  0  0  0  0
    5.7813    4.3560   -4.1429 H   0  0  0  1  0  0  0  0  0  0  0  0
    5.7474    1.5392   -3.0413 H   0  0  0  1  0  0  0  0  0  0  0  0
    5.0634    2.1097   -4.5449 H   0  0  0  1  0  0  0  0  0  0  0  0
    5.3780    6.0428   -2.5018 H   0  0  0  1  0  0  0  0  0  0  0  0
    6.9086    5.8015   -2.1023 H   0  0  0  1  0  0  0  0  0  0  0  0
  1  2  4  0  0  0  0
  1  6  4  0  0  0  0
  2  3  4  0  0  0  0
  2 18  1  0  0  0  0
  3  4  4  0  0  0  0
  4  5  4  0  0  0  0
  4  7  4  0  0  0  0
  5  6  4  0  0  0  0
  5  9  4  0  0  0  0
  6 25  1  0  0  0  0
  7  8  4  0  0  0  0
  7 26  1  0  0  0  0
  8  9  4  0  0  0  0
  9 10  1  0  0  0  0
 10 11  4  0  0  0  0
 10 15  4  0  0  0  0
 11 12  4  0  0  0  0
 11 27  1  0  0  0  0
 12 13  4  0  0  0  0
 12 28  1  0  0  0  0
 13 14  4  0  0  0  0
 13 16  1  0  0  0  0
 14 15  4  0  0  0  0
 14 29  1  0  0  0  0
 15 30  1  0  0  0  0
 16 17  1  0  0  0  0
 17 31  1  0  0  0  0
 17 32  1  0  0  0  0
 17 33  1  0  0  0  0
 18 19  1  0  0  0  0
 18 34  1  0  0  0  0
 19 20  1  0  0  0  0
 19 23  1  0  0  0  0
 19 35  1  0  0  0  0
 20 21  1  0  0  0  0
 20 36  1  0  0  0  0
 20 37  1  0  0  0  0
 21 22  1  0  0  0  0
 21 24  1  0  0  0  0
 21 38  1  0  0  0  0
 22 23  1  0  0  0  0
 22 39  1  0  0  0  0
 22 40  1  0  0  0  0
 23 41  1  0  0  0  0
 23 42  1  0  0  0  0
 24 43  1  0  0  0  0
 24 44  1  0  0  0  0
M  END
> <ConfClashScore>
0 

> <ConfOneFourInteractionScore>
-0.984337 

> <ConfScore>
-0.111618 

> <ConfScorePBest>
0.005046 

> <ConfTolerance>
0.290922 

$$$$
c13.sdf
 OpenBabel04162418043D

 44 47  0  0  0  0  0  0  0  0999 V2000
    2.1079   -0.3773   -1.8532 N   0  0  0  1  0  0  0  0  0  0  0  0
    2.5364    0.5907   -2.6454 C   0  0  0  1  0  0  0  0  0  0  0  0
    2.1525    0.6996   -3.8968 N   0  0  0  1  0  0  0  0  0  0  0  0
    1.2985   -0.1838   -4.4201 C   0  0  0  1  0  0  0  0  0  0  0  0
    0.8204   -1.2305   -3.6033 C   0  0  0  1  0  0  0  0  0  0  0  0
    1.2615   -1.2960   -2.2849 C   0  0  0  1  0  0  0  0  0  0  0  0
    0.7019   -0.3513   -5.6889 C   0  0  0  1  0  0  0  0  0  0  0  0
   -0.0689   -1.4011   -5.6538 N   0  0  0  1  0  0  0  0  0  0  0  0
   -0.0256   -1.9781   -4.3778 N   0  0  0  1  0  0  0  0  0  0  0  0
   -0.8580   -3.0732   -4.0701 C   0  0  0  1  0  0  0  0  0  0  0  0
   -0.5074   -4.0302   -3.1367 C   0  0  0  1  0  0  0  0  0  0  0  0
   -1.3666   -5.0844   -2.8687 C   0  0  0  1  0  0  0  0  0  0  0  0
   -2.5716   -5.1815   -3.5388 C   0  0  0  1  0  0  0  0  0  0  0  0
   -2.9231   -4.2215   -4.4751 C   0  0  0  1  0  0  0  0  0  0  0  0
   -2.0664   -3.1704   -4.7423 C   0  0  0  1  0  0  0  0  0  0  0  0
   -3.4087   -6.2143   -3.2808 O   0  0  0  1  0  0  0  0  0  0  0  0
   -2.8999   -7.2842   -2.4691 C   0  0  0  1  0  0  0  0  0  0  0  0
    3.3976    1.4989   -2.1525 N   0  0  0  1  0  0  0  0  0  0  0  0
    4.0354    2.5286   -2.9544 C   0  0  0  1  0  0  0  0  0  0  0  0
    3.0957    3.7116   -3.1875 C   0  0  0  1  0  0  0  0  0  0  0  0
    4.0203    4.8878   -3.5203 C   0  0  0  1  0  0  0  0  0  0  0  0
    5.3390    4.5840   -2.7980 C   0  0  0  1  0  0  0  0  0  0  0  0
    5.1938    3.1835   -2.1982 C   0  0  0  1  0  0  0  0  0  0  0  0
    4.2407    4.9785   -4.9948 N   0  0  0  1  0  0  0  0  0  0  0  0
    0.9318   -2.0527   -1.6522 H   0  0  0  1  0  0  0  0  0  0  0  0
    0.8529    0.2621   -6.5151 H   0  0  0  1  0  0  0  0  0  0  0  0
    0.4010   -3.9594   -2.6353 H   0  0  0  1  0  0  0  0  0  0  0  0
   -1.1046   -5.8024   -2.1634 H   0  0  0  1  0  0  0  0  0  0  0  0
   -3.8315   -4.2923   -4.9765 H   0  0  0  1  0  0  0  0  0  0  0  0
   -2.3284   -2.4524   -5.4476 H   0  0  0  1  0  0  0  0  0  0  0  0
   -2.8093   -6.9521   -1.4560 H   0  0  0  1  0  0  0  0  0  0  0  0
   -1.9392   -7.5823   -2.8338 H   0  0  0  1  0  0  0  0  0  0  0  0
   -3.5723   -8.1154   -2.5129 H   0  0  0  1  0  0  0  0  0  0  0  0
    3.6073    1.4638   -1.1959 H   0  0  0  1  0  0  0  0  0  0  0  0
    4.3656    2.1067   -3.8806 H   0  0  0  1  0  0  0  0  0  0  0  0
    2.5251    3.9187   -2.3063 H   0  0  0  1  0  0  0  0  0  0  0  0
    2.4329    3.5111   -4.0032 H   0  0  0  1  0  0  0  0  0  0  0  0
    3.6012    5.8058   -3.1647 H   0  0  0  1  0  0  0  0  0  0  0  0
    6.1537    4.6065   -3.4913 H   0  0  0  1  0  0  0  0  0  0  0  0
    5.5096    5.3019   -2.0231 H   0  0  0  1  0  0  0  0  0  0  0  0
    6.0945    2.6229   -2.3371 H   0  0  0  1  0  0  0  0  0  0  0  0
    4.9697    3.2462   -1.1538 H   0  0  0  1  0  0  0  0  0  0  0  0
    3.3754    5.0081   -5.4537 H   0  0  0  1  0  0  0  0  0  0  0  0
    4.7446    4.1947   -5.2983 H   0  0  0  1  0  0  0  0  0  0  0  0
  1  2  4  0  0  0  0
  1  6  4  0  0  0  0
  2  3  4  0  0  0  0
  2 18  1  0  0  0  0
  3  4  4  0  0  0  0
  4  5  4  0  0  0  0
  4  7  4  0  0  0  0
  5  6  4  0  0  0  0
  5  9  4  0  0  0  0
  6 25  1  0  0  0  0
  7  8  4  0  0  0  0
  7 26  1  0  0  0  0
  8  9  4  0  0  0  0
  9 10  1  0  0  0  0
 10 11  4  0  0  0  0
 10 15  4  0  0  0  0
 11 12  4  0  0  0  0
 11 27  1  0  0  0  0
 12 13  4  0  0  0  0
 12 28  1  0  0  0  0
 13 14  4  0  0  0  0
 13 16  1  0  0  0  0
 14 15  4  0  0  0  0
 14 29  1  0  0  0  0
 15 30  1  0  0  0  0
 16 17  1  0  0  0  0
 17 31  1  0  0  0  0
 17 32  1  0  0  0  0
 17 33  1  0  0  0  0
 18 19  1  0  0  0  0
 18 34  1  0  0  0  0
 19 20  1  0  0  0  0
 19 23  1  0  0  0  0
 19 35  1  0  0  0  0
 20 21  1  0  0  0  0
 20 36  1  0  0  0  0
 20 37  1  0  0  0  0
 21 22  1  0  0  0  0
 21 24  1  0  0  0  0
 21 38  1  0  0  0  0
 22 23  1  0  0  0  0
 22 39  1  0  0  0  0
 22 40  1  0  0  0  0
 23 41  1  0  0  0  0
 23 42  1  0  0  0  0
 24 43  1  0  0  0  0
 24 44  1  0  0  0  0
M  END
> <ConfClashScore>
0 

> <ConfOneFourInteractionScore>
-0.984337 

> <ConfScore>
-0.111001 

> <ConfScorePBest>
0.00503268 

> <ConfTolerance>
0.224708 

$$$$
c13.sdf
 OpenBabel04162418043D

 44 47  0  0  0  0  0  0  0  0999 V2000
    2.1079   -0.3774   -1.8532 N   0  0  0  1  0  0  0  0  0  0  0  0
    2.5363    0.5907   -2.6455 C   0  0  0  1  0  0  0  0  0  0  0  0
    2.1526    0.6996   -3.8968 N   0  0  0  1  0  0  0  0  0  0  0  0
    1.2986   -0.1837   -4.4201 C   0  0  0  1  0  0  0  0  0  0  0  0
    0.8204   -1.2304   -3.6034 C   0  0  0  1  0  0  0  0  0  0  0  0
    1.2615   -1.2960   -2.2850 C   0  0  0  1  0  0  0  0  0  0  0  0
    0.7019   -0.3513   -5.6890 C   0  0  0  1  0  0  0  0  0  0  0  0
   -0.0689   -1.4010   -5.6538 N   0  0  0  1  0  0  0  0  0  0  0  0
   -0.0256   -1.9781   -4.3778 N   0  0  0  1  0  0  0  0  0  0  0  0
   -0.7096   -3.1879   -4.1147 C   0  0  0  1  0  0  0  0  0  0  0  0
   -0.2734   -4.0224   -3.1031 C   0  0  0  1  0  0  0  0  0  0  0  0
   -0.9470   -5.2054   -2.8418 C   0  0  0  1  0  0  0  0  0  0  0  0
   -2.0516   -5.5530   -3.5963 C   0  0  0  1  0  0  0  0  0  0  0  0
   -2.4890   -4.7159   -4.6109 C   0  0  0  1  0  0  0  0  0  0  0  0
   -1.8175   -3.5363   -4.8716 C   0  0  0  1  0  0  0  0  0  0  0  0
   -2.7841   -6.6809   -3.4376 O   0  0  0  1  0  0  0  0  0  0  0  0
   -2.4889   -7.4999   -2.2954 C   0  0  0  1  0  0  0  0  0  0  0  0
    3.3977    1.4988   -2.1526 N   0  0  0  1  0  0  0  0  0  0  0  0
    4.0492    2.5172   -2.9577 C   0  0  0  1  0  0  0  0  0  0  0  0
    3.2671    3.8266   -2.8960 C   0  0  0  1  0  0  0  0  0  0  0  0
    4.3305    4.8708   -3.2863 C   0  0  0  1  0  0  0  0  0  0  0  0
    5.6682    4.2801   -2.8694 C   0  0  0  1  0  0  0  0  0  0  0  0
    5.4238    2.8374   -2.3971 C   0  0  0  1  0  0  0  0  0  0  0  0
    4.3055    5.1135   -4.7752 N   0  0  0  1  0  0  0  0  0  0  0  0
    0.9317   -2.0527   -1.6522 H   0  0  0  1  0  0  0  0  0  0  0  0
    0.8530    0.2620   -6.5152 H   0  0  0  1  0  0  0  0  0  0  0  0
    0.5602   -3.7628   -2.5379 H   0  0  0  1  0  0  0  0  0  0  0  0
   -0.6211   -5.8314   -2.0778 H   0  0  0  1  0  0  0  0  0  0  0  0
   -3.3226   -4.9754   -5.1761 H   0  0  0  1  0  0  0  0  0  0  0  0
   -2.1433   -2.9103   -5.6355 H   0  0  0  1  0  0  0  0  0  0  0  0
   -1.4508   -7.7588   -2.3003 H   0  0  0  1  0  0  0  0  0  0  0  0
   -3.0790   -8.3916   -2.3341 H   0  0  0  1  0  0  0  0  0  0  0  0
   -2.7171   -6.9591   -1.4007 H   0  0  0  1  0  0  0  0  0  0  0  0
    3.5974    1.4717   -1.1936 H   0  0  0  1  0  0  0  0  0  0  0  0
    4.1283    2.1766   -3.9690 H   0  0  0  1  0  0  0  0  0  0  0  0
    2.8927    4.0066   -1.9100 H   0  0  0  1  0  0  0  0  0  0  0  0
    2.4544    3.8241   -3.5918 H   0  0  0  1  0  0  0  0  0  0  0  0
    4.1539    5.7920   -2.7713 H   0  0  0  1  0  0  0  0  0  0  0  0
    6.3405    4.2805   -3.7019 H   0  0  0  1  0  0  0  0  0  0  0  0
    6.0870    4.8571   -2.0717 H   0  0  0  1  0  0  0  0  0  0  0  0
    6.1637    2.1736   -2.7931 H   0  0  0  1  0  0  0  0  0  0  0  0
    5.4257    2.7780   -1.3288 H   0  0  0  1  0  0  0  0  0  0  0  0
    3.4022    5.3775   -5.0486 H   0  0  0  1  0  0  0  0  0  0  0  0
    4.5615    4.2920   -5.2443 H   0  0  0  1  0  0  0  0  0  0  0  0
  1  2  4  0  0  0  0
  1  6  4  0  0  0  0
  2  3  4  0  0  0  0
  2 18  1  0  0  0  0
  3  4  4  0  0  0  0
  4  5  4  0  0  0  0
  4  7  4  0  0  0  0
  5  6  4  0  0  0  0
  5  9  4  0  0  0  0
  6 25  1  0  0  0  0
  7  8  4  0  0  0  0
  7 26  1  0  0  0  0
  8  9  4  0  0  0  0
  9 10  1  0  0  0  0
 10 11  4  0  0  0  0
 10 15  4  0  0  0  0
 11 12  4  0  0  0  0
 11 27  1  0  0  0  0
 12 13  4  0  0  0  0
 12 28  1  0  0  0  0
 13 14  4  0  0  0  0
 13 16  1  0  0  0  0
 14 15  4  0  0  0  0
 14 29  1  0  0  0  0
 15 30  1  0  0  0  0
 16 17  1  0  0  0  0
 17 31  1  0  0  0  0
 17 32  1  0  0  0  0
 17 33  1  0  0  0  0
 18 19  1  0  0  0  0
 18 34  1  0  0  0  0
 19 20  1  0  0  0  0
 19 23  1  0  0  0  0
 19 35  1  0  0  0  0
 20 21  1  0  0  0  0
 20 36  1  0  0  0  0
 20 37  1  0  0  0  0
 21 22  1  0  0  0  0
 21 24  1  0  0  0  0
 21 38  1  0  0  0  0
 22 23  1  0  0  0  0
 22 39  1  0  0  0  0
 22 40  1  0  0  0  0
 23 41  1  0  0  0  0
 23 42  1  0  0  0  0
 24 43  1  0  0  0  0
 24 44  1  0  0  0  0
M  END
> <ConfClashScore>
0 

> <ConfOneFourInteractionScore>
-0.984337 

> <ConfScore>
-0.110422 

> <ConfScorePBest>
0.00501935 

> <ConfTolerance>
0.280689 

$$$$
c13.sdf
 OpenBabel04162418043D

 44 47  0  0  0  0  0  0  0  0999 V2000
    2.1079   -0.3774   -1.8531 N   0  0  0  1  0  0  0  0  0  0  0  0
    2.5364    0.5907   -2.6454 C   0  0  0  1  0  0  0  0  0  0  0  0
    2.1525    0.6997   -3.8968 N   0  0  0  1  0  0  0  0  0  0  0  0
    1.2985   -0.1837   -4.4201 C   0  0  0  1  0  0  0  0  0  0  0  0
    0.8204   -1.2305   -3.6033 C   0  0  0  1  0  0  0  0  0  0  0  0
    1.2615   -1.2960   -2.2849 C   0  0  0  1  0  0  0  0  0  0  0  0
    0.7018   -0.3513   -5.6890 C   0  0  0  1  0  0  0  0  0  0  0  0
   -0.0689   -1.4009   -5.6538 N   0  0  0  1  0  0  0  0  0  0  0  0
   -0.0256   -1.9781   -4.3778 N   0  0  0  1  0  0  0  0  0  0  0  0
   -0.7943   -3.1326   -4.1266 C   0  0  0  1  0  0  0  0  0  0  0  0
   -0.3799   -4.1228   -3.2561 C   0  0  0  1  0  0  0  0  0  0  0  0
   -1.1782   -5.2356   -3.0419 C   0  0  0  1  0  0  0  0  0  0  0  0
   -2.3860   -5.3575   -3.7026 C   0  0  0  1  0  0  0  0  0  0  0  0
   -2.8015   -4.3642   -4.5757 C   0  0  0  1  0  0  0  0  0  0  0  0
   -2.0056   -3.2546   -4.7895 C   0  0  0  1  0  0  0  0  0  0  0  0
   -3.2447   -6.3972   -3.5780 O   0  0  0  1  0  0  0  0  0  0  0  0
   -2.8572   -7.4670   -2.7018 C   0  0  0  1  0  0  0  0  0  0  0  0
    3.4009    1.5329   -2.2121 N   0  0  0  1  0  0  0  0  0  0  0  0
    3.9462    1.5737   -0.8663 C   0  0  0  1  0  0  0  0  0  0  0  0
    5.2032    0.7021   -0.7701 C   0  0  0  1  0  0  0  0  0  0  0  0
    6.3609    1.6473   -1.0918 C   0  0  0  1  0  0  0  0  0  0  0  0
    5.9328    2.9325   -0.3791 C   0  0  0  1  0  0  0  0  0  0  0  0
    4.4099    2.9938   -0.5178 C   0  0  0  1  0  0  0  0  0  0  0  0
    7.6408    1.1334   -0.5509 N   0  0  0  1  0  0  0  0  0  0  0  0
    0.9317   -2.0527   -1.6522 H   0  0  0  1  0  0  0  0  0  0  0  0
    0.8529    0.2621   -6.5152 H   0  0  0  1  0  0  0  0  0  0  0  0
    0.5308   -4.0331   -2.7619 H   0  0  0  1  0  0  0  0  0  0  0  0
   -0.8683   -5.9789   -2.3837 H   0  0  0  1  0  0  0  0  0  0  0  0
   -3.7121   -4.4539   -5.0699 H   0  0  0  1  0  0  0  0  0  0  0  0
   -2.3155   -2.5113   -5.4475 H   0  0  0  1  0  0  0  0  0  0  0  0
   -2.0561   -8.0201   -3.1459 H   0  0  0  1  0  0  0  0  0  0  0  0
   -3.6924   -8.1162   -2.5409 H   0  0  0  1  0  0  0  0  0  0  0  0
   -2.5343   -7.0616   -1.7656 H   0  0  0  1  0  0  0  0  0  0  0  0
    3.6769    2.2303   -2.8427 H   0  0  0  1  0  0  0  0  0  0  0  0
    3.2051    1.2403   -0.1703 H   0  0  0  1  0  0  0  0  0  0  0  0
    5.3082    0.3000    0.2158 H   0  0  0  1  0  0  0  0  0  0  0  0
    5.1620   -0.0979   -1.4795 H   0  0  0  1  0  0  0  0  0  0  0  0
    6.4549    1.8012   -2.1465 H   0  0  0  1  0  0  0  0  0  0  0  0
    6.2123    2.8975    0.6532 H   0  0  0  1  0  0  0  0  0  0  0  0
    6.3844    3.7845   -0.8427 H   0  0  0  1  0  0  0  0  0  0  0  0
    3.9674    3.3112    0.4033 H   0  0  0  1  0  0  0  0  0  0  0  0
    4.1370    3.6734   -1.2980 H   0  0  0  1  0  0  0  0  0  0  0  0
    7.8906    0.3131   -1.0252 H   0  0  0  1  0  0  0  0  0  0  0  0
    7.5372    0.9395    0.4042 H   0  0  0  1  0  0  0  0  0  0  0  0
  1  2  4  0  0  0  0
  1  6  4  0  0  0  0
  2  3  4  0  0  0  0
  2 18  1  0  0  0  0
  3  4  4  0  0  0  0
  4  5  4  0  0  0  0
  4  7  4  0  0  0  0
  5  6  4  0  0  0  0
  5  9  4  0  0  0  0
  6 25  1  0  0  0  0
  7  8  4  0  0  0  0
  7 26  1  0  0  0  0
  8  9  4  0  0  0  0
  9 10  1  0  0  0  0
 10 11  4  0  0  0  0
 10 15  4  0  0  0  0
 11 12  4  0  0  0  0
 11 27  1  0  0  0  0
 12 13  4  0  0  0  0
 12 28  1  0  0  0  0
 13 14  4  0  0  0  0
 13 16  1  0  0  0  0
 14 15  4  0  0  0  0
 14 29  1  0  0  0  0
 15 30  1  0  0  0  0
 16 17  1  0  0  0  0
 17 31  1  0  0  0  0
 17 32  1  0  0  0  0
 17 33  1  0  0  0  0
 18 19  1  0  0  0  0
 18 34  1  0  0  0  0
 19 20  1  0  0  0  0
 19 23  1  0  0  0  0
 19 35  1  0  0  0  0
 20 21  1  0  0  0  0
 20 36  1  0  0  0  0
 20 37  1  0  0  0  0
 21 22  1  0  0  0  0
 21 24  1  0  0  0  0
 21 38  1  0  0  0  0
 22 23  1  0  0  0  0
 22 39  1  0  0  0  0
 22 40  1  0  0  0  0
 23 41  1  0  0  0  0
 23 42  1  0  0  0  0
 24 43  1  0  0  0  0
 24 44  1  0  0  0  0
M  END
> <ConfClashScore>
0 

> <ConfOneFourInteractionScore>
-0.984337 

> <ConfScore>
-0.110422 

> <ConfScorePBest>
0.00500602 

> <ConfTolerance>
0.263481 

$$$$
c13.sdf
 OpenBabel04162418043D

 44 47  0  0  0  0  0  0  0  0999 V2000
    2.1080   -0.3774   -1.8532 N   0  0  0  1  0  0  0  0  0  0  0  0
    2.5364    0.5908   -2.6454 C   0  0  0  1  0  0  0  0  0  0  0  0
    2.1525    0.6996   -3.8968 N   0  0  0  1  0  0  0  0  0  0  0  0
    1.2985   -0.1838   -4.4201 C   0  0  0  1  0  0  0  0  0  0  0  0
    0.8204   -1.2305   -3.6034 C   0  0  0  1  0  0  0  0  0  0  0  0
    1.2616   -1.2961   -2.2849 C   0  0  0  1  0  0  0  0  0  0  0  0
    0.7018   -0.3512   -5.6889 C   0  0  0  1  0  0  0  0  0  0  0  0
   -0.0690   -1.4010   -5.6537 N   0  0  0  1  0  0  0  0  0  0  0  0
   -0.0256   -1.9781   -4.3778 N   0  0  0  1  0  0  0  0  0  0  0  0
   -0.6906   -3.1991   -4.0695 C   0  0  0  1  0  0  0  0  0  0  0  0
   -1.8200   -3.5681   -4.7754 C   0  0  0  1  0  0  0  0  0  0  0  0
   -2.4641   -4.7591   -4.4788 C   0  0  0  1  0  0  0  0  0  0  0  0
   -1.9801   -5.5751   -3.4738 C   0  0  0  1  0  0  0  0  0  0  0  0
   -0.8473   -5.2049   -2.7658 C   0  0  0  1  0  0  0  0  0  0  0  0
   -0.2050   -4.0173   -3.0614 C   0  0  0  1  0  0  0  0  0  0  0  0
   -2.7137   -6.6817   -3.3069 O   0  0  0  1  0  0  0  0  0  0  0  0
   -2.3408   -7.7142   -2.3332 C   0  0  0  1  0  0  0  0  0  0  0  0
    3.3976    1.4989   -2.1526 N   0  0  0  1  0  0  0  0  0  0  0  0
    3.8206    1.5463   -0.7521 C   0  0  0  1  0  0  0  0  0  0  0  0
    5.1360    0.7847   -0.5577 C   0  0  0  1  0  0  0  0  0  0  0  0
    6.2554    1.8305   -0.6489 C   0  0  0  1  0  0  0  0  0  0  0  0
    5.5485    3.1629   -0.9124 C   0  0  0  1  0  0  0  0  0  0  0  0
    4.1412    2.9725   -0.3361 C   0  0  0  1  0  0  0  0  0  0  0  0
    7.0210    1.8898    0.6342 N   0  0  0  1  0  0  0  0  0  0  0  0
    0.9319   -2.0528   -1.6523 H   0  0  0  1  0  0  0  0  0  0  0  0
    0.8527    0.2622   -6.5151 H   0  0  0  1  0  0  0  0  0  0  0  0
   -2.1866   -2.9521   -5.5290 H   0  0  0  1  0  0  0  0  0  0  0  0
   -3.3118   -5.0388   -5.0127 H   0  0  0  1  0  0  0  0  0  0  0  0
   -0.4807   -5.8207   -2.0122 H   0  0  0  1  0  0  0  0  0  0  0  0
    0.6426   -3.7376   -2.5276 H   0  0  0  1  0  0  0  0  0  0  0  0
   -3.0121   -8.5431   -2.4169 H   0  0  0  1  0  0  0  0  0  0  0  0
   -2.3969   -7.3086   -1.3446 H   0  0  0  1  0  0  0  0  0  0  0  0
   -1.3416   -8.0436   -2.5280 H   0  0  0  1  0  0  0  0  0  0  0  0
    3.7637    2.1683   -2.7676 H   0  0  0  1  0  0  0  0  0  0  0  0
    3.0509    1.1357   -0.1325 H   0  0  0  1  0  0  0  0  0  0  0  0
    5.1506    0.3089    0.4006 H   0  0  0  1  0  0  0  0  0  0  0  0
    5.2543    0.0476   -1.3243 H   0  0  0  1  0  0  0  0  0  0  0  0
    6.9221    1.5956   -1.4521 H   0  0  0  1  0  0  0  0  0  0  0  0
    6.0549    3.9642   -0.4158 H   0  0  0  1  0  0  0  0  0  0  0  0
    5.5028    3.3654   -1.9621 H   0  0  0  1  0  0  0  0  0  0  0  0
    3.4487    3.6671   -0.7637 H   0  0  0  1  0  0  0  0  0  0  0  0
    4.1398    3.0765    0.7289 H   0  0  0  1  0  0  0  0  0  0  0  0
    7.4422    1.0214    0.8042 H   0  0  0  1  0  0  0  0  0  0  0  0
    6.4098    2.1057    1.3693 H   0  0  0  1  0  0  0  0  0  0  0  0
  1  2  4  0  0  0  0
  1  6  4  0  0  0  0
  2  3  4  0  0  0  0
  2 18  1  0  0  0  0
  3  4  4  0  0  0  0
  4  5  4  0  0  0  0
  4  7  4  0  0  0  0
  5  6  4  0  0  0  0
  5  9  4  0  0  0  0
  6 25  1  0  0  0  0
  7  8  4  0  0  0  0
  7 26  1  0  0  0  0
  8  9  4  0  0  0  0
  9 10  1  0  0  0  0
 10 11  4  0  0  0  0
 10 15  4  0  0  0  0
 11 12  4  0  0  0  0
 11 27  1  0  0  0  0
 12 13  4  0  0  0  0
 12 28  1  0  0  0  0
 13 14  4  0  0  0  0
 13 16  1  0  0  0  0
 14 15  4  0  0  0  0
 14 29  1  0  0  0  0
 15 30  1  0  0  0  0
 16 17  1  0  0  0  0
 17 31  1  0  0  0  0
 17 32  1  0  0  0  0
 17 33  1  0  0  0  0
 18 19  1  0  0  0  0
 18 34  1  0  0  0  0
 19 20  1  0  0  0  0
 19 23  1  0  0  0  0
 19 35  1  0  0  0  0
 20 21  1  0  0  0  0
 20 36  1  0  0  0  0
 20 37  1  0  0  0  0
 21 22  1  0  0  0  0
 21 24  1  0  0  0  0
 21 38  1  0  0  0  0
 22 23  1  0  0  0  0
 22 39  1  0  0  0  0
 22 40  1  0  0  0  0
 23 41  1  0  0  0  0
 23 42  1  0  0  0  0
 24 43  1  0  0  0  0
 24 44  1  0  0  0  0
M  END
> <ConfClashScore>
0 

> <ConfOneFourInteractionScore>
-0.984337 

> <ConfScore>
-0.110422 

> <ConfScorePBest>
0.00499269 

> <ConfTolerance>
0.360181 

$$$$
c13.sdf
 OpenBabel04162418043D

 44 47  0  0  0  0  0  0  0  0999 V2000
    2.1080   -0.3774   -1.8532 N   0  0  0  1  0  0  0  0  0  0  0  0
    2.5364    0.5907   -2.6455 C   0  0  0  1  0  0  0  0  0  0  0  0
    2.1526    0.6996   -3.8968 N   0  0  0  1  0  0  0  0  0  0  0  0
    1.2985   -0.1837   -4.4201 C   0  0  0  1  0  0  0  0  0  0  0  0
    0.8205   -1.2305   -3.6034 C   0  0  0  1  0  0  0  0  0  0  0  0
    1.2616   -1.2961   -2.2849 C   0  0  0  1  0  0  0  0  0  0  0  0
    0.7019   -0.3513   -5.6889 C   0  0  0  1  0  0  0  0  0  0  0  0
   -0.0689   -1.4010   -5.6538 N   0  0  0  1  0  0  0  0  0  0  0  0
   -0.0256   -1.9781   -4.3778 N   0  0  0  1  0  0  0  0  0  0  0  0
   -0.7841   -3.1424   -4.0798 C   0  0  0  1  0  0  0  0  0  0  0  0
   -1.9592   -3.3902   -4.7636 C   0  0  0  1  0  0  0  0  0  0  0  0
   -2.6513   -4.5716   -4.5469 C   0  0  0  1  0  0  0  0  0  0  0  0
   -2.1690   -5.4992   -3.6429 C   0  0  0  1  0  0  0  0  0  0  0  0
   -0.9904   -5.2505   -2.9569 C   0  0  0  1  0  0  0  0  0  0  0  0
   -0.3003   -4.0727   -3.1731 C   0  0  0  1  0  0  0  0  0  0  0  0
   -2.9276   -6.6048   -3.5117 O   0  0  0  1  0  0  0  0  0  0  0  0
   -2.3534   -7.6472   -2.6895 C   0  0  0  1  0  0  0  0  0  0  0  0
    3.4099    1.5117   -2.1457 N   0  0  0  1  0  0  0  0  0  0  0  0
    3.9327    2.5954   -2.9671 C   0  0  0  1  0  0  0  0  0  0  0  0
    3.0389    3.8676   -2.8108 C   0  0  0  1  0  0  0  0  0  0  0  0
    3.7360    4.5852   -1.5951 C   0  0  0  1  0  0  0  0  0  0  0  0
    5.2125    4.3771   -1.9031 C   0  0  0  1  0  0  0  0  0  0  0  0
    5.3372    2.9811   -2.4981 C   0  0  0  1  0  0  0  0  0  0  0  0
    3.3906    6.0394   -1.5534 N   0  0  0  1  0  0  0  0  0  0  0  0
    0.9318   -2.0527   -1.6523 H   0  0  0  1  0  0  0  0  0  0  0  0
    0.8528    0.2620   -6.5152 H   0  0  0  1  0  0  0  0  0  0  0  0
   -2.3243   -2.6905   -5.4410 H   0  0  0  1  0  0  0  0  0  0  0  0
   -3.5334   -4.7599   -5.0645 H   0  0  0  1  0  0  0  0  0  0  0  0
   -0.6254   -5.9503   -2.2797 H   0  0  0  1  0  0  0  0  0  0  0  0
    0.5819   -3.8843   -2.6554 H   0  0  0  1  0  0  0  0  0  0  0  0
   -2.2889   -7.3083   -1.6766 H   0  0  0  1  0  0  0  0  0  0  0  0
   -1.3741   -7.8857   -3.0486 H   0  0  0  1  0  0  0  0  0  0  0  0
   -2.9725   -8.5188   -2.7349 H   0  0  0  1  0  0  0  0  0  0  0  0
    3.6930    1.4425   -1.2100 H   0  0  0  1  0  0  0  0  0  0  0  0
    3.9583    2.2869   -3.9913 H   0  0  0  1  0  0  0  0  0  0  0  0
    3.0647    4.4750   -3.6914 H   0  0  0  1  0  0  0  0  0  0  0  0
    2.0255    3.6092   -2.5848 H   0  0  0  1  0  0  0  0  0  0  0  0
    3.4650    4.1270   -0.6669 H   0  0  0  1  0  0  0  0  0  0  0  0
    5.7909    4.4494   -1.0058 H   0  0  0  1  0  0  0  0  0  0  0  0
    5.5502    5.1098   -2.6059 H   0  0  0  1  0  0  0  0  0  0  0  0
    5.6842    2.2911   -1.7575 H   0  0  0  1  0  0  0  0  0  0  0  0
    6.0160    2.9888   -3.3251 H   0  0  0  1  0  0  0  0  0  0  0  0
    2.4318    6.1431   -1.3791 H   0  0  0  1  0  0  0  0  0  0  0  0
    3.6125    6.4524   -2.4139 H   0  0  0  1  0  0  0  0  0  0  0  0
  1  2  4  0  0  0  0
  1  6  4  0  0  0  0
  2  3  4  0  0  0  0
  2 18  1  0  0  0  0
  3  4  4  0  0  0  0
  4  5  4  0  0  0  0
  4  7  4  0  0  0  0
  5  6  4  0  0  0  0
  5  9  4  0  0  0  0
  6 25  1  0  0  0  0
  7  8  4  0  0  0  0
  7 26  1  0  0  0  0
  8  9  4  0  0  0  0
  9 10  1  0  0  0  0
 10 11  4  0  0  0  0
 10 15  4  0  0  0  0
 11 12  4  0  0  0  0
 11 27  1  0  0  0  0
 12 13  4  0  0  0  0
 12 28  1  0  0  0  0
 13 14  4  0  0  0  0
 13 16  1  0  0  0  0
 14 15  4  0  0  0  0
 14 29  1  0  0  0  0
 15 30  1  0  0  0  0
 16 17  1  0  0  0  0
 17 31  1  0  0  0  0
 17 32  1  0  0  0  0
 17 33  1  0  0  0  0
 18 19  1  0  0  0  0
 18 34  1  0  0  0  0
 19 20  1  0  0  0  0
 19 23  1  0  0  0  0
 19 35  1  0  0  0  0
 20 21  1  0  0  0  0
 20 36  1  0  0  0  0
 20 37  1  0  0  0  0
 21 22  1  0  0  0  0
 21 24  1  0  0  0  0
 21 38  1  0  0  0  0
 22 23  1  0  0  0  0
 22 39  1  0  0  0  0
 22 40  1  0  0  0  0
 23 41  1  0  0  0  0
 23 42  1  0  0  0  0
 24 43  1  0  0  0  0
 24 44  1  0  0  0  0
M  END
> <ConfClashScore>
0 

> <ConfOneFourInteractionScore>
-0.984337 

> <ConfScore>
-0.110422 

> <ConfScorePBest>
0.00497936 

> <ConfTolerance>
0.206675 

$$$$
c13.sdf
 OpenBabel04162418043D

 44 47  0  0  0  0  0  0  0  0999 V2000
    2.1080   -0.3774   -1.8533 N   0  0  0  1  0  0  0  0  0  0  0  0
    2.5363    0.5907   -2.6455 C   0  0  0  1  0  0  0  0  0  0  0  0
    2.1525    0.6997   -3.8968 N   0  0  0  1  0  0  0  0  0  0  0  0
    1.2986   -0.1837   -4.4201 C   0  0  0  1  0  0  0  0  0  0  0  0
    0.8205   -1.2304   -3.6034 C   0  0  0  1  0  0  0  0  0  0  0  0
    1.2615   -1.2960   -2.2850 C   0  0  0  1  0  0  0  0  0  0  0  0
    0.7019   -0.3511   -5.6890 C   0  0  0  1  0  0  0  0  0  0  0  0
   -0.0690   -1.4010   -5.6538 N   0  0  0  1  0  0  0  0  0  0  0  0
   -0.0256   -1.9781   -4.3778 N   0  0  0  1  0  0  0  0  0  0  0  0
   -0.7142   -3.1961   -4.1130 C   0  0  0  1  0  0  0  0  0  0  0  0
   -1.8327   -3.5278   -4.8540 C   0  0  0  1  0  0  0  0  0  0  0  0
   -2.4485   -4.7556   -4.6673 C   0  0  0  1  0  0  0  0  0  0  0  0
   -1.9471   -5.6459   -3.7366 C   0  0  0  1  0  0  0  0  0  0  0  0
   -0.8253   -5.3131   -2.9935 C   0  0  0  1  0  0  0  0  0  0  0  0
   -0.2113   -4.0889   -3.1795 C   0  0  0  1  0  0  0  0  0  0  0  0
   -2.5519   -6.8433   -3.5506 O   0  0  0  1  0  0  0  0  0  0  0  0
   -2.0701   -7.6614   -2.4731 C   0  0  0  1  0  0  0  0  0  0  0  0
    3.4042    1.4828   -2.1026 N   0  0  0  1  0  0  0  0  0  0  0  0
    3.8381    1.4525   -0.7021 C   0  0  0  1  0  0  0  0  0  0  0  0
    5.2496    0.8624   -0.5899 C   0  0  0  1  0  0  0  0  0  0  0  0
    6.0942    1.8947    0.1608 C   0  0  0  1  0  0  0  0  0  0  0  0
    5.0932    2.8121    0.8673 C   0  0  0  1  0  0  0  0  0  0  0  0
    3.9483    2.8756   -0.1437 C   0  0  0  1  0  0  0  0  0  0  0  0
    6.9640    1.2286    1.1451 N   0  0  0  1  0  0  0  0  0  0  0  0
    0.9317   -2.0526   -1.6523 H   0  0  0  1  0  0  0  0  0  0  0  0
    0.8528    0.2622   -6.5152 H   0  0  0  1  0  0  0  0  0  0  0  0
   -2.2125   -2.8563   -5.5514 H   0  0  0  1  0  0  0  0  0  0  0  0
   -3.2878   -5.0068   -5.2277 H   0  0  0  1  0  0  0  0  0  0  0  0
   -0.4456   -5.9846   -2.2960 H   0  0  0  1  0  0  0  0  0  0  0  0
    0.6280   -3.8376   -2.6190 H   0  0  0  1  0  0  0  0  0  0  0  0
   -1.0047   -7.7405   -2.5335 H   0  0  0  1  0  0  0  0  0  0  0  0
   -2.5046   -8.6367   -2.5443 H   0  0  0  1  0  0  0  0  0  0  0  0
   -2.3421   -7.2166   -1.5388 H   0  0  0  1  0  0  0  0  0  0  0  0
    3.7618    2.1885   -2.6809 H   0  0  0  1  0  0  0  0  0  0  0  0
    3.1446    0.8767   -0.1255 H   0  0  0  1  0  0  0  0  0  0  0  0
    5.2227   -0.0587   -0.0462 H   0  0  0  1  0  0  0  0  0  0  0  0
    5.6565    0.6903   -1.5643 H   0  0  0  1  0  0  0  0  0  0  0  0
    6.6947    2.4552   -0.5249 H   0  0  0  1  0  0  0  0  0  0  0  0
    4.7685    2.3906    1.7957 H   0  0  0  1  0  0  0  0  0  0  0  0
    5.5113    3.7814    1.0419 H   0  0  0  1  0  0  0  0  0  0  0  0
    4.1743    3.5703   -0.9254 H   0  0  0  1  0  0  0  0  0  0  0  0
    3.0368    3.1631    0.3371 H   0  0  0  1  0  0  0  0  0  0  0  0
    6.4121    0.7521    1.7999 H   0  0  0  1  0  0  0  0  0  0  0  0
    7.5099    1.8999    1.6053 H   0  0  0  1  0  0  0  0  0  0  0  0
  1  2  4  0  0  0  0
  1  6  4  0  0  0  0
  2  3  4  0  0  0  0
  2 18  1  0  0  0  0
  3  4  4  0  0  0  0
  4  5  4  0  0  0  0
  4  7  4  0  0  0  0
  5  6  4  0  0  0  0
  5  9  4  0  0  0  0
  6 25  1  0  0  0  0
  7  8  4  0  0  0  0
  7 26  1  0  0  0  0
  8  9  4  0  0  0  0
  9 10  1  0  0  0  0
 10 11  4  0  0  0  0
 10 15  4  0  0  0  0
 11 12  4  0  0  0  0
 11 27  1  0  0  0  0
 12 13  4  0  0  0  0
 12 28  1  0  0  0  0
 13 14  4  0  0  0  0
 13 16  1  0  0  0  0
 14 15  4  0  0  0  0
 14 29  1  0  0  0  0
 15 30  1  0  0  0  0
 16 17  1  0  0  0  0
 17 31  1  0  0  0  0
 17 32  1  0  0  0  0
 17 33  1  0  0  0  0
 18 19  1  0  0  0  0
 18 34  1  0  0  0  0
 19 20  1  0  0  0  0
 19 23  1  0  0  0  0
 19 35  1  0  0  0  0
 20 21  1  0  0  0  0
 20 36  1  0  0  0  0
 20 37  1  0  0  0  0
 21 22  1  0  0  0  0
 21 24  1  0  0  0  0
 21 38  1  0  0  0  0
 22 23  1  0  0  0  0
 22 39  1  0  0  0  0
 22 40  1  0  0  0  0
 23 41  1  0  0  0  0
 23 42  1  0  0  0  0
 24 43  1  0  0  0  0
 24 44  1  0  0  0  0
M  END
> <ConfClashScore>
0 

> <ConfOneFourInteractionScore>
-0.984337 

> <ConfScore>
-0.107419 

> <ConfScorePBest>
0.00496604 

> <ConfTolerance>
0.273772 

$$$$
c13.sdf
 OpenBabel04162418043D

 44 47  0  0  0  0  0  0  0  0999 V2000
    2.1080   -0.3774   -1.8533 N   0  0  0  1  0  0  0  0  0  0  0  0
    2.5364    0.5907   -2.6455 C   0  0  0  1  0  0  0  0  0  0  0  0
    2.1526    0.6996   -3.8968 N   0  0  0  1  0  0  0  0  0  0  0  0
    1.2985   -0.1837   -4.4201 C   0  0  0  1  0  0  0  0  0  0  0  0
    0.8205   -1.2305   -3.6033 C   0  0  0  1  0  0  0  0  0  0  0  0
    1.2616   -1.2961   -2.2850 C   0  0  0  1  0  0  0  0  0  0  0  0
    0.7018   -0.3512   -5.6889 C   0  0  0  1  0  0  0  0  0  0  0  0
   -0.0690   -1.4010   -5.6537 N   0  0  0  1  0  0  0  0  0  0  0  0
   -0.0256   -1.9781   -4.3778 N   0  0  0  1  0  0  0  0  0  0  0  0
   -0.7658   -3.1435   -4.0286 C   0  0  0  1  0  0  0  0  0  0  0  0
   -2.0326   -3.3381   -4.5458 C   0  0  0  1  0  0  0  0  0  0  0  0
   -2.7510   -4.4751   -4.2100 C   0  0  0  1  0  0  0  0  0  0  0  0
   -2.2028   -5.4114   -3.3538 C   0  0  0  1  0  0  0  0  0  0  0  0
   -0.9321   -5.2160   -2.8350 C   0  0  0  1  0  0  0  0  0  0  0  0
   -0.2158   -4.0824   -3.1698 C   0  0  0  1  0  0  0  0  0  0  0  0
   -2.9943   -6.4706   -3.0962 O   0  0  0  1  0  0  0  0  0  0  0  0
   -2.5601   -7.3067   -1.9984 C   0  0  0  1  0  0  0  0  0  0  0  0
    3.3977    1.4989   -2.1527 N   0  0  0  1  0  0  0  0  0  0  0  0
    3.9608    2.5989   -2.9369 C   0  0  0  1  0  0  0  0  0  0  0  0
    2.9781    3.7725   -3.0068 C   0  0  0  1  0  0  0  0  0  0  0  0
    3.3754    4.7334   -1.8781 C   0  0  0  1  0  0  0  0  0  0  0  0
    4.5666    4.0717   -1.1796 C   0  0  0  1  0  0  0  0  0  0  0  0
    5.1905    3.1722   -2.2520 C   0  0  0  1  0  0  0  0  0  0  0  0
    3.7600    6.0291   -2.4238 N   0  0  0  1  0  0  0  0  0  0  0  0
    0.9318   -2.0528   -1.6523 H   0  0  0  1  0  0  0  0  0  0  0  0
    0.8528    0.2621   -6.5151 H   0  0  0  1  0  0  0  0  0  0  0  0
   -2.4468   -2.6318   -5.1869 H   0  0  0  1  0  0  0  0  0  0  0  0
   -3.7025   -4.6237   -4.6025 H   0  0  0  1  0  0  0  0  0  0  0  0
   -0.5180   -5.9224   -2.1939 H   0  0  0  1  0  0  0  0  0  0  0  0
    0.7359   -3.9338   -2.7774 H   0  0  0  1  0  0  0  0  0  0  0  0
   -2.5392   -6.7304   -1.0971 H   0  0  0  1  0  0  0  0  0  0  0  0
   -1.5799   -7.6835   -2.2034 H   0  0  0  1  0  0  0  0  0  0  0  0
   -3.2402   -8.1246   -1.8827 H   0  0  0  1  0  0  0  0  0  0  0  0
    3.6639    1.4192   -1.2129 H   0  0  0  1  0  0  0  0  0  0  0  0
    4.2033    2.2500   -3.9190 H   0  0  0  1  0  0  0  0  0  0  0  0
    1.9761    3.4259   -2.8628 H   0  0  0  1  0  0  0  0  0  0  0  0
    3.0535    4.2631   -3.9548 H   0  0  0  1  0  0  0  0  0  0  0  0
    2.5636    4.8611   -1.1927 H   0  0  0  1  0  0  0  0  0  0  0  0
    4.2390    3.4908   -0.3428 H   0  0  0  1  0  0  0  0  0  0  0  0
    5.2684    4.8091   -0.8497 H   0  0  0  1  0  0  0  0  0  0  0  0
    5.7876    3.7389   -2.9356 H   0  0  0  1  0  0  0  0  0  0  0  0
    5.7865    2.3997   -1.8128 H   0  0  0  1  0  0  0  0  0  0  0  0
    4.5113    5.9137   -3.0423 H   0  0  0  1  0  0  0  0  0  0  0  0
    4.0275    6.6247   -1.6929 H   0  0  0  1  0  0  0  0  0  0  0  0
  1  2  4  0  0  0  0
  1  6  4  0  0  0  0
  2  3  4  0  0  0  0
  2 18  1  0  0  0  0
  3  4  4  0  0  0  0
  4  5  4  0  0  0  0
  4  7  4  0  0  0  0
  5  6  4  0  0  0  0
  5  9  4  0  0  0  0
  6 25  1  0  0  0  0
  7  8  4  0  0  0  0
  7 26  1  0  0  0  0
  8  9  4  0  0  0  0
  9 10  1  0  0  0  0
 10 11  4  0  0  0  0
 10 15  4  0  0  0  0
 11 12  4  0  0  0  0
 11 27  1  0  0  0  0
 12 13  4  0  0  0  0
 12 28  1  0  0  0  0
 13 14  4  0  0  0  0
 13 16  1  0  0  0  0
 14 15  4  0  0  0  0
 14 29  1  0  0  0  0
 15 30  1  0  0  0  0
 16 17  1  0  0  0  0
 17 31  1  0  0  0  0
 17 32  1  0  0  0  0
 17 33  1  0  0  0  0
 18 19  1  0  0  0  0
 18 34  1  0  0  0  0
 19 20  1  0  0  0  0
 19 23  1  0  0  0  0
 19 35  1  0  0  0  0
 20 21  1  0  0  0  0
 20 36  1  0  0  0  0
 20 37  1  0  0  0  0
 21 22  1  0  0  0  0
 21 24  1  0  0  0  0
 21 38  1  0  0  0  0
 22 23  1  0  0  0  0
 22 39  1  0  0  0  0
 22 40  1  0  0  0  0
 23 41  1  0  0  0  0
 23 42  1  0  0  0  0
 24 43  1  0  0  0  0
 24 44  1  0  0  0  0
M  END
> <ConfClashScore>
0 

> <ConfOneFourInteractionScore>
-0.984337 

> <ConfScore>
-0.107419 

> <ConfScorePBest>
0.00495271 

> <ConfTolerance>
0.336414 

$$$$
c13.sdf
 OpenBabel04162418043D

 44 47  0  0  0  0  0  0  0  0999 V2000
    2.1080   -0.3774   -1.8532 N   0  0  0  1  0  0  0  0  0  0  0  0
    2.5364    0.5907   -2.6455 C   0  0  0  1  0  0  0  0  0  0  0  0
    2.1525    0.6996   -3.8969 N   0  0  0  1  0  0  0  0  0  0  0  0
    1.2985   -0.1838   -4.4201 C   0  0  0  1  0  0  0  0  0  0  0  0
    0.8204   -1.2305   -3.6033 C   0  0  0  1  0  0  0  0  0  0  0  0
    1.2615   -1.2961   -2.2849 C   0  0  0  1  0  0  0  0  0  0  0  0
    0.7019   -0.3512   -5.6890 C   0  0  0  1  0  0  0  0  0  0  0  0
   -0.0690   -1.4010   -5.6538 N   0  0  0  1  0  0  0  0  0  0  0  0
   -0.0256   -1.9781   -4.3778 N   0  0  0  1  0  0  0  0  0  0  0  0
   -0.7097   -3.1879   -4.1147 C   0  0  0  1  0  0  0  0  0  0  0  0
   -0.1270   -4.1506   -3.3123 C   0  0  0  1  0  0  0  0  0  0  0  0
   -0.7997   -5.3339   -3.0501 C   0  0  0  1  0  0  0  0  0  0  0  0
   -2.0506   -5.5535   -3.5954 C   0  0  0  1  0  0  0  0  0  0  0  0
   -2.6348   -4.5878   -4.4003 C   0  0  0  1  0  0  0  0  0  0  0  0
   -1.9642   -3.4079   -4.6617 C   0  0  0  1  0  0  0  0  0  0  0  0
   -2.7945   -6.6622   -3.4158 O   0  0  0  1  0  0  0  0  0  0  0  0
   -2.1712   -7.6948   -2.6173 C   0  0  0  1  0  0  0  0  0  0  0  0
    3.4218    1.5243   -2.1389 N   0  0  0  1  0  0  0  0  0  0  0  0
    3.7664    1.5064   -0.7145 C   0  0  0  1  0  0  0  0  0  0  0  0
    4.9760    0.6000   -0.4747 C   0  0  0  1  0  0  0  0  0  0  0  0
    5.8600    1.3476    0.5264 C   0  0  0  1  0  0  0  0  0  0  0  0
    5.6620    2.8033    0.1038 C   0  0  0  1  0  0  0  0  0  0  0  0
    4.1748    2.9104   -0.2507 C   0  0  0  1  0  0  0  0  0  0  0  0
    5.3995    1.1232    1.9293 N   0  0  0  1  0  0  0  0  0  0  0  0
    0.9317   -2.0527   -1.6523 H   0  0  0  1  0  0  0  0  0  0  0  0
    0.8528    0.2621   -6.5152 H   0  0  0  1  0  0  0  0  0  0  0  0
    0.8160   -3.9872   -2.9051 H   0  0  0  1  0  0  0  0  0  0  0  0
   -0.3631   -6.0567   -2.4429 H   0  0  0  1  0  0  0  0  0  0  0  0
   -3.5777   -4.7511   -4.8073 H   0  0  0  1  0  0  0  0  0  0  0  0
   -2.4008   -2.6851   -5.2688 H   0  0  0  1  0  0  0  0  0  0  0  0
   -2.0313   -7.3381   -1.6183 H   0  0  0  1  0  0  0  0  0  0  0  0
   -1.2222   -7.9491   -3.0412 H   0  0  0  1  0  0  0  0  0  0  0  0
   -2.7991   -8.5611   -2.6018 H   0  0  0  1  0  0  0  0  0  0  0  0
    3.8183    2.1968   -2.7313 H   0  0  0  1  0  0  0  0  0  0  0  0
    2.9271    1.1599   -0.1483 H   0  0  0  1  0  0  0  0  0  0  0  0
    5.5057    0.4349   -1.3896 H   0  0  0  1  0  0  0  0  0  0  0  0
    4.6638   -0.3392   -0.0682 H   0  0  0  1  0  0  0  0  0  0  0  0
    6.8846    1.0528    0.4355 H   0  0  0  1  0  0  0  0  0  0  0  0
    6.2694    3.0347   -0.7462 H   0  0  0  1  0  0  0  0  0  0  0  0
    5.9061    3.4656    0.9080 H   0  0  0  1  0  0  0  0  0  0  0  0
    3.6054    3.2020    0.6070 H   0  0  0  1  0  0  0  0  0  0  0  0
    4.0272    3.6219   -1.0362 H   0  0  0  1  0  0  0  0  0  0  0  0
    4.4305    1.2602    1.9814 H   0  0  0  1  0  0  0  0  0  0  0  0
    5.8511    1.7556    2.5264 H   0  0  0  1  0  0  0  0  0  0  0  0
  1  2  4  0  0  0  0
  1  6  4  0  0  0  0
  2  3  4  0  0  0  0
  2 18  1  0  0  0  0
  3  4  4  0  0  0  0
  4  5  4  0  0  0  0
  4  7  4  0  0  0  0
  5  6  4  0  0  0  0
  5  9  4  0  0  0  0
  6 25  1  0  0  0  0
  7  8  4  0  0  0  0
  7 26  1  0  0  0  0
  8  9  4  0  0  0  0
  9 10  1  0  0  0  0
 10 11  4  0  0  0  0
 10 15  4  0  0  0  0
 11 12  4  0  0  0  0
 11 27  1  0  0  0  0
 12 13  4  0  0  0  0
 12 28  1  0  0  0  0
 13 14  4  0  0  0  0
 13 16  1  0  0  0  0
 14 15  4  0  0  0  0
 14 29  1  0  0  0  0
 15 30  1  0  0  0  0
 16 17  1  0  0  0  0
 17 31  1  0  0  0  0
 17 32  1  0  0  0  0
 17 33  1  0  0  0  0
 18 19  1  0  0  0  0
 18 34  1  0  0  0  0
 19 20  1  0  0  0  0
 19 23  1  0  0  0  0
 19 35  1  0  0  0  0
 20 21  1  0  0  0  0
 20 36  1  0  0  0  0
 20 37  1  0  0  0  0
 21 22  1  0  0  0  0
 21 24  1  0  0  0  0
 21 38  1  0  0  0  0
 22 23  1  0  0  0  0
 22 39  1  0  0  0  0
 22 40  1  0  0  0  0
 23 41  1  0  0  0  0
 23 42  1  0  0  0  0
 24 43  1  0  0  0  0
 24 44  1  0  0  0  0
M  END
> <ConfClashScore>
0 

> <ConfOneFourInteractionScore>
-0.984337 

> <ConfScore>
-0.107419 

> <ConfScorePBest>
0.00493938 

> <ConfTolerance>
0.265544 

$$$$
c13.sdf
 OpenBabel04162418043D

 44 47  0  0  0  0  0  0  0  0999 V2000
    2.1078   -0.3773   -1.8532 N   0  0  0  1  0  0  0  0  0  0  0  0
    2.5364    0.5907   -2.6455 C   0  0  0  1  0  0  0  0  0  0  0  0
    2.1526    0.6996   -3.8969 N   0  0  0  1  0  0  0  0  0  0  0  0
    1.2985   -0.1838   -4.4201 C   0  0  0  1  0  0  0  0  0  0  0  0
    0.8204   -1.2304   -3.6033 C   0  0  0  1  0  0  0  0  0  0  0  0
    1.2614   -1.2959   -2.2849 C   0  0  0  1  0  0  0  0  0  0  0  0
    0.7020   -0.3514   -5.6890 C   0  0  0  1  0  0  0  0  0  0  0  0
   -0.0688   -1.4011   -5.6538 N   0  0  0  1  0  0  0  0  0  0  0  0
   -0.0256   -1.9781   -4.3778 N   0  0  0  1  0  0  0  0  0  0  0  0
   -0.7806   -3.1368   -4.0811 C   0  0  0  1  0  0  0  0  0  0  0  0
   -2.0919   -3.2348   -4.5066 C   0  0  0  1  0  0  0  0  0  0  0  0
   -2.8302   -4.3726   -4.2205 C   0  0  0  1  0  0  0  0  0  0  0  0
   -2.2567   -5.4068   -3.5050 C   0  0  0  1  0  0  0  0  0  0  0  0
   -0.9415   -5.3084   -3.0783 C   0  0  0  1  0  0  0  0  0  0  0  0
   -0.2053   -4.1739   -3.3636 C   0  0  0  1  0  0  0  0  0  0  0  0
   -3.0749   -6.4625   -3.2818 O   0  0  0  1  0  0  0  0  0  0  0  0
   -2.5213   -7.5840   -2.5758 C   0  0  0  1  0  0  0  0  0  0  0  0
    3.3976    1.4989   -2.1527 N   0  0  0  1  0  0  0  0  0  0  0  0
    3.9530    1.4470   -0.7964 C   0  0  0  1  0  0  0  0  0  0  0  0
    5.2992    0.7418   -0.7775 C   0  0  0  1  0  0  0  0  0  0  0  0
    5.9762    1.2407    0.5035 C   0  0  0  1  0  0  0  0  0  0  0  0
    5.3359    2.5972    0.8273 C   0  0  0  1  0  0  0  0  0  0  0  0
    4.3203    2.8465   -0.2911 C   0  0  0  1  0  0  0  0  0  0  0  0
    5.7423    0.2808    1.6179 N   0  0  0  1  0  0  0  0  0  0  0  0
    0.9315   -2.0525   -1.6522 H   0  0  0  1  0  0  0  0  0  0  0  0
    0.8530    0.2619   -6.5152 H   0  0  0  1  0  0  0  0  0  0  0  0
   -2.5248   -2.4549   -5.0415 H   0  0  0  1  0  0  0  0  0  0  0  0
   -3.8156   -4.4480   -4.5442 H   0  0  0  1  0  0  0  0  0  0  0  0
   -0.5086   -6.0883   -2.5435 H   0  0  0  1  0  0  0  0  0  0  0  0
    0.7802   -4.0984   -3.0400 H   0  0  0  1  0  0  0  0  0  0  0  0
   -2.2299   -7.2785   -1.5926 H   0  0  0  1  0  0  0  0  0  0  0  0
   -1.6656   -7.9503   -3.1035 H   0  0  0  1  0  0  0  0  0  0  0  0
   -3.2560   -8.3586   -2.5053 H   0  0  0  1  0  0  0  0  0  0  0  0
    3.6702    2.2390   -2.7344 H   0  0  0  1  0  0  0  0  0  0  0  0
    3.2543    0.9685   -0.1424 H   0  0  0  1  0  0  0  0  0  0  0  0
    5.1694   -0.3200   -0.7476 H   0  0  0  1  0  0  0  0  0  0  0  0
    5.8769    1.0069   -1.6383 H   0  0  0  1  0  0  0  0  0  0  0  0
    7.0282    1.3557    0.3460 H   0  0  0  1  0  0  0  0  0  0  0  0
    4.8449    2.5617    1.7773 H   0  0  0  1  0  0  0  0  0  0  0  0
    6.0779    3.3681    0.8374 H   0  0  0  1  0  0  0  0  0  0  0  0
    4.7571    3.4288   -1.0753 H   0  0  0  1  0  0  0  0  0  0  0  0
    3.4559    3.3501    0.0886 H   0  0  0  1  0  0  0  0  0  0  0  0
    4.7786    0.1560    1.7453 H   0  0  0  1  0  0  0  0  0  0  0  0
    6.1374    0.6347    2.4419 H   0  0  0  1  0  0  0  0  0  0  0  0
  1  2  4  0  0  0  0
  1  6  4  0  0  0  0
  2  3  4  0  0  0  0
  2 18  1  0  0  0  0
  3  4  4  0  0  0  0
  4  5  4  0  0  0  0
  4  7  4  0  0  0  0
  5  6  4  0  0  0  0
  5  9  4  0  0  0  0
  6 25  1  0  0  0  0
  7  8  4  0  0  0  0
  7 26  1  0  0  0  0
  8  9  4  0  0  0  0
  9 10  1  0  0  0  0
 10 11  4  0  0  0  0
 10 15  4  0  0  0  0
 11 12  4  0  0  0  0
 11 27  1  0  0  0  0
 12 13  4  0  0  0  0
 12 28  1  0  0  0  0
 13 14  4  0  0  0  0
 13 16  1  0  0  0  0
 14 15  4  0  0  0  0
 14 29  1  0  0  0  0
 15 30  1  0  0  0  0
 16 17  1  0  0  0  0
 17 31  1  0  0  0  0
 17 32  1  0  0  0  0
 17 33  1  0  0  0  0
 18 19  1  0  0  0  0
 18 34  1  0  0  0  0
 19 20  1  0  0  0  0
 19 23  1  0  0  0  0
 19 35  1  0  0  0  0
 20 21  1  0  0  0  0
 20 36  1  0  0  0  0
 20 37  1  0  0  0  0
 21 22  1  0  0  0  0
 21 24  1  0  0  0  0
 21 38  1  0  0  0  0
 22 23  1  0  0  0  0
 22 39  1  0  0  0  0
 22 40  1  0  0  0  0
 23 41  1  0  0  0  0
 23 42  1  0  0  0  0
 24 43  1  0  0  0  0
 24 44  1  0  0  0  0
M  END
> <ConfClashScore>
0 

> <ConfOneFourInteractionScore>
-0.984337 

> <ConfScore>
-0.107419 

> <ConfScorePBest>
0.00492605 

> <ConfTolerance>
0.248172 

$$$$
c13.sdf
 OpenBabel04162418043D

 44 47  0  0  0  0  0  0  0  0999 V2000
    2.1080   -0.3774   -1.8533 N   0  0  0  1  0  0  0  0  0  0  0  0
    2.5363    0.5907   -2.6455 C   0  0  0  1  0  0  0  0  0  0  0  0
    2.1526    0.6996   -3.8968 N   0  0  0  1  0  0  0  0  0  0  0  0
    1.2986   -0.1837   -4.4201 C   0  0  0  1  0  0  0  0  0  0  0  0
    0.8205   -1.2305   -3.6033 C   0  0  0  1  0  0  0  0  0  0  0  0
    1.2616   -1.2960   -2.2850 C   0  0  0  1  0  0  0  0  0  0  0  0
    0.7019   -0.3512   -5.6889 C   0  0  0  1  0  0  0  0  0  0  0  0
   -0.0689   -1.4009   -5.6537 N   0  0  0  1  0  0  0  0  0  0  0  0
   -0.0256   -1.9781   -4.3778 N   0  0  0  1  0  0  0  0  0  0  0  0
   -0.7779   -3.1328   -4.0822 C   0  0  0  1  0  0  0  0  0  0  0  0
   -2.1527   -3.1052   -3.9433 C   0  0  0  1  0  0  0  0  0  0  0  0
   -2.8438   -4.2722   -3.6574 C   0  0  0  1  0  0  0  0  0  0  0  0
   -2.1578   -5.4625   -3.5058 C   0  0  0  1  0  0  0  0  0  0  0  0
   -0.7788   -5.4900   -3.6451 C   0  0  0  1  0  0  0  0  0  0  0  0
   -0.0895   -4.3264   -3.9303 C   0  0  0  1  0  0  0  0  0  0  0  0
   -2.9372   -6.5332   -3.2231 O   0  0  0  1  0  0  0  0  0  0  0  0
   -2.3185   -7.8279   -3.2777 C   0  0  0  1  0  0  0  0  0  0  0  0
    3.3977    1.4989   -2.1526 N   0  0  0  1  0  0  0  0  0  0  0  0
    3.9809    2.6080   -2.9531 C   0  0  0  1  0  0  0  0  0  0  0  0
    4.1394    3.8750   -2.1126 C   0  0  0  1  0  0  0  0  0  0  0  0
    5.2108    4.6961   -2.8384 C   0  0  0  1  0  0  0  0  0  0  0  0
    6.0937    3.6671   -3.5557 C   0  0  0  1  0  0  0  0  0  0  0  0
    5.4273    2.3045   -3.3514 C   0  0  0  1  0  0  0  0  0  0  0  0
    4.5805    5.6218   -3.8250 N   0  0  0  1  0  0  0  0  0  0  0  0
    0.9318   -2.0527   -1.6523 H   0  0  0  1  0  0  0  0  0  0  0  0
    0.8528    0.2621   -6.5152 H   0  0  0  1  0  0  0  0  0  0  0  0
   -2.6686   -2.2089   -4.0534 H   0  0  0  1  0  0  0  0  0  0  0  0
   -3.8787   -4.2522   -3.5568 H   0  0  0  1  0  0  0  0  0  0  0  0
   -0.2629   -6.3863   -3.5351 H   0  0  0  1  0  0  0  0  0  0  0  0
    0.9454   -4.3464   -4.0308 H   0  0  0  1  0  0  0  0  0  0  0  0
   -1.8157   -7.9444   -4.2150 H   0  0  0  1  0  0  0  0  0  0  0  0
   -3.0678   -8.5855   -3.1786 H   0  0  0  1  0  0  0  0  0  0  0  0
   -1.6111   -7.9189   -2.4800 H   0  0  0  1  0  0  0  0  0  0  0  0
    3.6561    1.4252   -1.2102 H   0  0  0  1  0  0  0  0  0  0  0  0
    3.3706    2.7867   -3.8136 H   0  0  0  1  0  0  0  0  0  0  0  0
    3.2168    4.4153   -2.0680 H   0  0  0  1  0  0  0  0  0  0  0  0
    4.4589    3.6316   -1.1209 H   0  0  0  1  0  0  0  0  0  0  0  0
    5.7885    5.2612   -2.1370 H   0  0  0  1  0  0  0  0  0  0  0  0
    6.1546    3.8959   -4.5991 H   0  0  0  1  0  0  0  0  0  0  0  0
    7.0765    3.6647   -3.1326 H   0  0  0  1  0  0  0  0  0  0  0  0
    5.4535    1.7367   -4.2580 H   0  0  0  1  0  0  0  0  0  0  0  0
    5.9219    1.7599   -2.5744 H   0  0  0  1  0  0  0  0  0  0  0  0
    4.0571    6.3001   -3.3493 H   0  0  0  1  0  0  0  0  0  0  0  0
    3.9911    5.1128   -4.4199 H   0  0  0  1  0  0  0  0  0  0  0  0
  1  2  4  0  0  0  0
  1  6  4  0  0  0  0
  2  3  4  0  0  0  0
  2 18  1  0  0  0  0
  3  4  4  0  0  0  0
  4  5  4  0  0  0  0
  4  7  4  0  0  0  0
  5  6  4  0  0  0  0
  5  9  4  0  0  0  0
  6 25  1  0  0  0  0
  7  8  4  0  0  0  0
  7 26  1  0  0  0  0
  8  9  4  0  0  0  0
  9 10  1  0  0  0  0
 10 11  4  0  0  0  0
 10 15  4  0  0  0  0
 11 12  4  0  0  0  0
 11 27  1  0  0  0  0
 12 13  4  0  0  0  0
 12 28  1  0  0  0  0
 13 14  4  0  0  0  0
 13 16  1  0  0  0  0
 14 15  4  0  0  0  0
 14 29  1  0  0  0  0
 15 30  1  0  0  0  0
 16 17  1  0  0  0  0
 17 31  1  0  0  0  0
 17 32  1  0  0  0  0
 17 33  1  0  0  0  0
 18 19  1  0  0  0  0
 18 34  1  0  0  0  0
 19 20  1  0  0  0  0
 19 23  1  0  0  0  0
 19 35  1  0  0  0  0
 20 21  1  0  0  0  0
 20 36  1  0  0  0  0
 20 37  1  0  0  0  0
 21 22  1  0  0  0  0
 21 24  1  0  0  0  0
 21 38  1  0  0  0  0
 22 23  1  0  0  0  0
 22 39  1  0  0  0  0
 22 40  1  0  0  0  0
 23 41  1  0  0  0  0
 23 42  1  0  0  0  0
 24 43  1  0  0  0  0
 24 44  1  0  0  0  0
M  END
> <ConfClashScore>
0 

> <ConfOneFourInteractionScore>
-0.984337 

> <ConfScore>
-0.104873 

> <ConfScorePBest>
0.00491272 

> <ConfTolerance>
0.20665 

$$$$
c13.sdf
 OpenBabel04162418043D

 44 47  0  0  0  0  0  0  0  0999 V2000
    2.1079   -0.3773   -1.8532 N   0  0  0  1  0  0  0  0  0  0  0  0
    2.5363    0.5907   -2.6455 C   0  0  0  1  0  0  0  0  0  0  0  0
    2.1526    0.6997   -3.8968 N   0  0  0  1  0  0  0  0  0  0  0  0
    1.2986   -0.1837   -4.4201 C   0  0  0  1  0  0  0  0  0  0  0  0
    0.8204   -1.2304   -3.6033 C   0  0  0  1  0  0  0  0  0  0  0  0
    1.2615   -1.2959   -2.2849 C   0  0  0  1  0  0  0  0  0  0  0  0
    0.7020   -0.3513   -5.6890 C   0  0  0  1  0  0  0  0  0  0  0  0
   -0.0689   -1.4010   -5.6538 N   0  0  0  1  0  0  0  0  0  0  0  0
   -0.0256   -1.9781   -4.3778 N   0  0  0  1  0  0  0  0  0  0  0  0
   -0.6797   -3.2073   -4.1587 C   0  0  0  1  0  0  0  0  0  0  0  0
   -2.0512   -3.2415   -4.3254 C   0  0  0  1  0  0  0  0  0  0  0  0
   -2.7440   -4.4258   -4.1279 C   0  0  0  1  0  0  0  0  0  0  0  0
   -2.0639   -5.5711   -3.7590 C   0  0  0  1  0  0  0  0  0  0  0  0
   -0.6882   -5.5366   -3.5920 C   0  0  0  1  0  0  0  0  0  0  0  0
    0.0026   -4.3558   -3.7889 C   0  0  0  1  0  0  0  0  0  0  0  0
   -2.6795   -6.7547   -3.5463 O   0  0  0  1  0  0  0  0  0  0  0  0
   -1.8910   -7.9466   -3.4055 C   0  0  0  1  0  0  0  0  0  0  0  0
    3.4009    1.5329   -2.2120 N   0  0  0  1  0  0  0  0  0  0  0  0
    3.8077    1.6869   -0.8115 C   0  0  0  1  0  0  0  0  0  0  0  0
    5.0960    2.5016   -0.6944 C   0  0  0  1  0  0  0  0  0  0  0  0
    5.0879    3.0451    0.7386 C   0  0  0  1  0  0  0  0  0  0  0  0
    3.6067    3.1640    1.1190 C   0  0  0  1  0  0  0  0  0  0  0  0
    2.8106    2.5507   -0.0354 C   0  0  0  1  0  0  0  0  0  0  0  0
    5.7840    2.1097    1.6516 N   0  0  0  1  0  0  0  0  0  0  0  0
    0.9317   -2.0526   -1.6523 H   0  0  0  1  0  0  0  0  0  0  0  0
    0.8530    0.2620   -6.5152 H   0  0  0  1  0  0  0  0  0  0  0  0
   -2.5636   -2.3787   -4.5988 H   0  0  0  1  0  0  0  0  0  0  0  0
   -3.7755   -4.4525   -4.2571 H   0  0  0  1  0  0  0  0  0  0  0  0
   -0.1759   -6.3994   -3.3184 H   0  0  0  1  0  0  0  0  0  0  0  0
    1.0342   -4.3291   -3.6596 H   0  0  0  1  0  0  0  0  0  0  0  0
   -1.2736   -8.0708   -4.2705 H   0  0  0  1  0  0  0  0  0  0  0  0
   -2.5386   -8.7926   -3.3053 H   0  0  0  1  0  0  0  0  0  0  0  0
   -1.2734   -7.8647   -2.5356 H   0  0  0  1  0  0  0  0  0  0  0  0
    3.7791    2.1504   -2.8725 H   0  0  0  1  0  0  0  0  0  0  0  0
    3.9166    0.7216   -0.3630 H   0  0  0  1  0  0  0  0  0  0  0  0
    5.0994    3.3046   -1.4017 H   0  0  0  1  0  0  0  0  0  0  0  0
    5.9512    1.8792   -0.8564 H   0  0  0  1  0  0  0  0  0  0  0  0
    5.5629    4.0030    0.7786 H   0  0  0  1  0  0  0  0  0  0  0  0
    3.4140    2.6294    2.0256 H   0  0  0  1  0  0  0  0  0  0  0  0
    3.3394    4.1921    1.2469 H   0  0  0  1  0  0  0  0  0  0  0  0
    2.0100    1.9491    0.3415 H   0  0  0  1  0  0  0  0  0  0  0  0
    2.4137    3.3195   -0.6649 H   0  0  0  1  0  0  0  0  0  0  0  0
    5.2754    1.2744    1.7142 H   0  0  0  1  0  0  0  0  0  0  0  0
    5.8569    2.5151    2.5408 H   0  0  0  1  0  0  0  0  0  0  0  0
  1  2  4  0  0  0  0
  1  6  4  0  0  0  0
  2  3  4  0  0  0  0
  2 18  1  0  0  0  0
  3  4  4  0  0  0  0
  4  5  4  0  0  0  0
  4  7  4  0  0  0  0
  5  6  4  0  0  0  0
  5  9  4  0  0  0  0
  6 25  1  0  0  0  0
  7  8  4  0  0  0  0
  7 26  1  0  0  0  0
  8  9  4  0  0  0  0
  9 10  1  0  0  0  0
 10 11  4  0  0  0  0
 10 15  4  0  0  0  0
 11 12  4  0  0  0  0
 11 27  1  0  0  0  0
 12 13  4  0  0  0  0
 12 28  1  0  0  0  0
 13 14  4  0  0  0  0
 13 16  1  0  0  0  0
 14 15  4  0  0  0  0
 14 29  1  0  0  0  0
 15 30  1  0  0  0  0
 16 17  1  0  0  0  0
 17 31  1  0  0  0  0
 17 32  1  0  0  0  0
 17 33  1  0  0  0  0
 18 19  1  0  0  0  0
 18 34  1  0  0  0  0
 19 20  1  0  0  0  0
 19 23  1  0  0  0  0
 19 35  1  0  0  0  0
 20 21  1  0  0  0  0
 20 36  1  0  0  0  0
 20 37  1  0  0  0  0
 21 22  1  0  0  0  0
 21 24  1  0  0  0  0
 21 38  1  0  0  0  0
 22 23  1  0  0  0  0
 22 39  1  0  0  0  0
 22 40  1  0  0  0  0
 23 41  1  0  0  0  0
 23 42  1  0  0  0  0
 24 43  1  0  0  0  0
 24 44  1  0  0  0  0
M  END
> <ConfClashScore>
0 

> <ConfOneFourInteractionScore>
-0.984337 

> <ConfScore>
-0.101871 

> <ConfScorePBest>
0.00489939 

> <ConfTolerance>
0.285531 

$$$$
c13.sdf
 OpenBabel04162418043D

 44 47  0  0  0  0  0  0  0  0999 V2000
    2.1078   -0.3773   -1.8532 N   0  0  0  1  0  0  0  0  0  0  0  0
    2.5364    0.5907   -2.6455 C   0  0  0  1  0  0  0  0  0  0  0  0
    2.1526    0.6996   -3.8969 N   0  0  0  1  0  0  0  0  0  0  0  0
    1.2985   -0.1837   -4.4201 C   0  0  0  1  0  0  0  0  0  0  0  0
    0.8204   -1.2305   -3.6033 C   0  0  0  1  0  0  0  0  0  0  0  0
    1.2615   -1.2960   -2.2850 C   0  0  0  1  0  0  0  0  0  0  0  0
    0.7019   -0.3514   -5.6890 C   0  0  0  1  0  0  0  0  0  0  0  0
   -0.0689   -1.4010   -5.6538 N   0  0  0  1  0  0  0  0  0  0  0  0
   -0.0256   -1.9781   -4.3778 N   0  0  0  1  0  0  0  0  0  0  0  0
   -0.8021   -3.1445   -4.1240 C   0  0  0  1  0  0  0  0  0  0  0  0
   -0.8757   -3.6606   -2.8440 C   0  0  0  1  0  0  0  0  0  0  0  0
   -1.6360   -4.7929   -2.5960 C   0  0  0  1  0  0  0  0  0  0  0  0
   -2.3161   -5.4089   -3.6297 C   0  0  0  1  0  0  0  0  0  0  0  0
   -2.2422   -4.8911   -4.9134 C   0  0  0  1  0  0  0  0  0  0  0  0
   -1.4842   -3.7622   -5.1609 C   0  0  0  1  0  0  0  0  0  0  0  0
   -3.0546   -6.5180   -3.3883 O   0  0  0  1  0  0  0  0  0  0  0  0
   -3.3341   -6.8343   -2.0156 C   0  0  0  1  0  0  0  0  0  0  0  0
    3.4041    1.4827   -2.1026 N   0  0  0  1  0  0  0  0  0  0  0  0
    3.9203    1.3894   -0.7440 C   0  0  0  1  0  0  0  0  0  0  0  0
    5.2351    2.1689   -0.6145 C   0  0  0  1  0  0  0  0  0  0  0  0
    5.0436    3.1557    0.5396 C   0  0  0  1  0  0  0  0  0  0  0  0
    3.8520    2.6270    1.3416 C   0  0  0  1  0  0  0  0  0  0  0  0
    2.9555    2.0549    0.2433 C   0  0  0  1  0  0  0  0  0  0  0  0
    6.2690    3.2015    1.3952 N   0  0  0  1  0  0  0  0  0  0  0  0
    0.9316   -2.0526   -1.6522 H   0  0  0  1  0  0  0  0  0  0  0  0
    0.8530    0.2620   -6.5153 H   0  0  0  1  0  0  0  0  0  0  0  0
   -0.3609   -3.1995   -2.0670 H   0  0  0  1  0  0  0  0  0  0  0  0
   -1.6947   -5.1789   -1.6321 H   0  0  0  1  0  0  0  0  0  0  0  0
   -2.7571   -5.3522   -5.6905 H   0  0  0  1  0  0  0  0  0  0  0  0
   -1.4254   -3.3761   -6.1248 H   0  0  0  1  0  0  0  0  0  0  0  0
   -4.0503   -7.6281   -1.9706 H   0  0  0  1  0  0  0  0  0  0  0  0
   -3.7290   -5.9698   -1.5239 H   0  0  0  1  0  0  0  0  0  0  0  0
   -2.4316   -7.1407   -1.5295 H   0  0  0  1  0  0  0  0  0  0  0  0
    3.7007    2.2338   -2.6578 H   0  0  0  1  0  0  0  0  0  0  0  0
    4.0678    0.3610   -0.4880 H   0  0  0  1  0  0  0  0  0  0  0  0
    6.0415    1.4998   -0.3986 H   0  0  0  1  0  0  0  0  0  0  0  0
    5.4423    2.6971   -1.5217 H   0  0  0  1  0  0  0  0  0  0  0  0
    4.8346    4.1350    0.1624 H   0  0  0  1  0  0  0  0  0  0  0  0
    3.3607    3.4155    1.8724 H   0  0  0  1  0  0  0  0  0  0  0  0
    4.1546    1.8668    2.0310 H   0  0  0  1  0  0  0  0  0  0  0  0
    2.2758    1.3350    0.6490 H   0  0  0  1  0  0  0  0  0  0  0  0
    2.4039    2.8358   -0.2373 H   0  0  0  1  0  0  0  0  0  0  0  0
    6.4857    2.2972    1.7048 H   0  0  0  1  0  0  0  0  0  0  0  0
    6.1058    3.7809    2.1685 H   0  0  0  1  0  0  0  0  0  0  0  0
  1  2  4  0  0  0  0
  1  6  4  0  0  0  0
  2  3  4  0  0  0  0
  2 18  1  0  0  0  0
  3  4  4  0  0  0  0
  4  5  4  0  0  0  0
  4  7  4  0  0  0  0
  5  6  4  0  0  0  0
  5  9  4  0  0  0  0
  6 25  1  0  0  0  0
  7  8  4  0  0  0  0
  7 26  1  0  0  0  0
  8  9  4  0  0  0  0
  9 10  1  0  0  0  0
 10 11  4  0  0  0  0
 10 15  4  0  0  0  0
 11 12  4  0  0  0  0
 11 27  1  0  0  0  0
 12 13  4  0  0  0  0
 12 28  1  0  0  0  0
 13 14  4  0  0  0  0
 13 16  1  0  0  0  0
 14 15  4  0  0  0  0
 14 29  1  0  0  0  0
 15 30  1  0  0  0  0
 16 17  1  0  0  0  0
 17 31  1  0  0  0  0
 17 32  1  0  0  0  0
 17 33  1  0  0  0  0
 18 19  1  0  0  0  0
 18 34  1  0  0  0  0
 19 20  1  0  0  0  0
 19 23  1  0  0  0  0
 19 35  1  0  0  0  0
 20 21  1  0  0  0  0
 20 36  1  0  0  0  0
 20 37  1  0  0  0  0
 21 22  1  0  0  0  0
 21 24  1  0  0  0  0
 21 38  1  0  0  0  0
 22 23  1  0  0  0  0
 22 39  1  0  0  0  0
 22 40  1  0  0  0  0
 23 41  1  0  0  0  0
 23 42  1  0  0  0  0
 24 43  1  0  0  0  0
 24 44  1  0  0  0  0
M  END
> <ConfClashScore>
0 

> <ConfOneFourInteractionScore>
-0.984337 

> <ConfScore>
-0.100184 

> <ConfScorePBest>
0.00488607 

> <ConfTolerance>
0.315412 

$$$$
c13.sdf
 OpenBabel04162418043D

 44 47  0  0  0  0  0  0  0  0999 V2000
    2.1080   -0.3774   -1.8532 N   0  0  0  1  0  0  0  0  0  0  0  0
    2.5363    0.5907   -2.6455 C   0  0  0  1  0  0  0  0  0  0  0  0
    2.1525    0.6996   -3.8968 N   0  0  0  1  0  0  0  0  0  0  0  0
    1.2985   -0.1837   -4.4201 C   0  0  0  1  0  0  0  0  0  0  0  0
    0.8204   -1.2304   -3.6033 C   0  0  0  1  0  0  0  0  0  0  0  0
    1.2615   -1.2960   -2.2849 C   0  0  0  1  0  0  0  0  0  0  0  0
    0.7019   -0.3512   -5.6890 C   0  0  0  1  0  0  0  0  0  0  0  0
   -0.0690   -1.4010   -5.6537 N   0  0  0  1  0  0  0  0  0  0  0  0
   -0.0256   -1.9781   -4.3778 N   0  0  0  1  0  0  0  0  0  0  0  0
   -0.8215   -3.1735   -4.1177 C   0  0  0  1  0  0  0  0  0  0  0  0
   -0.9216   -3.7367   -2.8596 C   0  0  0  1  0  0  0  0  0  0  0  0
   -1.6962   -4.8701   -2.6675 C   0  0  0  1  0  0  0  0  0  0  0  0
   -2.3640   -5.4400   -3.7351 C   0  0  0  1  0  0  0  0  0  0  0  0
   -2.2634   -4.8749   -4.9968 C   0  0  0  1  0  0  0  0  0  0  0  0
   -1.4911   -3.7448   -5.1885 C   0  0  0  1  0  0  0  0  0  0  0  0
   -3.1410   -6.5433   -3.6707 O   0  0  0  1  0  0  0  0  0  0  0  0
   -3.3999   -7.1524   -2.3962 C   0  0  0  1  0  0  0  0  0  0  0  0
    3.3977    1.4989   -2.1527 N   0  0  0  1  0  0  0  0  0  0  0  0
    3.9754    2.5873   -2.9416 C   0  0  0  1  0  0  0  0  0  0  0  0
    4.4474    3.7418   -2.0004 C   0  0  0  1  0  0  0  0  0  0  0  0
    5.9299    3.3056   -1.6992 C   0  0  0  1  0  0  0  0  0  0  0  0
    6.4006    2.8078   -3.0589 C   0  0  0  1  0  0  0  0  0  0  0  0
    5.2141    2.0936   -3.6919 C   0  0  0  1  0  0  0  0  0  0  0  0
    6.7571    4.4721   -1.2288 N   0  0  0  1  0  0  0  0  0  0  0  0
    0.9318   -2.0527   -1.6522 H   0  0  0  1  0  0  0  0  0  0  0  0
    0.8529    0.2621   -6.5152 H   0  0  0  1  0  0  0  0  0  0  0  0
   -0.4159   -3.3103   -2.0571 H   0  0  0  1  0  0  0  0  0  0  0  0
   -1.7748   -5.2917   -1.7201 H   0  0  0  1  0  0  0  0  0  0  0  0
   -2.7691   -5.3013   -5.7993 H   0  0  0  1  0  0  0  0  0  0  0  0
   -1.4124   -3.3232   -6.1359 H   0  0  0  1  0  0  0  0  0  0  0  0
   -3.7530   -6.4104   -1.7108 H   0  0  0  1  0  0  0  0  0  0  0  0
   -2.4976   -7.5860   -2.0185 H   0  0  0  1  0  0  0  0  0  0  0  0
   -4.1422   -7.9146   -2.5097 H   0  0  0  1  0  0  0  0  0  0  0  0
    3.6535    1.4272   -1.2093 H   0  0  0  1  0  0  0  0  0  0  0  0
    3.2462    2.9520   -3.6346 H   0  0  0  1  0  0  0  0  0  0  0  0
    3.8615    3.7824   -1.1059 H   0  0  0  1  0  0  0  0  0  0  0  0
    4.4108    4.6900   -2.4948 H   0  0  0  1  0  0  0  0  0  0  0  0
    5.9638    2.5257   -0.9674 H   0  0  0  1  0  0  0  0  0  0  0  0
    6.7044    3.6323   -3.6695 H   0  0  0  1  0  0  0  0  0  0  0  0
    7.2200    2.1298   -2.9409 H   0  0  0  1  0  0  0  0  0  0  0  0
    5.3169    1.0341   -3.5832 H   0  0  0  1  0  0  0  0  0  0  0  0
    5.1426    2.3408   -4.7306 H   0  0  0  1  0  0  0  0  0  0  0  0
    6.7804    5.1593   -1.9271 H   0  0  0  1  0  0  0  0  0  0  0  0
    7.6695    4.1695   -1.0381 H   0  0  0  1  0  0  0  0  0  0  0  0
  1  2  4  0  0  0  0
  1  6  4  0  0  0  0
  2  3  4  0  0  0  0
  2 18  1  0  0  0  0
  3  4  4  0  0  0  0
  4  5  4  0  0  0  0
  4  7  4  0  0  0  0
  5  6  4  0  0  0  0
  5  9  4  0  0  0  0
  6 25  1  0  0  0  0
  7  8  4  0  0  0  0
  7 26  1  0  0  0  0
  8  9  4  0  0  0  0
  9 10  1  0  0  0  0
 10 11  4  0  0  0  0
 10 15  4  0  0  0  0
 11 12  4  0  0  0  0
 11 27  1  0  0  0  0
 12 13  4  0  0  0  0
 12 28  1  0  0  0  0
 13 14  4  0  0  0  0
 13 16  1  0  0  0  0
 14 15  4  0  0  0  0
 14 29  1  0  0  0  0
 15 30  1  0  0  0  0
 16 17  1  0  0  0  0
 17 31  1  0  0  0  0
 17 32  1  0  0  0  0
 17 33  1  0  0  0  0
 18 19  1  0  0  0  0
 18 34  1  0  0  0  0
 19 20  1  0  0  0  0
 19 23  1  0  0  0  0
 19 35  1  0  0  0  0
 20 21  1  0  0  0  0
 20 36  1  0  0  0  0
 20 37  1  0  0  0  0
 21 22  1  0  0  0  0
 21 24  1  0  0  0  0
 21 38  1  0  0  0  0
 22 23  1  0  0  0  0
 22 39  1  0  0  0  0
 22 40  1  0  0  0  0
 23 41  1  0  0  0  0
 23 42  1  0  0  0  0
 24 43  1  0  0  0  0
 24 44  1  0  0  0  0
M  END
> <ConfClashScore>
0 

> <ConfOneFourInteractionScore>
-0.984337 

> <ConfScore>
-0.100184 

> <ConfScorePBest>
0.00487274 

> <ConfTolerance>
0.256908 

$$$$
c13.sdf
 OpenBabel04162418043D

 44 47  0  0  0  0  0  0  0  0999 V2000
    2.1080   -0.3774   -1.8533 N   0  0  0  1  0  0  0  0  0  0  0  0
    2.5363    0.5907   -2.6455 C   0  0  0  1  0  0  0  0  0  0  0  0
    2.1525    0.6996   -3.8968 N   0  0  0  1  0  0  0  0  0  0  0  0
    1.2986   -0.1837   -4.4201 C   0  0  0  1  0  0  0  0  0  0  0  0
    0.8205   -1.2304   -3.6034 C   0  0  0  1  0  0  0  0  0  0  0  0
    1.2616   -1.2960   -2.2849 C   0  0  0  1  0  0  0  0  0  0  0  0
    0.7018   -0.3513   -5.6890 C   0  0  0  1  0  0  0  0  0  0  0  0
   -0.0690   -1.4010   -5.6537 N   0  0  0  1  0  0  0  0  0  0  0  0
   -0.0256   -1.9781   -4.3778 N   0  0  0  1  0  0  0  0  0  0  0  0
   -0.9015   -3.0387   -4.0696 C   0  0  0  1  0  0  0  0  0  0  0  0
   -1.8229   -2.9630   -3.0423 C   0  0  0  1  0  0  0  0  0  0  0  0
   -2.6642   -4.0343   -2.7857 C   0  0  0  1  0  0  0  0  0  0  0  0
   -2.5780   -5.1803   -3.5536 C   0  0  0  1  0  0  0  0  0  0  0  0
   -1.6536   -5.2561   -4.5839 C   0  0  0  1  0  0  0  0  0  0  0  0
   -0.8147   -4.1879   -4.8399 C   0  0  0  1  0  0  0  0  0  0  0  0
   -3.3239   -6.2583   -3.2432 O   0  0  0  1  0  0  0  0  0  0  0  0
   -3.1925   -7.3760   -4.1521 C   0  0  0  1  0  0  0  0  0  0  0  0
    3.3977    1.4989   -2.1527 N   0  0  0  1  0  0  0  0  0  0  0  0
    3.9196    1.4708   -0.7839 C   0  0  0  1  0  0  0  0  0  0  0  0
    5.3347    0.8864   -0.7565 C   0  0  0  1  0  0  0  0  0  0  0  0
    6.0782    1.6665    0.3360 C   0  0  0  1  0  0  0  0  0  0  0  0
    5.0783    2.6865    0.8907 C   0  0  0  1  0  0  0  0  0  0  0  0
    4.0801    2.8934   -0.2365 C   0  0  0  1  0  0  0  0  0  0  0  0
    6.5274    0.7394    1.4197 N   0  0  0  1  0  0  0  0  0  0  0  0
    0.9318   -2.0527   -1.6522 H   0  0  0  1  0  0  0  0  0  0  0  0
    0.8527    0.2621   -6.5151 H   0  0  0  1  0  0  0  0  0  0  0  0
   -1.8851   -2.1022   -2.4619 H   0  0  0  1  0  0  0  0  0  0  0  0
   -3.3604   -3.9759   -2.0153 H   0  0  0  1  0  0  0  0  0  0  0  0
   -1.5914   -6.1168   -5.1644 H   0  0  0  1  0  0  0  0  0  0  0  0
   -0.1185   -4.2462   -5.6102 H   0  0  0  1  0  0  0  0  0  0  0  0
   -2.2423   -7.8455   -4.0057 H   0  0  0  1  0  0  0  0  0  0  0  0
   -3.2655   -7.0258   -5.1606 H   0  0  0  1  0  0  0  0  0  0  0  0
   -3.9725   -8.0833   -3.9624 H   0  0  0  1  0  0  0  0  0  0  0  0
    3.6935    2.2221   -2.7441 H   0  0  0  1  0  0  0  0  0  0  0  0
    3.2624    0.8989   -0.1627 H   0  0  0  1  0  0  0  0  0  0  0  0
    5.8133    1.0212   -1.7038 H   0  0  0  1  0  0  0  0  0  0  0  0
    5.3042   -0.1560   -0.5167 H   0  0  0  1  0  0  0  0  0  0  0  0
    6.9272    2.1681   -0.0795 H   0  0  0  1  0  0  0  0  0  0  0  0
    5.5705    3.6052    1.1331 H   0  0  0  1  0  0  0  0  0  0  0  0
    4.5903    2.3023    1.7620 H   0  0  0  1  0  0  0  0  0  0  0  0
    3.1511    3.2753    0.1320 H   0  0  0  1  0  0  0  0  0  0  0  0
    4.4678    3.5554   -0.9825 H   0  0  0  1  0  0  0  0  0  0  0  0
    6.8915    1.2602    2.1658 H   0  0  0  1  0  0  0  0  0  0  0  0
    7.2202    0.1406    1.0708 H   0  0  0  1  0  0  0  0  0  0  0  0
  1  2  4  0  0  0  0
  1  6  4  0  0  0  0
  2  3  4  0  0  0  0
  2 18  1  0  0  0  0
  3  4  4  0  0  0  0
  4  5  4  0  0  0  0
  4  7  4  0  0  0  0
  5  6  4  0  0  0  0
  5  9  4  0  0  0  0
  6 25  1  0  0  0  0
  7  8  4  0  0  0  0
  7 26  1  0  0  0  0
  8  9  4  0  0  0  0
  9 10  1  0  0  0  0
 10 11  4  0  0  0  0
 10 15  4  0  0  0  0
 11 12  4  0  0  0  0
 11 27  1  0  0  0  0
 12 13  4  0  0  0  0
 12 28  1  0  0  0  0
 13 14  4  0  0  0  0
 13 16  1  0  0  0  0
 14 15  4  0  0  0  0
 14 29  1  0  0  0  0
 15 30  1  0  0  0  0
 16 17  1  0  0  0  0
 17 31  1  0  0  0  0
 17 32  1  0  0  0  0
 17 33  1  0  0  0  0
 18 19  1  0  0  0  0
 18 34  1  0  0  0  0
 19 20  1  0  0  0  0
 19 23  1  0  0  0  0
 19 35  1  0  0  0  0
 20 21  1  0  0  0  0
 20 36  1  0  0  0  0
 20 37  1  0  0  0  0
 21 22  1  0  0  0  0
 21 24  1  0  0  0  0
 21 38  1  0  0  0  0
 22 23  1  0  0  0  0
 22 39  1  0  0  0  0
 22 40  1  0  0  0  0
 23 41  1  0  0  0  0
 23 42  1  0  0  0  0
 24 43  1  0  0  0  0
 24 44  1  0  0  0  0
M  END
> <ConfClashScore>
0 

> <ConfOneFourInteractionScore>
-0.984337 

> <ConfScore>
-0.0977162 

> <ConfScorePBest>
0.00485941 

> <ConfTolerance>
0.241262 

$$$$
c13.sdf
 OpenBabel04162418043D

 44 47  0  0  0  0  0  0  0  0999 V2000
    2.1080   -0.3773   -1.8532 N   0  0  0  1  0  0  0  0  0  0  0  0
    2.5364    0.5907   -2.6455 C   0  0  0  1  0  0  0  0  0  0  0  0
    2.1525    0.6997   -3.8968 N   0  0  0  1  0  0  0  0  0  0  0  0
    1.2985   -0.1838   -4.4201 C   0  0  0  1  0  0  0  0  0  0  0  0
    0.8205   -1.2305   -3.6033 C   0  0  0  1  0  0  0  0  0  0  0  0
    1.2616   -1.2960   -2.2850 C   0  0  0  1  0  0  0  0  0  0  0  0
    0.7019   -0.3513   -5.6890 C   0  0  0  1  0  0  0  0  0  0  0  0
   -0.0689   -1.4010   -5.6538 N   0  0  0  1  0  0  0  0  0  0  0  0
   -0.0256   -1.9781   -4.3778 N   0  0  0  1  0  0  0  0  0  0  0  0
   -0.7743   -3.1273   -4.0836 C   0  0  0  1  0  0  0  0  0  0  0  0
   -0.4932   -4.2337   -4.8627 C   0  0  0  1  0  0  0  0  0  0  0  0
   -1.1739   -5.4223   -4.6495 C   0  0  0  1  0  0  0  0  0  0  0  0
   -2.1373   -5.4995   -3.6615 C   0  0  0  1  0  0  0  0  0  0  0  0
   -2.4191   -4.3896   -2.8801 C   0  0  0  1  0  0  0  0  0  0  0  0
   -1.7404   -3.2045   -3.0926 C   0  0  0  1  0  0  0  0  0  0  0  0
   -2.7380   -6.7080   -3.5499 O   0  0  0  1  0  0  0  0  0  0  0  0
   -3.7541   -6.8473   -2.5375 C   0  0  0  1  0  0  0  0  0  0  0  0
    3.4098    1.5118   -2.1457 N   0  0  0  1  0  0  0  0  0  0  0  0
    3.9685    2.5779   -2.9835 C   0  0  0  1  0  0  0  0  0  0  0  0
    4.3021    3.8118   -2.1384 C   0  0  0  1  0  0  0  0  0  0  0  0
    5.7876    3.6928   -1.7721 C   0  0  0  1  0  0  0  0  0  0  0  0
    6.2598    2.3803   -2.4041 C   0  0  0  1  0  0  0  0  0  0  0  0
    5.3009    2.1514   -3.5774 C   0  0  0  1  0  0  0  0  0  0  0  0
    6.5574    4.8475   -2.3287 N   0  0  0  1  0  0  0  0  0  0  0  0
    0.9318   -2.0527   -1.6522 H   0  0  0  1  0  0  0  0  0  0  0  0
    0.8529    0.2621   -6.5152 H   0  0  0  1  0  0  0  0  0  0  0  0
    0.2289   -4.1746   -5.6088 H   0  0  0  1  0  0  0  0  0  0  0  0
   -0.9596   -6.2561   -5.2331 H   0  0  0  1  0  0  0  0  0  0  0  0
   -3.1411   -4.4488   -2.1340 H   0  0  0  1  0  0  0  0  0  0  0  0
   -1.9546   -2.3707   -2.5091 H   0  0  0  1  0  0  0  0  0  0  0  0
   -3.9724   -7.8844   -2.3909 H   0  0  0  1  0  0  0  0  0  0  0  0
   -4.6411   -6.3370   -2.8503 H   0  0  0  1  0  0  0  0  0  0  0  0
   -3.4032   -6.4236   -1.6197 H   0  0  0  1  0  0  0  0  0  0  0  0
    3.6706    1.4596   -1.2025 H   0  0  0  1  0  0  0  0  0  0  0  0
    3.2721    2.8264   -3.7568 H   0  0  0  1  0  0  0  0  0  0  0  0
    3.7023    3.8276   -1.2526 H   0  0  0  1  0  0  0  0  0  0  0  0
    4.1300    4.7047   -2.7023 H   0  0  0  1  0  0  0  0  0  0  0  0
    5.9095    3.6612   -0.7095 H   0  0  0  1  0  0  0  0  0  0  0  0
    7.2678    2.4694   -2.7516 H   0  0  0  1  0  0  0  0  0  0  0  0
    6.1943    1.5770   -1.7003 H   0  0  0  1  0  0  0  0  0  0  0  0
    5.2842    1.1226   -3.8709 H   0  0  0  1  0  0  0  0  0  0  0  0
    5.5637    2.7585   -4.4184 H   0  0  0  1  0  0  0  0  0  0  0  0
    7.5040    4.7536   -2.0933 H   0  0  0  1  0  0  0  0  0  0  0  0
    6.2089    5.6832   -1.9538 H   0  0  0  1  0  0  0  0  0  0  0  0
  1  2  4  0  0  0  0
  1  6  4  0  0  0  0
  2  3  4  0  0  0  0
  2 18  1  0  0  0  0
  3  4  4  0  0  0  0
  4  5  4  0  0  0  0
  4  7  4  0  0  0  0
  5  6  4  0  0  0  0
  5  9  4  0  0  0  0
  6 25  1  0  0  0  0
  7  8  4  0  0  0  0
  7 26  1  0  0  0  0
  8  9  4  0  0  0  0
  9 10  1  0  0  0  0
 10 11  4  0  0  0  0
 10 15  4  0  0  0  0
 11 12  4  0  0  0  0
 11 27  1  0  0  0  0
 12 13  4  0  0  0  0
 12 28  1  0  0  0  0
 13 14  4  0  0  0  0
 13 16  1  0  0  0  0
 14 15  4  0  0  0  0
 14 29  1  0  0  0  0
 15 30  1  0  0  0  0
 16 17  1  0  0  0  0
 17 31  1  0  0  0  0
 17 32  1  0  0  0  0
 17 33  1  0  0  0  0
 18 19  1  0  0  0  0
 18 34  1  0  0  0  0
 19 20  1  0  0  0  0
 19 23  1  0  0  0  0
 19 35  1  0  0  0  0
 20 21  1  0  0  0  0
 20 36  1  0  0  0  0
 20 37  1  0  0  0  0
 21 22  1  0  0  0  0
 21 24  1  0  0  0  0
 21 38  1  0  0  0  0
 22 23  1  0  0  0  0
 22 39  1  0  0  0  0
 22 40  1  0  0  0  0
 23 41  1  0  0  0  0
 23 42  1  0  0  0  0
 24 43  1  0  0  0  0
 24 44  1  0  0  0  0
M  END
> <ConfClashScore>
0 

> <ConfOneFourInteractionScore>
-0.984337 

> <ConfScore>
-0.097258 

> <ConfScorePBest>
0.00484608 

> <ConfTolerance>
0.399782 

$$$$
c13.sdf
 OpenBabel04162418043D

 44 47  0  0  0  0  0  0  0  0999 V2000
    2.1079   -0.3773   -1.8532 N   0  0  0  1  0  0  0  0  0  0  0  0
    2.5363    0.5907   -2.6455 C   0  0  0  1  0  0  0  0  0  0  0  0
    2.1525    0.6996   -3.8968 N   0  0  0  1  0  0  0  0  0  0  0  0
    1.2986   -0.1837   -4.4201 C   0  0  0  1  0  0  0  0  0  0  0  0
    0.8205   -1.2305   -3.6033 C   0  0  0  1  0  0  0  0  0  0  0  0
    1.2615   -1.2960   -2.2850 C   0  0  0  1  0  0  0  0  0  0  0  0
    0.7020   -0.3513   -5.6890 C   0  0  0  1  0  0  0  0  0  0  0  0
   -0.0689   -1.4011   -5.6538 N   0  0  0  1  0  0  0  0  0  0  0  0
   -0.0256   -1.9781   -4.3778 N   0  0  0  1  0  0  0  0  0  0  0  0
   -0.7857   -3.1448   -4.0792 C   0  0  0  1  0  0  0  0  0  0  0  0
   -1.8328   -3.5164   -4.9011 C   0  0  0  1  0  0  0  0  0  0  0  0
   -2.5691   -4.6550   -4.6133 C   0  0  0  1  0  0  0  0  0  0  0  0
   -2.2599   -5.4156   -3.5015 C   0  0  0  1  0  0  0  0  0  0  0  0
   -1.2096   -5.0427   -2.6772 C   0  0  0  1  0  0  0  0  0  0  0  0
   -0.4752   -3.9074   -2.9640 C   0  0  0  1  0  0  0  0  0  0  0  0
   -2.9827   -6.5250   -3.2175 O   0  0  0  1  0  0  0  0  0  0  0  0
   -3.8919   -6.9918   -4.2264 C   0  0  0  1  0  0  0  0  0  0  0  0
    3.3976    1.4989   -2.1527 N   0  0  0  1  0  0  0  0  0  0  0  0
    3.8092    1.5571   -0.7427 C   0  0  0  1  0  0  0  0  0  0  0  0
    4.8978    0.5275   -0.4396 C   0  0  0  1  0  0  0  0  0  0  0  0
    5.5970    1.0540    0.8185 C   0  0  0  1  0  0  0  0  0  0  0  0
    5.4294    2.5779    0.7679 C   0  0  0  1  0  0  0  0  0  0  0  0
    4.5182    2.8760   -0.4251 C   0  0  0  1  0  0  0  0  0  0  0  0
    4.9465    0.4921    2.0584 N   0  0  0  1  0  0  0  0  0  0  0  0
    0.9316   -2.0526   -1.6522 H   0  0  0  1  0  0  0  0  0  0  0  0
    0.8529    0.2619   -6.5152 H   0  0  0  1  0  0  0  0  0  0  0  0
   -2.0681   -2.9419   -5.7354 H   0  0  0  1  0  0  0  0  0  0  0  0
   -3.3546   -4.9369   -5.2340 H   0  0  0  1  0  0  0  0  0  0  0  0
   -0.9741   -5.6172   -1.8428 H   0  0  0  1  0  0  0  0  0  0  0  0
    0.3102   -3.6255   -2.3434 H   0  0  0  1  0  0  0  0  0  0  0  0
   -4.4099   -7.8567   -3.8678 H   0  0  0  1  0  0  0  0  0  0  0  0
   -3.3444   -7.2452   -5.1100 H   0  0  0  1  0  0  0  0  0  0  0  0
   -4.5990   -6.2214   -4.4530 H   0  0  0  1  0  0  0  0  0  0  0  0
    3.7729    2.1610   -2.7701 H   0  0  0  1  0  0  0  0  0  0  0  0
    2.9545    1.4147   -0.1150 H   0  0  0  1  0  0  0  0  0  0  0  0
    4.4660   -0.4342   -0.2561 H   0  0  0  1  0  0  0  0  0  0  0  0
    5.5888    0.4592   -1.2538 H   0  0  0  1  0  0  0  0  0  0  0  0
    6.6340    0.7908    0.8085 H   0  0  0  1  0  0  0  0  0  0  0  0
    6.3802    3.0499    0.6335 H   0  0  0  1  0  0  0  0  0  0  0  0
    4.9804    2.9304    1.6729 H   0  0  0  1  0  0  0  0  0  0  0  0
    3.8044    3.6312   -0.1699 H   0  0  0  1  0  0  0  0  0  0  0  0
    5.0967    3.2004   -1.2647 H   0  0  0  1  0  0  0  0  0  0  0  0
    5.0479   -0.4826    2.0679 H   0  0  0  1  0  0  0  0  0  0  0  0
    3.9937    0.7211    2.0596 H   0  0  0  1  0  0  0  0  0  0  0  0
  1  2  4  0  0  0  0
  1  6  4  0  0  0  0
  2  3  4  0  0  0  0
  2 18  1  0  0  0  0
  3  4  4  0  0  0  0
  4  5  4  0  0  0  0
  4  7  4  0  0  0  0
  5  6  4  0  0  0  0
  5  9  4  0  0  0  0
  6 25  1  0  0  0  0
  7  8  4  0  0  0  0
  7 26  1  0  0  0  0
  8  9  4  0  0  0  0
  9 10  1  0  0  0  0
 10 11  4  0  0  0  0
 10 15  4  0  0  0  0
 11 12  4  0  0  0  0
 11 27  1  0  0  0  0
 12 13  4  0  0  0  0
 12 28  1  0  0  0  0
 13 14  4  0  0  0  0
 13 16  1  0  0  0  0
 14 15  4  0  0  0  0
 14 29  1  0  0  0  0
 15 30  1  0  0  0  0
 16 17  1  0  0  0  0
 17 31  1  0  0  0  0
 17 32  1  0  0  0  0
 17 33  1  0  0  0  0
 18 19  1  0  0  0  0
 18 34  1  0  0  0  0
 19 20  1  0  0  0  0
 19 23  1  0  0  0  0
 19 35  1  0  0  0  0
 20 21  1  0  0  0  0
 20 36  1  0  0  0  0
 20 37  1  0  0  0  0
 21 22  1  0  0  0  0
 21 24  1  0  0  0  0
 21 38  1  0  0  0  0
 22 23  1  0  0  0  0
 22 39  1  0  0  0  0
 22 40  1  0  0  0  0
 23 41  1  0  0  0  0
 23 42  1  0  0  0  0
 24 43  1  0  0  0  0
 24 44  1  0  0  0  0
M  END
> <ConfClashScore>
0 

> <ConfOneFourInteractionScore>
-0.984337 

> <ConfScore>
-0.0962907 

> <ConfScorePBest>
0.00483275 

> <ConfTolerance>
0.233511 

$$$$
c13.sdf
 OpenBabel04162418043D

 44 47  0  0  0  0  0  0  0  0999 V2000
    2.1079   -0.3773   -1.8532 N   0  0  0  1  0  0  0  0  0  0  0  0
    2.5363    0.5907   -2.6455 C   0  0  0  1  0  0  0  0  0  0  0  0
    2.1526    0.6996   -3.8967 N   0  0  0  1  0  0  0  0  0  0  0  0
    1.2985   -0.1837   -4.4201 C   0  0  0  1  0  0  0  0  0  0  0  0
    0.8204   -1.2304   -3.6033 C   0  0  0  1  0  0  0  0  0  0  0  0
    1.2614   -1.2960   -2.2849 C   0  0  0  1  0  0  0  0  0  0  0  0
    0.7019   -0.3513   -5.6889 C   0  0  0  1  0  0  0  0  0  0  0  0
   -0.0689   -1.4010   -5.6537 N   0  0  0  1  0  0  0  0  0  0  0  0
   -0.0256   -1.9781   -4.3778 N   0  0  0  1  0  0  0  0  0  0  0  0
   -0.7853   -3.1440   -4.0793 C   0  0  0  1  0  0  0  0  0  0  0  0
   -2.0058   -3.3496   -4.6944 C   0  0  0  1  0  0  0  0  0  0  0  0
   -2.7431   -4.4878   -4.4076 C   0  0  0  1  0  0  0  0  0  0  0  0
   -2.2604   -5.4145   -3.5028 C   0  0  0  1  0  0  0  0  0  0  0  0
   -1.0363   -5.2080   -2.8860 C   0  0  0  1  0  0  0  0  0  0  0  0
   -0.3009   -4.0731   -3.1717 C   0  0  0  1  0  0  0  0  0  0  0  0
   -2.9016   -6.5844   -3.2708 O   0  0  0  1  0  0  0  0  0  0  0  0
   -4.0670   -6.8623   -4.0628 C   0  0  0  1  0  0  0  0  0  0  0  0
    3.3976    1.4989   -2.1526 N   0  0  0  1  0  0  0  0  0  0  0  0
    3.9119    2.6373   -2.9190 C   0  0  0  1  0  0  0  0  0  0  0  0
    3.2090    3.9358   -2.5229 C   0  0  0  1  0  0  0  0  0  0  0  0
    4.1750    5.0490   -2.9429 C   0  0  0  1  0  0  0  0  0  0  0  0
    5.5731    4.4224   -2.8684 C   0  0  0  1  0  0  0  0  0  0  0  0
    5.3684    2.9379   -2.5573 C   0  0  0  1  0  0  0  0  0  0  0  0
    3.8781    5.5010   -4.3351 N   0  0  0  1  0  0  0  0  0  0  0  0
    0.9316   -2.0525   -1.6522 H   0  0  0  1  0  0  0  0  0  0  0  0
    0.8530    0.2620   -6.5152 H   0  0  0  1  0  0  0  0  0  0  0  0
   -2.3709   -2.6505   -5.3722 H   0  0  0  1  0  0  0  0  0  0  0  0
   -3.6597   -4.6446   -4.8733 H   0  0  0  1  0  0  0  0  0  0  0  0
   -0.6711   -5.9072   -2.2082 H   0  0  0  1  0  0  0  0  0  0  0  0
    0.6156   -3.9163   -2.7060 H   0  0  0  1  0  0  0  0  0  0  0  0
   -4.5002   -7.7886   -3.7481 H   0  0  0  1  0  0  0  0  0  0  0  0
   -3.7893   -6.9306   -5.0938 H   0  0  0  1  0  0  0  0  0  0  0  0
   -4.7799   -6.0744   -3.9364 H   0  0  0  1  0  0  0  0  0  0  0  0
    3.6991    1.3930   -1.2262 H   0  0  0  1  0  0  0  0  0  0  0  0
    3.8042    2.4411   -3.9654 H   0  0  0  1  0  0  0  0  0  0  0  0
    2.2764    4.0318   -3.0386 H   0  0  0  1  0  0  0  0  0  0  0  0
    3.0377    3.9643   -1.4670 H   0  0  0  1  0  0  0  0  0  0  0  0
    4.1013    5.8809   -2.2740 H   0  0  0  1  0  0  0  0  0  0  0  0
    6.1453    4.8870   -2.0929 H   0  0  0  1  0  0  0  0  0  0  0  0
    6.0797    4.5373   -3.8038 H   0  0  0  1  0  0  0  0  0  0  0  0
    5.5421    2.7470   -1.5188 H   0  0  0  1  0  0  0  0  0  0  0  0
    6.0306    2.3384   -3.1463 H   0  0  0  1  0  0  0  0  0  0  0  0
    2.9815    5.8954   -4.3669 H   0  0  0  1  0  0  0  0  0  0  0  0
    3.9187    4.7335   -4.9432 H   0  0  0  1  0  0  0  0  0  0  0  0
  1  2  4  0  0  0  0
  1  6  4  0  0  0  0
  2  3  4  0  0  0  0
  2 18  1  0  0  0  0
  3  4  4  0  0  0  0
  4  5  4  0  0  0  0
  4  7  4  0  0  0  0
  5  6  4  0  0  0  0
  5  9  4  0  0  0  0
  6 25  1  0  0  0  0
  7  8  4  0  0  0  0
  7 26  1  0  0  0  0
  8  9  4  0  0  0  0
  9 10  1  0  0  0  0
 10 11  4  0  0  0  0
 10 15  4  0  0  0  0
 11 12  4  0  0  0  0
 11 27  1  0  0  0  0
 12 13  4  0  0  0  0
 12 28  1  0  0  0  0
 13 14  4  0  0  0  0
 13 16  1  0  0  0  0
 14 15  4  0  0  0  0
 14 29  1  0  0  0  0
 15 30  1  0  0  0  0
 16 17  1  0  0  0  0
 17 31  1  0  0  0  0
 17 32  1  0  0  0  0
 17 33  1  0  0  0  0
 18 19  1  0  0  0  0
 18 34  1  0  0  0  0
 19 20  1  0  0  0  0
 19 23  1  0  0  0  0
 19 35  1  0  0  0  0
 20 21  1  0  0  0  0
 20 36  1  0  0  0  0
 20 37  1  0  0  0  0
 21 22  1  0  0  0  0
 21 24  1  0  0  0  0
 21 38  1  0  0  0  0
 22 23  1  0  0  0  0
 22 39  1  0  0  0  0
 22 40  1  0  0  0  0
 23 41  1  0  0  0  0
 23 42  1  0  0  0  0
 24 43  1  0  0  0  0
 24 44  1  0  0  0  0
M  END
> <ConfClashScore>
0 

> <ConfOneFourInteractionScore>
-0.984337 

> <ConfScore>
-0.095711 

> <ConfScorePBest>
0.00481943 

> <ConfTolerance>
0.245613 

$$$$
c13.sdf
 OpenBabel04162418043D

 44 47  0  0  0  0  0  0  0  0999 V2000
    2.1080   -0.3773   -1.8533 N   0  0  0  1  0  0  0  0  0  0  0  0
    2.5363    0.5907   -2.6455 C   0  0  0  1  0  0  0  0  0  0  0  0
    2.1526    0.6996   -3.8968 N   0  0  0  1  0  0  0  0  0  0  0  0
    1.2985   -0.1838   -4.4201 C   0  0  0  1  0  0  0  0  0  0  0  0
    0.8205   -1.2304   -3.6033 C   0  0  0  1  0  0  0  0  0  0  0  0
    1.2616   -1.2960   -2.2850 C   0  0  0  1  0  0  0  0  0  0  0  0
    0.7019   -0.3513   -5.6890 C   0  0  0  1  0  0  0  0  0  0  0  0
   -0.0690   -1.4010   -5.6537 N   0  0  0  1  0  0  0  0  0  0  0  0
   -0.0256   -1.9780   -4.3778 N   0  0  0  1  0  0  0  0  0  0  0  0
   -0.7857   -3.1448   -4.0791 C   0  0  0  1  0  0  0  0  0  0  0  0
   -2.0176   -3.3382   -4.6751 C   0  0  0  1  0  0  0  0  0  0  0  0
   -2.7550   -4.4763   -4.3884 C   0  0  0  1  0  0  0  0  0  0  0  0
   -2.2609   -5.4152   -3.5026 C   0  0  0  1  0  0  0  0  0  0  0  0
   -1.0252   -5.2210   -2.9049 C   0  0  0  1  0  0  0  0  0  0  0  0
   -0.2899   -4.0862   -3.1907 C   0  0  0  1  0  0  0  0  0  0  0  0
   -3.0129   -6.4638   -3.1487 O   0  0  0  1  0  0  0  0  0  0  0  0
   -4.3546   -6.6728   -3.7046 C   0  0  0  1  0  0  0  0  0  0  0  0
    3.4042    1.4827   -2.1026 N   0  0  0  1  0  0  0  0  0  0  0  0
    4.0430    2.5643   -2.8576 C   0  0  0  1  0  0  0  0  0  0  0  0
    3.2555    3.8800   -2.7158 C   0  0  0  1  0  0  0  0  0  0  0  0
    3.8402    4.6392   -1.4742 C   0  0  0  1  0  0  0  0  0  0  0  0
    5.0501    3.8099   -1.0555 C   0  0  0  1  0  0  0  0  0  0  0  0
    5.4386    2.9290   -2.2491 C   0  0  0  1  0  0  0  0  0  0  0  0
    4.2558    6.0306   -1.8509 N   0  0  0  1  0  0  0  0  0  0  0  0
    0.9318   -2.0526   -1.6522 H   0  0  0  1  0  0  0  0  0  0  0  0
    0.8528    0.2621   -6.5152 H   0  0  0  1  0  0  0  0  0  0  0  0
   -2.3913   -2.6298   -5.3385 H   0  0  0  1  0  0  0  0  0  0  0  0
   -3.6802   -4.6239   -4.8399 H   0  0  0  1  0  0  0  0  0  0  0  0
   -0.6515   -5.9294   -2.2414 H   0  0  0  1  0  0  0  0  0  0  0  0
    0.6354   -3.9387   -2.7392 H   0  0  0  1  0  0  0  0  0  0  0  0
   -4.7382   -7.6133   -3.3679 H   0  0  0  1  0  0  0  0  0  0  0  0
   -4.3019   -6.6714   -4.7733 H   0  0  0  1  0  0  0  0  0  0  0  0
   -5.0022   -5.8862   -3.3779 H   0  0  0  1  0  0  0  0  0  0  0  0
    3.6159    1.3983   -1.1496 H   0  0  0  1  0  0  0  0  0  0  0  0
    4.1332    2.2780   -3.8847 H   0  0  0  1  0  0  0  0  0  0  0  0
    3.3731    4.4744   -3.5976 H   0  0  0  1  0  0  0  0  0  0  0  0
    2.2174    3.6709   -2.5619 H   0  0  0  1  0  0  0  0  0  0  0  0
    3.1201    4.6831   -0.6841 H   0  0  0  1  0  0  0  0  0  0  0  0
    5.8636    4.4551   -0.7972 H   0  0  0  1  0  0  0  0  0  0  0  0
    4.7997    3.1969   -0.2150 H   0  0  0  1  0  0  0  0  0  0  0  0
    5.9636    2.0529   -1.9302 H   0  0  0  1  0  0  0  0  0  0  0  0
    6.0387    3.4693   -2.9511 H   0  0  0  1  0  0  0  0  0  0  0  0
    3.5155    6.4803   -2.3093 H   0  0  0  1  0  0  0  0  0  0  0  0
    5.0321    5.9892   -2.4474 H   0  0  0  1  0  0  0  0  0  0  0  0
  1  2  4  0  0  0  0
  1  6  4  0  0  0  0
  2  3  4  0  0  0  0
  2 18  1  0  0  0  0
  3  4  4  0  0  0  0
  4  5  4  0  0  0  0
  4  7  4  0  0  0  0
  5  6  4  0  0  0  0
  5  9  4  0  0  0  0
  6 25  1  0  0  0  0
  7  8  4  0  0  0  0
  7 26  1  0  0  0  0
  8  9  4  0  0  0  0
  9 10  1  0  0  0  0
 10 11  4  0  0  0  0
 10 15  4  0  0  0  0
 11 12  4  0  0  0  0
 11 27  1  0  0  0  0
 12 13  4  0  0  0  0
 12 28  1  0  0  0  0
 13 14  4  0  0  0  0
 13 16  1  0  0  0  0
 14 15  4  0  0  0  0
 14 29  1  0  0  0  0
 15 30  1  0  0  0  0
 16 17  1  0  0  0  0
 17 31  1  0  0  0  0
 17 32  1  0  0  0  0
 17 33  1  0  0  0  0
 18 19  1  0  0  0  0
 18 34  1  0  0  0  0
 19 20  1  0  0  0  0
 19 23  1  0  0  0  0
 19 35  1  0  0  0  0
 20 21  1  0  0  0  0
 20 36  1  0  0  0  0
 20 37  1  0  0  0  0
 21 22  1  0  0  0  0
 21 24  1  0  0  0  0
 21 38  1  0  0  0  0
 22 23  1  0  0  0  0
 22 39  1  0  0  0  0
 22 40  1  0  0  0  0
 23 41  1  0  0  0  0
 23 42  1  0  0  0  0
 24 43  1  0  0  0  0
 24 44  1  0  0  0  0
M  END
> <ConfClashScore>
0 

> <ConfOneFourInteractionScore>
-0.984337 

> <ConfScore>
-0.095711 

> <ConfScorePBest>
0.0048061 

> <ConfTolerance>
0.290353 

$$$$
c13.sdf
 OpenBabel04162418043D

 44 47  0  0  0  0  0  0  0  0999 V2000
    2.1079   -0.3774   -1.8532 N   0  0  0  1  0  0  0  0  0  0  0  0
    2.5364    0.5908   -2.6455 C   0  0  0  1  0  0  0  0  0  0  0  0
    2.1525    0.6996   -3.8968 N   0  0  0  1  0  0  0  0  0  0  0  0
    1.2986   -0.1837   -4.4201 C   0  0  0  1  0  0  0  0  0  0  0  0
    0.8204   -1.2305   -3.6034 C   0  0  0  1  0  0  0  0  0  0  0  0
    1.2615   -1.2961   -2.2849 C   0  0  0  1  0  0  0  0  0  0  0  0
    0.7019   -0.3513   -5.6890 C   0  0  0  1  0  0  0  0  0  0  0  0
   -0.0689   -1.4010   -5.6538 N   0  0  0  1  0  0  0  0  0  0  0  0
   -0.0256   -1.9781   -4.3778 N   0  0  0  1  0  0  0  0  0  0  0  0
   -0.7096   -3.1878   -4.1147 C   0  0  0  1  0  0  0  0  0  0  0  0
   -0.0031   -4.3115   -3.7297 C   0  0  0  1  0  0  0  0  0  0  0  0
   -0.6740   -5.4956   -3.4667 C   0  0  0  1  0  0  0  0  0  0  0  0
   -2.0489   -5.5541   -3.5947 C   0  0  0  1  0  0  0  0  0  0  0  0
   -2.7575   -4.4270   -3.9809 C   0  0  0  1  0  0  0  0  0  0  0  0
   -2.0887   -3.2463   -4.2432 C   0  0  0  1  0  0  0  0  0  0  0  0
   -2.6395   -6.7356   -3.3296 O   0  0  0  1  0  0  0  0  0  0  0  0
   -4.0783   -6.6828   -3.1891 C   0  0  0  1  0  0  0  0  0  0  0  0
    3.4294    1.5638   -2.1977 N   0  0  0  1  0  0  0  0  0  0  0  0
    3.9324    2.4663   -3.2416 C   0  0  0  1  0  0  0  0  0  0  0  0
    4.3289    3.8109   -2.6380 C   0  0  0  1  0  0  0  0  0  0  0  0
    5.3088    4.3729   -3.6856 C   0  0  0  1  0  0  0  0  0  0  0  0
    5.9269    3.1636   -4.3695 C   0  0  0  1  0  0  0  0  0  0  0  0
    5.2022    1.9072   -3.8592 C   0  0  0  1  0  0  0  0  0  0  0  0
    4.5891    5.2033   -4.6662 N   0  0  0  1  0  0  0  0  0  0  0  0
    0.9316   -2.0527   -1.6523 H   0  0  0  1  0  0  0  0  0  0  0  0
    0.8530    0.2621   -6.5152 H   0  0  0  1  0  0  0  0  0  0  0  0
    1.0320   -4.2687   -3.6373 H   0  0  0  1  0  0  0  0  0  0  0  0
   -0.1427   -6.3401   -3.1731 H   0  0  0  1  0  0  0  0  0  0  0  0
   -3.7925   -4.4699   -4.0733 H   0  0  0  1  0  0  0  0  0  0  0  0
   -2.6199   -2.4018   -4.5368 H   0  0  0  1  0  0  0  0  0  0  0  0
   -4.5192   -6.4162   -4.1270 H   0  0  0  1  0  0  0  0  0  0  0  0
   -4.3379   -5.9514   -2.4526 H   0  0  0  1  0  0  0  0  0  0  0  0
   -4.4421   -7.6417   -2.8841 H   0  0  0  1  0  0  0  0  0  0  0  0
    3.7004    1.6396   -1.2590 H   0  0  0  1  0  0  0  0  0  0  0  0
    3.1803    2.6003   -3.9908 H   0  0  0  1  0  0  0  0  0  0  0  0
    4.8085    3.6824   -1.6902 H   0  0  0  1  0  0  0  0  0  0  0  0
    3.4776    4.4491   -2.5238 H   0  0  0  1  0  0  0  0  0  0  0  0
    6.0669    4.9588   -3.2094 H   0  0  0  1  0  0  0  0  0  0  0  0
    6.9682    3.1042   -4.1305 H   0  0  0  1  0  0  0  0  0  0  0  0
    5.8079    3.2458   -5.4297 H   0  0  0  1  0  0  0  0  0  0  0  0
    5.7914    1.3952   -3.1275 H   0  0  0  1  0  0  0  0  0  0  0  0
    4.9757    1.2410   -4.6653 H   0  0  0  1  0  0  0  0  0  0  0  0
    3.8617    4.6819   -5.0654 H   0  0  0  1  0  0  0  0  0  0  0  0
    5.2092    5.4898   -5.3690 H   0  0  0  1  0  0  0  0  0  0  0  0
  1  2  4  0  0  0  0
  1  6  4  0  0  0  0
  2  3  4  0  0  0  0
  2 18  1  0  0  0  0
  3  4  4  0  0  0  0
  4  5  4  0  0  0  0
  4  7  4  0  0  0  0
  5  6  4  0  0  0  0
  5  9  4  0  0  0  0
  6 25  1  0  0  0  0
  7  8  4  0  0  0  0
  7 26  1  0  0  0  0
  8  9  4  0  0  0  0
  9 10  1  0  0  0  0
 10 11  4  0  0  0  0
 10 15  4  0  0  0  0
 11 12  4  0  0  0  0
 11 27  1  0  0  0  0
 12 13  4  0  0  0  0
 12 28  1  0  0  0  0
 13 14  4  0  0  0  0
 13 16  1  0  0  0  0
 14 15  4  0  0  0  0
 14 29  1  0  0  0  0
 15 30  1  0  0  0  0
 16 17  1  0  0  0  0
 17 31  1  0  0  0  0
 17 32  1  0  0  0  0
 17 33  1  0  0  0  0
 18 19  1  0  0  0  0
 18 34  1  0  0  0  0
 19 20  1  0  0  0  0
 19 23  1  0  0  0  0
 19 35  1  0  0  0  0
 20 21  1  0  0  0  0
 20 36  1  0  0  0  0
 20 37  1  0  0  0  0
 21 22  1  0  0  0  0
 21 24  1  0  0  0  0
 21 38  1  0  0  0  0
 22 23  1  0  0  0  0
 22 39  1  0  0  0  0
 22 40  1  0  0  0  0
 23 41  1  0  0  0  0
 23 42  1  0  0  0  0
 24 43  1  0  0  0  0
 24 44  1  0  0  0  0
M  END
> <ConfClashScore>
0 

> <ConfOneFourInteractionScore>
-0.984337 

> <ConfScore>
-0.0937748 

> <ConfScorePBest>
0.00479277 

> <ConfTolerance>
0.322753 

$$$$
c13.sdf
 OpenBabel04162418043D

 44 47  0  0  0  0  0  0  0  0999 V2000
    2.1080   -0.3774   -1.8532 N   0  0  0  1  0  0  0  0  0  0  0  0
    2.5364    0.5907   -2.6454 C   0  0  0  1  0  0  0  0  0  0  0  0
    2.1526    0.6996   -3.8967 N   0  0  0  1  0  0  0  0  0  0  0  0
    1.2985   -0.1838   -4.4202 C   0  0  0  1  0  0  0  0  0  0  0  0
    0.8204   -1.2305   -3.6033 C   0  0  0  1  0  0  0  0  0  0  0  0
    1.2616   -1.2961   -2.2849 C   0  0  0  1  0  0  0  0  0  0  0  0
    0.7019   -0.3512   -5.6889 C   0  0  0  1  0  0  0  0  0  0  0  0
   -0.0690   -1.4010   -5.6538 N   0  0  0  1  0  0  0  0  0  0  0  0
   -0.0256   -1.9781   -4.3778 N   0  0  0  1  0  0  0  0  0  0  0  0
   -0.8666   -3.0845   -4.0671 C   0  0  0  1  0  0  0  0  0  0  0  0
   -0.3605   -4.1606   -3.3628 C   0  0  0  1  0  0  0  0  0  0  0  0
   -1.1806   -5.2352   -3.0556 C   0  0  0  1  0  0  0  0  0  0  0  0
   -2.5028   -5.2329   -3.4581 C   0  0  0  1  0  0  0  0  0  0  0  0
   -3.0102   -4.1535   -4.1646 C   0  0  0  1  0  0  0  0  0  0  0  0
   -2.1926   -3.0820   -4.4708 C   0  0  0  1  0  0  0  0  0  0  0  0
   -3.3899   -6.2190   -3.2228 O   0  0  0  1  0  0  0  0  0  0  0  0
   -2.8400   -7.3998   -2.5933 C   0  0  0  1  0  0  0  0  0  0  0  0
    3.4098    1.5117   -2.1456 N   0  0  0  1  0  0  0  0  0  0  0  0
    3.9392    2.5859   -2.9673 C   0  0  0  1  0  0  0  0  0  0  0  0
    4.2537    3.8144   -2.1066 C   0  0  0  1  0  0  0  0  0  0  0  0
    5.7132    3.6361   -1.6881 C   0  0  0  1  0  0  0  0  0  0  0  0
    6.3458    3.0735   -2.9633 C   0  0  0  1  0  0  0  0  0  0  0  0
    5.2785    2.1744   -3.5916 C   0  0  0  1  0  0  0  0  0  0  0  0
    6.3276    4.9343   -1.3091 N   0  0  0  1  0  0  0  0  0  0  0  0
    0.9318   -2.0528   -1.6523 H   0  0  0  1  0  0  0  0  0  0  0  0
    0.8528    0.2621   -6.5151 H   0  0  0  1  0  0  0  0  0  0  0  0
    0.6354   -4.1642   -3.0634 H   0  0  0  1  0  0  0  0  0  0  0  0
   -0.8009   -6.0432   -2.5222 H   0  0  0  1  0  0  0  0  0  0  0  0
   -4.0062   -4.1498   -4.4640 H   0  0  0  1  0  0  0  0  0  0  0  0
   -2.5723   -2.2740   -5.0043 H   0  0  0  1  0  0  0  0  0  0  0  0
   -2.5210   -8.0901   -3.3459 H   0  0  0  1  0  0  0  0  0  0  0  0
   -3.5886   -7.8593   -1.9823 H   0  0  0  1  0  0  0  0  0  0  0  0
   -2.0037   -7.1230   -1.9860 H   0  0  0  1  0  0  0  0  0  0  0  0
    3.6874    1.4467   -1.2079 H   0  0  0  1  0  0  0  0  0  0  0  0
    3.2310    2.8343   -3.7299 H   0  0  0  1  0  0  0  0  0  0  0  0
    4.1317    4.7132   -2.6744 H   0  0  0  1  0  0  0  0  0  0  0  0
    3.6166    3.8455   -1.2475 H   0  0  0  1  0  0  0  0  0  0  0  0
    5.8023    2.9476   -0.8740 H   0  0  0  1  0  0  0  0  0  0  0  0
    6.6062    3.8670   -3.6321 H   0  0  0  1  0  0  0  0  0  0  0  0
    7.2205    2.5047   -2.7262 H   0  0  0  1  0  0  0  0  0  0  0  0
    5.2517    2.3181   -4.6515 H   0  0  0  1  0  0  0  0  0  0  0  0
    5.4868    1.1473   -3.3755 H   0  0  0  1  0  0  0  0  0  0  0  0
    5.9251    5.2556   -0.4753 H   0  0  0  1  0  0  0  0  0  0  0  0
    6.1712    5.5896   -2.0208 H   0  0  0  1  0  0  0  0  0  0  0  0
  1  2  4  0  0  0  0
  1  6  4  0  0  0  0
  2  3  4  0  0  0  0
  2 18  1  0  0  0  0
  3  4  4  0  0  0  0
  4  5  4  0  0  0  0
  4  7  4  0  0  0  0
  5  6  4  0  0  0  0
  5  9  4  0  0  0  0
  6 25  1  0  0  0  0
  7  8  4  0  0  0  0
  7 26  1  0  0  0  0
  8  9  4  0  0  0  0
  9 10  1  0  0  0  0
 10 11  4  0  0  0  0
 10 15  4  0  0  0  0
 11 12  4  0  0  0  0
 11 27  1  0  0  0  0
 12 13  4  0  0  0  0
 12 28  1  0  0  0  0
 13 14  4  0  0  0  0
 13 16  1  0  0  0  0
 14 15  4  0  0  0  0
 14 29  1  0  0  0  0
 15 30  1  0  0  0  0
 16 17  1  0  0  0  0
 17 31  1  0  0  0  0
 17 32  1  0  0  0  0
 17 33  1  0  0  0  0
 18 19  1  0  0  0  0
 18 34  1  0  0  0  0
 19 20  1  0  0  0  0
 19 23  1  0  0  0  0
 19 35  1  0  0  0  0
 20 21  1  0  0  0  0
 20 36  1  0  0  0  0
 20 37  1  0  0  0  0
 21 22  1  0  0  0  0
 21 24  1  0  0  0  0
 21 38  1  0  0  0  0
 22 23  1  0  0  0  0
 22 39  1  0  0  0  0
 22 40  1  0  0  0  0
 23 41  1  0  0  0  0
 23 42  1  0  0  0  0
 24 43  1  0  0  0  0
 24 44  1  0  0  0  0
M  END
> <ConfClashScore>
0 

> <ConfOneFourInteractionScore>
-0.984337 

> <ConfScore>
-0.0931557 

> <ConfScorePBest>
0.00477944 

> <ConfTolerance>
0.235981 

$$$$
c13.sdf
 OpenBabel04162418043D

 44 47  0  0  0  0  0  0  0  0999 V2000
    2.1080   -0.3774   -1.8533 N   0  0  0  1  0  0  0  0  0  0  0  0
    2.5364    0.5907   -2.6455 C   0  0  0  1  0  0  0  0  0  0  0  0
    2.1526    0.6997   -3.8968 N   0  0  0  1  0  0  0  0  0  0  0  0
    1.2985   -0.1838   -4.4201 C   0  0  0  1  0  0  0  0  0  0  0  0
    0.8205   -1.2305   -3.6033 C   0  0  0  1  0  0  0  0  0  0  0  0
    1.2616   -1.2960   -2.2850 C   0  0  0  1  0  0  0  0  0  0  0  0
    0.7018   -0.3512   -5.6890 C   0  0  0  1  0  0  0  0  0  0  0  0
   -0.0690   -1.4009   -5.6537 N   0  0  0  1  0  0  0  0  0  0  0  0
   -0.0256   -1.9781   -4.3778 N   0  0  0  1  0  0  0  0  0  0  0  0
   -0.8399   -3.0914   -4.0234 C   0  0  0  1  0  0  0  0  0  0  0  0
   -0.5119   -3.8659   -2.9267 C   0  0  0  1  0  0  0  0  0  0  0  0
   -1.3076   -4.9463   -2.5785 C   0  0  0  1  0  0  0  0  0  0  0  0
   -2.4257   -5.2522   -3.3311 C   0  0  0  1  0  0  0  0  0  0  0  0
   -2.7545   -4.4753   -4.4311 C   0  0  0  1  0  0  0  0  0  0  0  0
   -1.9612   -3.3980   -4.7783 C   0  0  0  1  0  0  0  0  0  0  0  0
   -3.1212   -6.3308   -2.8990 O   0  0  0  1  0  0  0  0  0  0  0  0
   -4.2701   -6.7216   -3.6670 C   0  0  0  1  0  0  0  0  0  0  0  0
    3.4221    1.5558   -2.2015 N   0  0  0  1  0  0  0  0  0  0  0  0
    3.9192    1.4483   -0.8302 C   0  0  0  1  0  0  0  0  0  0  0  0
    5.1097    0.4853   -0.7713 C   0  0  0  1  0  0  0  0  0  0  0  0
    6.3315    1.3839   -0.8695 C   0  0  0  1  0  0  0  0  0  0  0  0
    5.9170    2.5796   -0.0052 C   0  0  0  1  0  0  0  0  0  0  0  0
    4.4418    2.8076   -0.3464 C   0  0  0  1  0  0  0  0  0  0  0  0
    7.5514    0.7077   -0.3158 N   0  0  0  1  0  0  0  0  0  0  0  0
    0.9318   -2.0527   -1.6523 H   0  0  0  1  0  0  0  0  0  0  0  0
    0.8527    0.2621   -6.5151 H   0  0  0  1  0  0  0  0  0  0  0  0
    0.3317   -3.6381   -2.3627 H   0  0  0  1  0  0  0  0  0  0  0  0
   -1.0631   -5.5267   -1.7509 H   0  0  0  1  0  0  0  0  0  0  0  0
   -3.5981   -4.7031   -4.9951 H   0  0  0  1  0  0  0  0  0  0  0  0
   -2.2056   -2.8176   -5.6060 H   0  0  0  1  0  0  0  0  0  0  0  0
   -4.9386   -5.8911   -3.7573 H   0  0  0  1  0  0  0  0  0  0  0  0
   -4.7699   -7.5296   -3.1746 H   0  0  0  1  0  0  0  0  0  0  0  0
   -3.9578   -7.0354   -4.6410 H   0  0  0  1  0  0  0  0  0  0  0  0
    3.7074    2.2882   -2.7870 H   0  0  0  1  0  0  0  0  0  0  0  0
    3.1328    1.1049   -0.1911 H   0  0  0  1  0  0  0  0  0  0  0  0
    5.0799   -0.2030   -1.5898 H   0  0  0  1  0  0  0  0  0  0  0  0
    5.1122   -0.0566    0.1513 H   0  0  0  1  0  0  0  0  0  0  0  0
    6.5156    1.6806   -1.8809 H   0  0  0  1  0  0  0  0  0  0  0  0
    6.4994    3.4431   -0.2502 H   0  0  0  1  0  0  0  0  0  0  0  0
    6.0338    2.3532    1.0341 H   0  0  0  1  0  0  0  0  0  0  0  0
    3.9027    3.1285    0.5204 H   0  0  0  1  0  0  0  0  0  0  0  0
    4.3458    3.5418   -1.1189 H   0  0  0  1  0  0  0  0  0  0  0  0
    7.3515    0.3500    0.5744 H   0  0  0  1  0  0  0  0  0  0  0  0
    8.2828    1.3567   -0.2502 H   0  0  0  1  0  0  0  0  0  0  0  0
  1  2  4  0  0  0  0
  1  6  4  0  0  0  0
  2  3  4  0  0  0  0
  2 18  1  0  0  0  0
  3  4  4  0  0  0  0
  4  5  4  0  0  0  0
  4  7  4  0  0  0  0
  5  6  4  0  0  0  0
  5  9  4  0  0  0  0
  6 25  1  0  0  0  0
  7  8  4  0  0  0  0
  7 26  1  0  0  0  0
  8  9  4  0  0  0  0
  9 10  1  0  0  0  0
 10 11  4  0  0  0  0
 10 15  4  0  0  0  0
 11 12  4  0  0  0  0
 11 27  1  0  0  0  0
 12 13  4  0  0  0  0
 12 28  1  0  0  0  0
 13 14  4  0  0  0  0
 13 16  1  0  0  0  0
 14 15  4  0  0  0  0
 14 29  1  0  0  0  0
 15 30  1  0  0  0  0
 16 17  1  0  0  0  0
 17 31  1  0  0  0  0
 17 32  1  0  0  0  0
 17 33  1  0  0  0  0
 18 19  1  0  0  0  0
 18 34  1  0  0  0  0
 19 20  1  0  0  0  0
 19 23  1  0  0  0  0
 19 35  1  0  0  0  0
 20 21  1  0  0  0  0
 20 36  1  0  0  0  0
 20 37  1  0  0  0  0
 21 22  1  0  0  0  0
 21 24  1  0  0  0  0
 21 38  1  0  0  0  0
 22 23  1  0  0  0  0
 22 39  1  0  0  0  0
 22 40  1  0  0  0  0
 23 41  1  0  0  0  0
 23 42  1  0  0  0  0
 24 43  1  0  0  0  0
 24 44  1  0  0  0  0
M  END
> <ConfClashScore>
0 

> <ConfOneFourInteractionScore>
-0.984337 

> <ConfScore>
-0.0927086 

> <ConfScorePBest>
0.00476611 

> <ConfTolerance>
0.306502 

$$$$
c13.sdf
 OpenBabel04162418043D

 44 47  0  0  0  0  0  0  0  0999 V2000
    2.1080   -0.3774   -1.8533 N   0  0  0  1  0  0  0  0  0  0  0  0
    2.5364    0.5907   -2.6455 C   0  0  0  1  0  0  0  0  0  0  0  0
    2.1525    0.6996   -3.8968 N   0  0  0  1  0  0  0  0  0  0  0  0
    1.2985   -0.1838   -4.4201 C   0  0  0  1  0  0  0  0  0  0  0  0
    0.8205   -1.2305   -3.6033 C   0  0  0  1  0  0  0  0  0  0  0  0
    1.2616   -1.2961   -2.2850 C   0  0  0  1  0  0  0  0  0  0  0  0
    0.7019   -0.3512   -5.6890 C   0  0  0  1  0  0  0  0  0  0  0  0
   -0.0689   -1.4010   -5.6538 N   0  0  0  1  0  0  0  0  0  0  0  0
   -0.0256   -1.9781   -4.3778 N   0  0  0  1  0  0  0  0  0  0  0  0
   -0.8020   -3.1446   -4.1241 C   0  0  0  1  0  0  0  0  0  0  0  0
   -0.3966   -4.0484   -3.1603 C   0  0  0  1  0  0  0  0  0  0  0  0
   -1.1554   -5.1811   -2.9097 C   0  0  0  1  0  0  0  0  0  0  0  0
   -2.3144   -5.4094   -3.6271 C   0  0  0  1  0  0  0  0  0  0  0  0
   -2.7209   -4.5027   -4.5937 C   0  0  0  1  0  0  0  0  0  0  0  0
   -1.9645   -3.3733   -4.8438 C   0  0  0  1  0  0  0  0  0  0  0  0
   -2.9679   -6.5492   -3.2990 O   0  0  0  1  0  0  0  0  0  0  0  0
   -4.1445   -6.8721   -4.0565 C   0  0  0  1  0  0  0  0  0  0  0  0
    3.4219    1.5245   -2.1387 N   0  0  0  1  0  0  0  0  0  0  0  0
    3.8790    2.5828   -3.0294 C   0  0  0  1  0  0  0  0  0  0  0  0
    2.8341    3.7008   -3.1148 C   0  0  0  1  0  0  0  0  0  0  0  0
    3.2232    4.6855   -2.0120 C   0  0  0  1  0  0  0  0  0  0  0  0
    4.7509    4.6844   -2.1057 C   0  0  0  1  0  0  0  0  0  0  0  0
    5.1412    3.2494   -2.4677 C   0  0  0  1  0  0  0  0  0  0  0  0
    2.6691    6.0350   -2.2759 N   0  0  0  1  0  0  0  0  0  0  0  0
    0.9319   -2.0528   -1.6523 H   0  0  0  1  0  0  0  0  0  0  0  0
    0.8527    0.2622   -6.5152 H   0  0  0  1  0  0  0  0  0  0  0  0
    0.4776   -3.8786   -2.6232 H   0  0  0  1  0  0  0  0  0  0  0  0
   -0.8524   -5.8591   -2.1816 H   0  0  0  1  0  0  0  0  0  0  0  0
   -3.5952   -4.6725   -5.1308 H   0  0  0  1  0  0  0  0  0  0  0  0
   -2.2674   -2.6952   -5.5718 H   0  0  0  1  0  0  0  0  0  0  0  0
   -4.9227   -6.1765   -3.8216 H   0  0  0  1  0  0  0  0  0  0  0  0
   -4.4658   -7.8628   -3.8107 H   0  0  0  1  0  0  0  0  0  0  0  0
   -3.9216   -6.8180   -5.1016 H   0  0  0  1  0  0  0  0  0  0  0  0
    3.7319    1.4758   -1.2103 H   0  0  0  1  0  0  0  0  0  0  0  0
    4.0711    2.1749   -3.9998 H   0  0  0  1  0  0  0  0  0  0  0  0
    2.8681    4.1757   -4.0730 H   0  0  0  1  0  0  0  0  0  0  0  0
    1.8520    3.3122   -2.9433 H   0  0  0  1  0  0  0  0  0  0  0  0
    2.8927    4.3449   -1.0530 H   0  0  0  1  0  0  0  0  0  0  0  0
    5.1825    4.9629   -1.1670 H   0  0  0  1  0  0  0  0  0  0  0  0
    5.0788    5.3632   -2.8651 H   0  0  0  1  0  0  0  0  0  0  0  0
    5.4784    2.7273   -1.5967 H   0  0  0  1  0  0  0  0  0  0  0  0
    5.9167    3.2523   -3.2050 H   0  0  0  1  0  0  0  0  0  0  0  0
    2.9817    6.3521   -3.1488 H   0  0  0  1  0  0  0  0  0  0  0  0
    2.9691    6.6534   -1.5773 H   0  0  0  1  0  0  0  0  0  0  0  0
  1  2  4  0  0  0  0
  1  6  4  0  0  0  0
  2  3  4  0  0  0  0
  2 18  1  0  0  0  0
  3  4  4  0  0  0  0
  4  5  4  0  0  0  0
  4  7  4  0  0  0  0
  5  6  4  0  0  0  0
  5  9  4  0  0  0  0
  6 25  1  0  0  0  0
  7  8  4  0  0  0  0
  7 26  1  0  0  0  0
  8  9  4  0  0  0  0
  9 10  1  0  0  0  0
 10 11  4  0  0  0  0
 10 15  4  0  0  0  0
 11 12  4  0  0  0  0
 11 27  1  0  0  0  0
 12 13  4  0  0  0  0
 12 28  1  0  0  0  0
 13 14  4  0  0  0  0
 13 16  1  0  0  0  0
 14 15  4  0  0  0  0
 14 29  1  0  0  0  0
 15 30  1  0  0  0  0
 16 17  1  0  0  0  0
 17 31  1  0  0  0  0
 17 32  1  0  0  0  0
 17 33  1  0  0  0  0
 18 19  1  0  0  0  0
 18 34  1  0  0  0  0
 19 20  1  0  0  0  0
 19 23  1  0  0  0  0
 19 35  1  0  0  0  0
 20 21  1  0  0  0  0
 20 36  1  0  0  0  0
 20 37  1  0  0  0  0
 21 22  1  0  0  0  0
 21 24  1  0  0  0  0
 21 38  1  0  0  0  0
 22 23  1  0  0  0  0
 22 39  1  0  0  0  0
 22 40  1  0  0  0  0
 23 41  1  0  0  0  0
 23 42  1  0  0  0  0
 24 43  1  0  0  0  0
 24 44  1  0  0  0  0
M  END
> <ConfClashScore>
0 

> <ConfOneFourInteractionScore>
-0.984337 

> <ConfScore>
-0.0927086 

> <ConfScorePBest>
0.00475278 

> <ConfTolerance>
0.299884 

$$$$
c13.sdf
 OpenBabel04162418043D

 44 47  0  0  0  0  0  0  0  0999 V2000
    2.1080   -0.3774   -1.8533 N   0  0  0  1  0  0  0  0  0  0  0  0
    2.5363    0.5907   -2.6455 C   0  0  0  1  0  0  0  0  0  0  0  0
    2.1525    0.6996   -3.8968 N   0  0  0  1  0  0  0  0  0  0  0  0
    1.2985   -0.1838   -4.4201 C   0  0  0  1  0  0  0  0  0  0  0  0
    0.8204   -1.2305   -3.6034 C   0  0  0  1  0  0  0  0  0  0  0  0
    1.2615   -1.2960   -2.2849 C   0  0  0  1  0  0  0  0  0  0  0  0
    0.7019   -0.3513   -5.6890 C   0  0  0  1  0  0  0  0  0  0  0  0
   -0.0689   -1.4009   -5.6538 N   0  0  0  1  0  0  0  0  0  0  0  0
   -0.0256   -1.9781   -4.3778 N   0  0  0  1  0  0  0  0  0  0  0  0
   -0.9251   -3.0200   -4.0157 C   0  0  0  1  0  0  0  0  0  0  0  0
   -1.8571   -2.8120   -3.0165 C   0  0  0  1  0  0  0  0  0  0  0  0
   -2.7367   -3.8249   -2.6676 C   0  0  0  1  0  0  0  0  0  0  0  0
   -2.6782   -5.0446   -3.3151 C   0  0  0  1  0  0  0  0  0  0  0  0
   -1.7435   -5.2530   -4.3172 C   0  0  0  1  0  0  0  0  0  0  0  0
   -0.8663   -4.2431   -4.6652 C   0  0  0  1  0  0  0  0  0  0  0  0
   -3.5298   -6.0307   -2.9723 O   0  0  0  1  0  0  0  0  0  0  0  0
   -4.4705   -5.6914   -1.9271 C   0  0  0  1  0  0  0  0  0  0  0  0
    3.4293    1.5323   -2.1345 N   0  0  0  1  0  0  0  0  0  0  0  0
    3.8689    2.5483   -3.0951 C   0  0  0  1  0  0  0  0  0  0  0  0
    2.8368    3.6708   -3.2276 C   0  0  0  1  0  0  0  0  0  0  0  0
    3.1178    4.6289   -2.0677 C   0  0  0  1  0  0  0  0  0  0  0  0
    4.5423    4.3252   -1.5866 C   0  0  0  1  0  0  0  0  0  0  0  0
    5.0968    3.3012   -2.5831 C   0  0  0  1  0  0  0  0  0  0  0  0
    3.0217    6.0447   -2.5335 N   0  0  0  1  0  0  0  0  0  0  0  0
    0.9317   -2.0527   -1.6522 H   0  0  0  1  0  0  0  0  0  0  0  0
    0.8529    0.2621   -6.5153 H   0  0  0  1  0  0  0  0  0  0  0  0
   -1.8985   -1.8956   -2.5266 H   0  0  0  1  0  0  0  0  0  0  0  0
   -3.4406   -3.6670   -1.9185 H   0  0  0  1  0  0  0  0  0  0  0  0
   -1.7021   -6.1695   -4.8073 H   0  0  0  1  0  0  0  0  0  0  0  0
   -0.1625   -4.4009   -5.4144 H   0  0  0  1  0  0  0  0  0  0  0  0
   -3.9379   -5.3490   -1.0646 H   0  0  0  1  0  0  0  0  0  0  0  0
   -5.0456   -6.5565   -1.6706 H   0  0  0  1  0  0  0  0  0  0  0  0
   -5.1237   -4.9178   -2.2730 H   0  0  0  1  0  0  0  0  0  0  0  0
    3.7391    1.5157   -1.2049 H   0  0  0  1  0  0  0  0  0  0  0  0
    4.0631    2.0859   -4.0402 H   0  0  0  1  0  0  0  0  0  0  0  0
    2.9519    4.1749   -4.1643 H   0  0  0  1  0  0  0  0  0  0  0  0
    1.8449    3.2763   -3.1537 H   0  0  0  1  0  0  0  0  0  0  0  0
    2.4176    4.4653   -1.2753 H   0  0  0  1  0  0  0  0  0  0  0  0
    5.1374    5.2144   -1.5932 H   0  0  0  1  0  0  0  0  0  0  0  0
    4.5245    3.9146   -0.5987 H   0  0  0  1  0  0  0  0  0  0  0  0
    5.5995    3.7941   -3.3890 H   0  0  0  1  0  0  0  0  0  0  0  0
    5.7741    2.6307   -2.0966 H   0  0  0  1  0  0  0  0  0  0  0  0
    3.7431    6.2291   -3.1707 H   0  0  0  1  0  0  0  0  0  0  0  0
    3.1030    6.6474   -1.7650 H   0  0  0  1  0  0  0  0  0  0  0  0
  1  2  4  0  0  0  0
  1  6  4  0  0  0  0
  2  3  4  0  0  0  0
  2 18  1  0  0  0  0
  3  4  4  0  0  0  0
  4  5  4  0  0  0  0
  4  7  4  0  0  0  0
  5  6  4  0  0  0  0
  5  9  4  0  0  0  0
  6 25  1  0  0  0  0
  7  8  4  0  0  0  0
  7 26  1  0  0  0  0
  8  9  4  0  0  0  0
  9 10  1  0  0  0  0
 10 11  4  0  0  0  0
 10 15  4  0  0  0  0
 11 12  4  0  0  0  0
 11 27  1  0  0  0  0
 12 13  4  0  0  0  0
 12 28  1  0  0  0  0
 13 14  4  0  0  0  0
 13 16  1  0  0  0  0
 14 15  4  0  0  0  0
 14 29  1  0  0  0  0
 15 30  1  0  0  0  0
 16 17  1  0  0  0  0
 17 31  1  0  0  0  0
 17 32  1  0  0  0  0
 17 33  1  0  0  0  0
 18 19  1  0  0  0  0
 18 34  1  0  0  0  0
 19 20  1  0  0  0  0
 19 23  1  0  0  0  0
 19 35  1  0  0  0  0
 20 21  1  0  0  0  0
 20 36  1  0  0  0  0
 20 37  1  0  0  0  0
 21 22  1  0  0  0  0
 21 24  1  0  0  0  0
 21 38  1  0  0  0  0
 22 23  1  0  0  0  0
 22 39  1  0  0  0  0
 22 40  1  0  0  0  0
 23 41  1  0  0  0  0
 23 42  1  0  0  0  0
 24 43  1  0  0  0  0
 24 44  1  0  0  0  0
M  END
> <ConfClashScore>
0 

> <ConfOneFourInteractionScore>
-0.984337 

> <ConfScore>
-0.0923525 

> <ConfScorePBest>
0.00473946 

> <ConfTolerance>
0.34471 

$$$$
c13.sdf
 OpenBabel04162418043D

 44 47  0  0  0  0  0  0  0  0999 V2000
    2.1080   -0.3773   -1.8533 N   0  0  0  1  0  0  0  0  0  0  0  0
    2.5363    0.5907   -2.6455 C   0  0  0  1  0  0  0  0  0  0  0  0
    2.1525    0.6995   -3.8969 N   0  0  0  1  0  0  0  0  0  0  0  0
    1.2985   -0.1837   -4.4201 C   0  0  0  1  0  0  0  0  0  0  0  0
    0.8205   -1.2305   -3.6033 C   0  0  0  1  0  0  0  0  0  0  0  0
    1.2616   -1.2960   -2.2850 C   0  0  0  1  0  0  0  0  0  0  0  0
    0.7019   -0.3513   -5.6889 C   0  0  0  1  0  0  0  0  0  0  0  0
   -0.0690   -1.4010   -5.6537 N   0  0  0  1  0  0  0  0  0  0  0  0
   -0.0256   -1.9781   -4.3778 N   0  0  0  1  0  0  0  0  0  0  0  0
   -0.7743   -3.1273   -4.0836 C   0  0  0  1  0  0  0  0  0  0  0  0
   -1.3501   -3.7548   -5.1721 C   0  0  0  1  0  0  0  0  0  0  0  0
   -2.1062   -4.9023   -4.9905 C   0  0  0  1  0  0  0  0  0  0  0  0
   -2.2886   -5.4160   -3.7204 C   0  0  0  1  0  0  0  0  0  0  0  0
   -1.7110   -4.7866   -2.6287 C   0  0  0  1  0  0  0  0  0  0  0  0
   -0.9572   -3.6424   -2.8097 C   0  0  0  1  0  0  0  0  0  0  0  0
   -3.0079   -6.5235   -3.4200 O   0  0  0  1  0  0  0  0  0  0  0  0
   -3.7526   -7.1315   -4.4869 C   0  0  0  1  0  0  0  0  0  0  0  0
    3.4220    1.5244   -2.1389 N   0  0  0  1  0  0  0  0  0  0  0  0
    3.9748    2.5202   -3.0663 C   0  0  0  1  0  0  0  0  0  0  0  0
    4.3555    3.7937   -2.3160 C   0  0  0  1  0  0  0  0  0  0  0  0
    5.3824    4.4455   -3.2617 C   0  0  0  1  0  0  0  0  0  0  0  0
    6.0197    3.3029   -4.0368 C   0  0  0  1  0  0  0  0  0  0  0  0
    5.2651    2.0105   -3.6841 C   0  0  0  1  0  0  0  0  0  0  0  0
    4.6978    5.3948   -4.2007 N   0  0  0  1  0  0  0  0  0  0  0  0
    0.9318   -2.0527   -1.6522 H   0  0  0  1  0  0  0  0  0  0  0  0
    0.8527    0.2621   -6.5152 H   0  0  0  1  0  0  0  0  0  0  0  0
   -1.2162   -3.3660   -6.1273 H   0  0  0  1  0  0  0  0  0  0  0  0
   -2.5361   -5.3768   -5.8100 H   0  0  0  1  0  0  0  0  0  0  0  0
   -1.8449   -5.1754   -1.6734 H   0  0  0  1  0  0  0  0  0  0  0  0
   -0.5272   -3.1679   -1.9902 H   0  0  0  1  0  0  0  0  0  0  0  0
   -4.4150   -7.8694   -4.0847 H   0  0  0  1  0  0  0  0  0  0  0  0
   -3.0765   -7.5960   -5.1740 H   0  0  0  1  0  0  0  0  0  0  0  0
   -4.3212   -6.3821   -4.9969 H   0  0  0  1  0  0  0  0  0  0  0  0
    3.6726    1.5218   -1.1914 H   0  0  0  1  0  0  0  0  0  0  0  0
    3.2556    2.7364   -3.8284 H   0  0  0  1  0  0  0  0  0  0  0  0
    4.7942    3.5664   -1.3670 H   0  0  0  1  0  0  0  0  0  0  0  0
    3.5049    4.4271   -2.1738 H   0  0  0  1  0  0  0  0  0  0  0  0
    6.1242    4.9725   -2.6989 H   0  0  0  1  0  0  0  0  0  0  0  0
    7.0496    3.2083   -3.7625 H   0  0  0  1  0  0  0  0  0  0  0  0
    5.9456    3.4912   -5.0874 H   0  0  0  1  0  0  0  0  0  0  0  0
    5.8195    1.4217   -2.9834 H   0  0  0  1  0  0  0  0  0  0  0  0
    5.0675    1.4302   -4.5610 H   0  0  0  1  0  0  0  0  0  0  0  0
    3.9244    4.9515   -4.6078 H   0  0  0  1  0  0  0  0  0  0  0  0
    5.3244    5.6682   -4.9029 H   0  0  0  1  0  0  0  0  0  0  0  0
  1  2  4  0  0  0  0
  1  6  4  0  0  0  0
  2  3  4  0  0  0  0
  2 18  1  0  0  0  0
  3  4  4  0  0  0  0
  4  5  4  0  0  0  0
  4  7  4  0  0  0  0
  5  6  4  0  0  0  0
  5  9  4  0  0  0  0
  6 25  1  0  0  0  0
  7  8  4  0  0  0  0
  7 26  1  0  0  0  0
  8  9  4  0  0  0  0
  9 10  1  0  0  0  0
 10 11  4  0  0  0  0
 10 15  4  0  0  0  0
 11 12  4  0  0  0  0
 11 27  1  0  0  0  0
 12 13  4  0  0  0  0
 12 28  1  0  0  0  0
 13 14  4  0  0  0  0
 13 16  1  0  0  0  0
 14 15  4  0  0  0  0
 14 29  1  0  0  0  0
 15 30  1  0  0  0  0
 16 17  1  0  0  0  0
 17 31  1  0  0  0  0
 17 32  1  0  0  0  0
 17 33  1  0  0  0  0
 18 19  1  0  0  0  0
 18 34  1  0  0  0  0
 19 20  1  0  0  0  0
 19 23  1  0  0  0  0
 19 35  1  0  0  0  0
 20 21  1  0  0  0  0
 20 36  1  0  0  0  0
 20 37  1  0  0  0  0
 21 22  1  0  0  0  0
 21 24  1  0  0  0  0
 21 38  1  0  0  0  0
 22 23  1  0  0  0  0
 22 39  1  0  0  0  0
 22 40  1  0  0  0  0
 23 41  1  0  0  0  0
 23 42  1  0  0  0  0
 24 43  1  0  0  0  0
 24 44  1  0  0  0  0
M  END
> <ConfClashScore>
0 

> <ConfOneFourInteractionScore>
-0.984337 

> <ConfScore>
-0.0920877 

> <ConfScorePBest>
0.00472613 

> <ConfTolerance>
0.316539 

$$$$
c13.sdf
 OpenBabel04162418043D

 44 47  0  0  0  0  0  0  0  0999 V2000
    2.1080   -0.3774   -1.8533 N   0  0  0  1  0  0  0  0  0  0  0  0
    2.5363    0.5907   -2.6455 C   0  0  0  1  0  0  0  0  0  0  0  0
    2.1525    0.6996   -3.8969 N   0  0  0  1  0  0  0  0  0  0  0  0
    1.2985   -0.1838   -4.4201 C   0  0  0  1  0  0  0  0  0  0  0  0
    0.8204   -1.2305   -3.6034 C   0  0  0  1  0  0  0  0  0  0  0  0
    1.2616   -1.2960   -2.2850 C   0  0  0  1  0  0  0  0  0  0  0  0
    0.7018   -0.3512   -5.6890 C   0  0  0  1  0  0  0  0  0  0  0  0
   -0.0689   -1.4010   -5.6538 N   0  0  0  1  0  0  0  0  0  0  0  0
   -0.0256   -1.9781   -4.3778 N   0  0  0  1  0  0  0  0  0  0  0  0
   -0.7970   -3.1366   -4.1258 C   0  0  0  1  0  0  0  0  0  0  0  0
   -0.5479   -3.9015   -3.0018 C   0  0  0  1  0  0  0  0  0  0  0  0
   -1.3073   -5.0338   -2.7520 C   0  0  0  1  0  0  0  0  0  0  0  0
   -2.3100   -5.4011   -3.6295 C   0  0  0  1  0  0  0  0  0  0  0  0
   -2.5596   -4.6339   -4.7569 C   0  0  0  1  0  0  0  0  0  0  0  0
   -1.8024   -3.5048   -5.0061 C   0  0  0  1  0  0  0  0  0  0  0  0
   -3.0484   -6.5103   -3.3882 O   0  0  0  1  0  0  0  0  0  0  0  0
   -4.1154   -6.8005   -4.3046 C   0  0  0  1  0  0  0  0  0  0  0  0
    3.3890    1.4465   -2.0708 N   0  0  0  1  0  0  0  0  0  0  0  0
    3.8757    1.3930   -0.6980 C   0  0  0  1  0  0  0  0  0  0  0  0
    5.2717    2.0269   -0.5829 C   0  0  0  1  0  0  0  0  0  0  0  0
    5.2856    2.9113    0.6541 C   0  0  0  1  0  0  0  0  0  0  0  0
    3.9426    2.6625    1.3666 C   0  0  0  1  0  0  0  0  0  0  0  0
    3.0255    2.2589    0.2152 C   0  0  0  1  0  0  0  0  0  0  0  0
    6.4117    2.5421    1.5368 N   0  0  0  1  0  0  0  0  0  0  0  0
    0.9318   -2.0527   -1.6523 H   0  0  0  1  0  0  0  0  0  0  0  0
    0.8528    0.2621   -6.5152 H   0  0  0  1  0  0  0  0  0  0  0  0
    0.2092   -3.6273   -2.3435 H   0  0  0  1  0  0  0  0  0  0  0  0
   -1.1226   -5.6071   -1.9042 H   0  0  0  1  0  0  0  0  0  0  0  0
   -3.3167   -4.9080   -5.4151 H   0  0  0  1  0  0  0  0  0  0  0  0
   -1.9871   -2.9315   -5.8538 H   0  0  0  1  0  0  0  0  0  0  0  0
   -4.7536   -7.5494   -3.8842 H   0  0  0  1  0  0  0  0  0  0  0  0
   -3.7061   -7.1577   -5.2265 H   0  0  0  1  0  0  0  0  0  0  0  0
   -4.6813   -5.9108   -4.4861 H   0  0  0  1  0  0  0  0  0  0  0  0
    3.7190    2.1821   -2.6280 H   0  0  0  1  0  0  0  0  0  0  0  0
    3.8868    0.3771   -0.3622 H   0  0  0  1  0  0  0  0  0  0  0  0
    6.0120    1.2599   -0.4892 H   0  0  0  1  0  0  0  0  0  0  0  0
    5.4757    2.6158   -1.4526 H   0  0  0  1  0  0  0  0  0  0  0  0
    5.3735    3.9404    0.3745 H   0  0  0  1  0  0  0  0  0  0  0  0
    3.5903    3.5507    1.8480 H   0  0  0  1  0  0  0  0  0  0  0  0
    4.0274    1.8756    2.0869 H   0  0  0  1  0  0  0  0  0  0  0  0
    2.6790    3.1256   -0.3078 H   0  0  0  1  0  0  0  0  0  0  0  0
    2.1872    1.7043    0.5820 H   0  0  0  1  0  0  0  0  0  0  0  0
    6.2966    1.6190    1.8451 H   0  0  0  1  0  0  0  0  0  0  0  0
    6.4316    3.1443    2.3096 H   0  0  0  1  0  0  0  0  0  0  0  0
  1  2  4  0  0  0  0
  1  6  4  0  0  0  0
  2  3  4  0  0  0  0
  2 18  1  0  0  0  0
  3  4  4  0  0  0  0
  4  5  4  0  0  0  0
  4  7  4  0  0  0  0
  5  6  4  0  0  0  0
  5  9  4  0  0  0  0
  6 25  1  0  0  0  0
  7  8  4  0  0  0  0
  7 26  1  0  0  0  0
  8  9  4  0  0  0  0
  9 10  1  0  0  0  0
 10 11  4  0  0  0  0
 10 15  4  0  0  0  0
 11 12  4  0  0  0  0
 11 27  1  0  0  0  0
 12 13  4  0  0  0  0
 12 28  1  0  0  0  0
 13 14  4  0  0  0  0
 13 16  1  0  0  0  0
 14 15  4  0  0  0  0
 14 29  1  0  0  0  0
 15 30  1  0  0  0  0
 16 17  1  0  0  0  0
 17 31  1  0  0  0  0
 17 32  1  0  0  0  0
 17 33  1  0  0  0  0
 18 19  1  0  0  0  0
 18 34  1  0  0  0  0
 19 20  1  0  0  0  0
 19 23  1  0  0  0  0
 19 35  1  0  0  0  0
 20 21  1  0  0  0  0
 20 36  1  0  0  0  0
 20 37  1  0  0  0  0
 21 22  1  0  0  0  0
 21 24  1  0  0  0  0
 21 38  1  0  0  0  0
 22 23  1  0  0  0  0
 22 39  1  0  0  0  0
 22 40  1  0  0  0  0
 23 41  1  0  0  0  0
 23 42  1  0  0  0  0
 24 43  1  0  0  0  0
 24 44  1  0  0  0  0
M  END
> <ConfClashScore>
0 

> <ConfOneFourInteractionScore>
-0.984337 

> <ConfScore>
-0.0920877 

> <ConfScorePBest>
0.0047128 

> <ConfTolerance>
0.264248 

$$$$
c13.sdf
 OpenBabel04162418043D

 44 47  0  0  0  0  0  0  0  0999 V2000
    2.1079   -0.3773   -1.8533 N   0  0  0  1  0  0  0  0  0  0  0  0
    2.5363    0.5907   -2.6455 C   0  0  0  1  0  0  0  0  0  0  0  0
    2.1525    0.6996   -3.8968 N   0  0  0  1  0  0  0  0  0  0  0  0
    1.2986   -0.1837   -4.4201 C   0  0  0  1  0  0  0  0  0  0  0  0
    0.8204   -1.2305   -3.6033 C   0  0  0  1  0  0  0  0  0  0  0  0
    1.2615   -1.2960   -2.2850 C   0  0  0  1  0  0  0  0  0  0  0  0
    0.7019   -0.3513   -5.6890 C   0  0  0  1  0  0  0  0  0  0  0  0
   -0.0690   -1.4010   -5.6537 N   0  0  0  1  0  0  0  0  0  0  0  0
   -0.0256   -1.9781   -4.3778 N   0  0  0  1  0  0  0  0  0  0  0  0
   -0.7097   -3.1879   -4.1147 C   0  0  0  1  0  0  0  0  0  0  0  0
   -2.0734   -3.2699   -4.3231 C   0  0  0  1  0  0  0  0  0  0  0  0
   -2.7428   -4.4572   -4.0704 C   0  0  0  1  0  0  0  0  0  0  0  0
   -2.0474   -5.5572   -3.6049 C   0  0  0  1  0  0  0  0  0  0  0  0
   -0.6796   -5.4747   -3.3959 C   0  0  0  1  0  0  0  0  0  0  0  0
   -0.0120   -4.2910   -3.6479 C   0  0  0  1  0  0  0  0  0  0  0  0
   -2.6879   -6.7396   -3.4450 O   0  0  0  1  0  0  0  0  0  0  0  0
   -1.9672   -7.7925   -2.7857 C   0  0  0  1  0  0  0  0  0  0  0  0
    3.4293    1.5323   -2.1345 N   0  0  0  1  0  0  0  0  0  0  0  0
    3.9368    2.4934   -3.1149 C   0  0  0  1  0  0  0  0  0  0  0  0
    4.6579    3.7020   -2.4091 C   0  0  0  1  0  0  0  0  0  0  0  0
    5.5420    4.2521   -3.5741 C   0  0  0  1  0  0  0  0  0  0  0  0
    5.8849    3.0599   -4.4700 C   0  0  0  1  0  0  0  0  0  0  0  0
    5.0604    1.8914   -3.9475 C   0  0  0  1  0  0  0  0  0  0  0  0
    4.7919    5.2712   -4.3464 N   0  0  0  1  0  0  0  0  0  0  0  0
    0.9317   -2.0527   -1.6523 H   0  0  0  1  0  0  0  0  0  0  0  0
    0.8529    0.2620   -6.5152 H   0  0  0  1  0  0  0  0  0  0  0  0
   -2.5974   -2.4411   -4.6696 H   0  0  0  1  0  0  0  0  0  0  0  0
   -3.7684   -4.5202   -4.2310 H   0  0  0  1  0  0  0  0  0  0  0  0
   -0.1556   -6.3036   -3.0495 H   0  0  0  1  0  0  0  0  0  0  0  0
    1.0136   -4.2279   -3.4872 H   0  0  0  1  0  0  0  0  0  0  0  0
   -1.7189   -7.4866   -1.7910 H   0  0  0  1  0  0  0  0  0  0  0  0
   -1.0694   -8.0038   -3.3282 H   0  0  0  1  0  0  0  0  0  0  0  0
   -2.5763   -8.6713   -2.7470 H   0  0  0  1  0  0  0  0  0  0  0  0
    3.6964    1.5492   -1.1917 H   0  0  0  1  0  0  0  0  0  0  0  0
    3.1321    2.8301   -3.7347 H   0  0  0  1  0  0  0  0  0  0  0  0
    3.9548    4.4346   -2.0713 H   0  0  0  1  0  0  0  0  0  0  0  0
    5.2559    3.3741   -1.5845 H   0  0  0  1  0  0  0  0  0  0  0  0
    6.4373    4.6880   -3.1827 H   0  0  0  1  0  0  0  0  0  0  0  0
    6.9293    2.8356   -4.4065 H   0  0  0  1  0  0  0  0  0  0  0  0
    5.6263    3.2723   -5.4863 H   0  0  0  1  0  0  0  0  0  0  0  0
    5.6678    1.2521   -3.3415 H   0  0  0  1  0  0  0  0  0  0  0  0
    4.6556    1.3305   -4.7640 H   0  0  0  1  0  0  0  0  0  0  0  0
    3.9138    4.9133   -4.5938 H   0  0  0  1  0  0  0  0  0  0  0  0
    5.2919    5.4993   -5.1577 H   0  0  0  1  0  0  0  0  0  0  0  0
  1  2  4  0  0  0  0
  1  6  4  0  0  0  0
  2  3  4  0  0  0  0
  2 18  1  0  0  0  0
  3  4  4  0  0  0  0
  4  5  4  0  0  0  0
  4  7  4  0  0  0  0
  5  6  4  0  0  0  0
  5  9  4  0  0  0  0
  6 25  1  0  0  0  0
  7  8  4  0  0  0  0
  7 26  1  0  0  0  0
  8  9  4  0  0  0  0
  9 10  1  0  0  0  0
 10 11  4  0  0  0  0
 10 15  4  0  0  0  0
 11 12  4  0  0  0  0
 11 27  1  0  0  0  0
 12 13  4  0  0  0  0
 12 28  1  0  0  0  0
 13 14  4  0  0  0  0
 13 16  1  0  0  0  0
 14 15  4  0  0  0  0
 14 29  1  0  0  0  0
 15 30  1  0  0  0  0
 16 17  1  0  0  0  0
 17 31  1  0  0  0  0
 17 32  1  0  0  0  0
 17 33  1  0  0  0  0
 18 19  1  0  0  0  0
 18 34  1  0  0  0  0
 19 20  1  0  0  0  0
 19 23  1  0  0  0  0
 19 35  1  0  0  0  0
 20 21  1  0  0  0  0
 20 36  1  0  0  0  0
 20 37  1  0  0  0  0
 21 22  1  0  0  0  0
 21 24  1  0  0  0  0
 21 38  1  0  0  0  0
 22 23  1  0  0  0  0
 22 39  1  0  0  0  0
 22 40  1  0  0  0  0
 23 41  1  0  0  0  0
 23 42  1  0  0  0  0
 24 43  1  0  0  0  0
 24 44  1  0  0  0  0
M  END
> <ConfClashScore>
0 

> <ConfOneFourInteractionScore>
-0.984337 

> <ConfScore>
-0.0897286 

> <ConfScorePBest>
0.00469947 

> <ConfTolerance>
0.29062 

$$$$
c13.sdf
 OpenBabel04162418043D

 44 47  0  0  0  0  0  0  0  0999 V2000
    2.1080   -0.3774   -1.8532 N   0  0  0  1  0  0  0  0  0  0  0  0
    2.5363    0.5907   -2.6455 C   0  0  0  1  0  0  0  0  0  0  0  0
    2.1525    0.6996   -3.8968 N   0  0  0  1  0  0  0  0  0  0  0  0
    1.2986   -0.1837   -4.4201 C   0  0  0  1  0  0  0  0  0  0  0  0
    0.8204   -1.2305   -3.6033 C   0  0  0  1  0  0  0  0  0  0  0  0
    1.2616   -1.2960   -2.2850 C   0  0  0  1  0  0  0  0  0  0  0  0
    0.7018   -0.3512   -5.6889 C   0  0  0  1  0  0  0  0  0  0  0  0
   -0.0690   -1.4010   -5.6537 N   0  0  0  1  0  0  0  0  0  0  0  0
   -0.0256   -1.9781   -4.3778 N   0  0  0  1  0  0  0  0  0  0  0  0
   -0.8666   -3.0845   -4.0670 C   0  0  0  1  0  0  0  0  0  0  0  0
   -0.3564   -4.1675   -3.3763 C   0  0  0  1  0  0  0  0  0  0  0  0
   -1.1764   -5.2421   -3.0690 C   0  0  0  1  0  0  0  0  0  0  0  0
   -2.5026   -5.2330   -3.4580 C   0  0  0  1  0  0  0  0  0  0  0  0
   -3.0141   -4.1466   -4.1507 C   0  0  0  1  0  0  0  0  0  0  0  0
   -2.1967   -3.0752   -4.4571 C   0  0  0  1  0  0  0  0  0  0  0  0
   -3.3023   -6.2852   -3.1623 O   0  0  0  1  0  0  0  0  0  0  0  0
   -4.6242   -6.2827   -3.7237 C   0  0  0  1  0  0  0  0  0  0  0  0
    3.3977    1.4989   -2.1526 N   0  0  0  1  0  0  0  0  0  0  0  0
    3.9538    1.5966   -0.8022 C   0  0  0  1  0  0  0  0  0  0  0  0
    5.2694    0.8138   -0.7054 C   0  0  0  1  0  0  0  0  0  0  0  0
    6.3222    1.7954   -0.1850 C   0  0  0  1  0  0  0  0  0  0  0  0
    5.5364    2.9479    0.4450 C   0  0  0  1  0  0  0  0  0  0  0  0
    4.3211    3.0486   -0.4770 C   0  0  0  1  0  0  0  0  0  0  0  0
    7.1885    1.1364    0.8363 N   0  0  0  1  0  0  0  0  0  0  0  0
    0.9318   -2.0527   -1.6523 H   0  0  0  1  0  0  0  0  0  0  0  0
    0.8527    0.2621   -6.5151 H   0  0  0  1  0  0  0  0  0  0  0  0
    0.6425   -4.1763   -3.0871 H   0  0  0  1  0  0  0  0  0  0  0  0
   -0.7936   -6.0553   -2.5459 H   0  0  0  1  0  0  0  0  0  0  0  0
   -4.0131   -4.1379   -4.4398 H   0  0  0  1  0  0  0  0  0  0  0  0
   -2.5795   -2.2619   -4.9803 H   0  0  0  1  0  0  0  0  0  0  0  0
   -5.1777   -5.4557   -3.3304 H   0  0  0  1  0  0  0  0  0  0  0  0
   -5.1206   -7.1962   -3.4707 H   0  0  0  1  0  0  0  0  0  0  0  0
   -4.5594   -6.1942   -4.7879 H   0  0  0  1  0  0  0  0  0  0  0  0
    3.6929    2.1886   -2.7832 H   0  0  0  1  0  0  0  0  0  0  0  0
    3.2428    1.2228   -0.0952 H   0  0  0  1  0  0  0  0  0  0  0  0
    5.5521    0.4457   -1.6695 H   0  0  0  1  0  0  0  0  0  0  0  0
    5.1620   -0.0067   -0.0271 H   0  0  0  1  0  0  0  0  0  0  0  0
    6.9287    2.1536   -0.9904 H   0  0  0  1  0  0  0  0  0  0  0  0
    5.2447    2.7164    1.4481 H   0  0  0  1  0  0  0  0  0  0  0  0
    6.1048    3.8546    0.4386 H   0  0  0  1  0  0  0  0  0  0  0  0
    3.5109    3.5398    0.0201 H   0  0  0  1  0  0  0  0  0  0  0  0
    4.5692    3.5833   -1.3700 H   0  0  0  1  0  0  0  0  0  0  0  0
    7.8341    1.7856    1.1857 H   0  0  0  1  0  0  0  0  0  0  0  0
    7.6686    0.3883    0.4236 H   0  0  0  1  0  0  0  0  0  0  0  0
  1  2  4  0  0  0  0
  1  6  4  0  0  0  0
  2  3  4  0  0  0  0
  2 18  1  0  0  0  0
  3  4  4  0  0  0  0
  4  5  4  0  0  0  0
  4  7  4  0  0  0  0
  5  6  4  0  0  0  0
  5  9  4  0  0  0  0
  6 25  1  0  0  0  0
  7  8  4  0  0  0  0
  7 26  1  0  0  0  0
  8  9  4  0  0  0  0
  9 10  1  0  0  0  0
 10 11  4  0  0  0  0
 10 15  4  0  0  0  0
 11 12  4  0  0  0  0
 11 27  1  0  0  0  0
 12 13  4  0  0  0  0
 12 28  1  0  0  0  0
 13 14  4  0  0  0  0
 13 16  1  0  0  0  0
 14 15  4  0  0  0  0
 14 29  1  0  0  0  0
 15 30  1  0  0  0  0
 16 17  1  0  0  0  0
 17 31  1  0  0  0  0
 17 32  1  0  0  0  0
 17 33  1  0  0  0  0
 18 19  1  0  0  0  0
 18 34  1  0  0  0  0
 19 20  1  0  0  0  0
 19 23  1  0  0  0  0
 19 35  1  0  0  0  0
 20 21  1  0  0  0  0
 20 36  1  0  0  0  0
 20 37  1  0  0  0  0
 21 22  1  0  0  0  0
 21 24  1  0  0  0  0
 21 38  1  0  0  0  0
 22 23  1  0  0  0  0
 22 39  1  0  0  0  0
 22 40  1  0  0  0  0
 23 41  1  0  0  0  0
 23 42  1  0  0  0  0
 24 43  1  0  0  0  0
 24 44  1  0  0  0  0
M  END
> <ConfClashScore>
0 

> <ConfOneFourInteractionScore>
-0.984337 

> <ConfScore>
-0.0894317 

> <ConfScorePBest>
0.00468614 

> <ConfTolerance>
0.290729 

$$$$
c13.sdf
 OpenBabel04162418043D

 44 47  0  0  0  0  0  0  0  0999 V2000
    2.1079   -0.3773   -1.8532 N   0  0  0  1  0  0  0  0  0  0  0  0
    2.5364    0.5907   -2.6454 C   0  0  0  1  0  0  0  0  0  0  0  0
    2.1525    0.6996   -3.8968 N   0  0  0  1  0  0  0  0  0  0  0  0
    1.2985   -0.1837   -4.4202 C   0  0  0  1  0  0  0  0  0  0  0  0
    0.8204   -1.2305   -3.6034 C   0  0  0  1  0  0  0  0  0  0  0  0
    1.2615   -1.2960   -2.2850 C   0  0  0  1  0  0  0  0  0  0  0  0
    0.7020   -0.3513   -5.6890 C   0  0  0  1  0  0  0  0  0  0  0  0
   -0.0689   -1.4010   -5.6538 N   0  0  0  1  0  0  0  0  0  0  0  0
   -0.0256   -1.9781   -4.3778 N   0  0  0  1  0  0  0  0  0  0  0  0
   -0.7779   -3.1329   -4.0822 C   0  0  0  1  0  0  0  0  0  0  0  0
   -2.1182   -3.2446   -4.4004 C   0  0  0  1  0  0  0  0  0  0  0  0
   -2.8092   -4.4058   -4.0912 C   0  0  0  1  0  0  0  0  0  0  0  0
   -2.1595   -5.4497   -3.4601 C   0  0  0  1  0  0  0  0  0  0  0  0
   -0.8152   -5.3374   -3.1410 C   0  0  0  1  0  0  0  0  0  0  0  0
   -0.1260   -4.1797   -3.4492 C   0  0  0  1  0  0  0  0  0  0  0  0
   -2.8360   -6.5820   -3.1534 O   0  0  0  1  0  0  0  0  0  0  0  0
   -2.0810   -7.6644   -2.5869 C   0  0  0  1  0  0  0  0  0  0  0  0
    3.3977    1.4989   -2.1526 N   0  0  0  1  0  0  0  0  0  0  0  0
    4.0305    1.6461   -0.8380 C   0  0  0  1  0  0  0  0  0  0  0  0
    5.4471    2.2200   -0.9639 C   0  0  0  1  0  0  0  0  0  0  0  0
    5.3171    3.7348   -1.0875 C   0  0  0  1  0  0  0  0  0  0  0  0
    3.8794    4.0502   -0.5457 C   0  0  0  1  0  0  0  0  0  0  0  0
    3.3079    2.7374    0.0210 C   0  0  0  1  0  0  0  0  0  0  0  0
    6.3597    4.4259   -0.2587 N   0  0  0  1  0  0  0  0  0  0  0  0
    0.9317   -2.0526   -1.6522 H   0  0  0  1  0  0  0  0  0  0  0  0
    0.8529    0.2620   -6.5152 H   0  0  0  1  0  0  0  0  0  0  0  0
   -2.6083   -2.4576   -4.8717 H   0  0  0  1  0  0  0  0  0  0  0  0
   -3.8168   -4.4916   -4.3343 H   0  0  0  1  0  0  0  0  0  0  0  0
   -0.3251   -6.1243   -2.6698 H   0  0  0  1  0  0  0  0  0  0  0  0
    0.8816   -4.0938   -3.2062 H   0  0  0  1  0  0  0  0  0  0  0  0
   -1.5872   -7.3291   -1.6989 H   0  0  0  1  0  0  0  0  0  0  0  0
   -1.3523   -7.9997   -3.2951 H   0  0  0  1  0  0  0  0  0  0  0  0
   -2.7411   -8.4710   -2.3448 H   0  0  0  1  0  0  0  0  0  0  0  0
    3.6504    2.1949   -2.7946 H   0  0  0  1  0  0  0  0  0  0  0  0
    4.0381    0.7004   -0.3374 H   0  0  0  1  0  0  0  0  0  0  0  0
    5.9267    1.8222   -1.8338 H   0  0  0  1  0  0  0  0  0  0  0  0
    6.0204    1.9721   -0.0951 H   0  0  0  1  0  0  0  0  0  0  0  0
    5.4120    4.0404   -2.1084 H   0  0  0  1  0  0  0  0  0  0  0  0
    3.2584    4.4072   -1.3405 H   0  0  0  1  0  0  0  0  0  0  0  0
    3.9327    4.7897    0.2257 H   0  0  0  1  0  0  0  0  0  0  0  0
    3.5449    2.6302    1.0590 H   0  0  0  1  0  0  0  0  0  0  0  0
    2.2469    2.6907   -0.1097 H   0  0  0  1  0  0  0  0  0  0  0  0
    6.2588    5.3966   -0.3490 H   0  0  0  1  0  0  0  0  0  0  0  0
    7.2511    4.1602   -0.5674 H   0  0  0  1  0  0  0  0  0  0  0  0
  1  2  4  0  0  0  0
  1  6  4  0  0  0  0
  2  3  4  0  0  0  0
  2 18  1  0  0  0  0
  3  4  4  0  0  0  0
  4  5  4  0  0  0  0
  4  7  4  0  0  0  0
  5  6  4  0  0  0  0
  5  9  4  0  0  0  0
  6 25  1  0  0  0  0
  7  8  4  0  0  0  0
  7 26  1  0  0  0  0
  8  9  4  0  0  0  0
  9 10  1  0  0  0  0
 10 11  4  0  0  0  0
 10 15  4  0  0  0  0
 11 12  4  0  0  0  0
 11 27  1  0  0  0  0
 12 13  4  0  0  0  0
 12 28  1  0  0  0  0
 13 14  4  0  0  0  0
 13 16  1  0  0  0  0
 14 15  4  0  0  0  0
 14 29  1  0  0  0  0
 15 30  1  0  0  0  0
 16 17  1  0  0  0  0
 17 31  1  0  0  0  0
 17 32  1  0  0  0  0
 17 33  1  0  0  0  0
 18 19  1  0  0  0  0
 18 34  1  0  0  0  0
 19 20  1  0  0  0  0
 19 23  1  0  0  0  0
 19 35  1  0  0  0  0
 20 21  1  0  0  0  0
 20 36  1  0  0  0  0
 20 37  1  0  0  0  0
 21 22  1  0  0  0  0
 21 24  1  0  0  0  0
 21 38  1  0  0  0  0
 22 23  1  0  0  0  0
 22 39  1  0  0  0  0
 22 40  1  0  0  0  0
 23 41  1  0  0  0  0
 23 42  1  0  0  0  0
 24 43  1  0  0  0  0
 24 44  1  0  0  0  0
M  END
> <ConfClashScore>
0 

> <ConfOneFourInteractionScore>
-0.984337 

> <ConfScore>
-0.0875106 

> <ConfScorePBest>
0.00467282 

> <ConfTolerance>
0.306498 

$$$$
c13.sdf
 OpenBabel04162418043D

 44 47  0  0  0  0  0  0  0  0999 V2000
    2.1080   -0.3775   -1.8532 N   0  0  0  1  0  0  0  0  0  0  0  0
    2.5363    0.5907   -2.6455 C   0  0  0  1  0  0  0  0  0  0  0  0
    2.1525    0.6997   -3.8967 N   0  0  0  1  0  0  0  0  0  0  0  0
    1.2985   -0.1838   -4.4201 C   0  0  0  1  0  0  0  0  0  0  0  0
    0.8205   -1.2304   -3.6033 C   0  0  0  1  0  0  0  0  0  0  0  0
    1.2616   -1.2961   -2.2850 C   0  0  0  1  0  0  0  0  0  0  0  0
    0.7019   -0.3512   -5.6890 C   0  0  0  1  0  0  0  0  0  0  0  0
   -0.0689   -1.4010   -5.6537 N   0  0  0  1  0  0  0  0  0  0  0  0
   -0.0256   -1.9781   -4.3778 N   0  0  0  1  0  0  0  0  0  0  0  0
   -0.7856   -3.1447   -4.0792 C   0  0  0  1  0  0  0  0  0  0  0  0
   -0.7687   -4.2211   -4.9461 C   0  0  0  1  0  0  0  0  0  0  0  0
   -1.5043   -5.3587   -4.6527 C   0  0  0  1  0  0  0  0  0  0  0  0
   -2.2589   -5.4148   -3.4961 C   0  0  0  1  0  0  0  0  0  0  0  0
   -2.2757   -4.3352   -2.6266 C   0  0  0  1  0  0  0  0  0  0  0  0
   -1.5423   -3.2008   -2.9191 C   0  0  0  1  0  0  0  0  0  0  0  0
   -2.9382   -6.5728   -3.3190 O   0  0  0  1  0  0  0  0  0  0  0  0
   -3.8464   -6.6375   -2.2083 C   0  0  0  1  0  0  0  0  0  0  0  0
    3.4098    1.5117   -2.1455 N   0  0  0  1  0  0  0  0  0  0  0  0
    3.7716    1.5387   -0.7253 C   0  0  0  1  0  0  0  0  0  0  0  0
    5.1892    0.9928   -0.5223 C   0  0  0  1  0  0  0  0  0  0  0  0
    6.0973    2.2196   -0.6085 C   0  0  0  1  0  0  0  0  0  0  0  0
    5.2773    3.2781    0.1333 C   0  0  0  1  0  0  0  0  0  0  0  0
    3.8153    2.9827   -0.2097 C   0  0  0  1  0  0  0  0  0  0  0  0
    7.4069    1.9740    0.0701 N   0  0  0  1  0  0  0  0  0  0  0  0
    0.9318   -2.0528   -1.6523 H   0  0  0  1  0  0  0  0  0  0  0  0
    0.8528    0.2622   -6.5151 H   0  0  0  1  0  0  0  0  0  0  0  0
   -0.2042   -4.1774   -5.8184 H   0  0  0  1  0  0  0  0  0  0  0  0
   -1.4884   -6.1701   -5.3030 H   0  0  0  1  0  0  0  0  0  0  0  0
   -2.8403   -4.3789   -1.7544 H   0  0  0  1  0  0  0  0  0  0  0  0
   -1.5582   -2.3893   -2.2689 H   0  0  0  1  0  0  0  0  0  0  0  0
   -4.4059   -7.5483   -2.2571 H   0  0  0  1  0  0  0  0  0  0  0  0
   -4.5171   -5.8047   -2.2474 H   0  0  0  1  0  0  0  0  0  0  0  0
   -3.2929   -6.6078   -1.2932 H   0  0  0  1  0  0  0  0  0  0  0  0
    3.8056    2.1723   -2.7516 H   0  0  0  1  0  0  0  0  0  0  0  0
    3.0647    0.9624   -0.1657 H   0  0  0  1  0  0  0  0  0  0  0  0
    5.4348    0.2879   -1.2890 H   0  0  0  1  0  0  0  0  0  0  0  0
    5.2789    0.5243    0.4354 H   0  0  0  1  0  0  0  0  0  0  0  0
    6.2698    2.5044   -1.6254 H   0  0  0  1  0  0  0  0  0  0  0  0
    5.4359    3.2010    1.1886 H   0  0  0  1  0  0  0  0  0  0  0  0
    5.5474    4.2590   -0.1978 H   0  0  0  1  0  0  0  0  0  0  0  0
    3.4702    3.6558   -0.9665 H   0  0  0  1  0  0  0  0  0  0  0  0
    3.2038    3.0822    0.6627 H   0  0  0  1  0  0  0  0  0  0  0  0
    7.8166    1.1616   -0.2938 H   0  0  0  1  0  0  0  0  0  0  0  0
    7.2600    1.8625    1.0326 H   0  0  0  1  0  0  0  0  0  0  0  0
  1  2  4  0  0  0  0
  1  6  4  0  0  0  0
  2  3  4  0  0  0  0
  2 18  1  0  0  0  0
  3  4  4  0  0  0  0
  4  5  4  0  0  0  0
  4  7  4  0  0  0  0
  5  6  4  0  0  0  0
  5  9  4  0  0  0  0
  6 25  1  0  0  0  0
  7  8  4  0  0  0  0
  7 26  1  0  0  0  0
  8  9  4  0  0  0  0
  9 10  1  0  0  0  0
 10 11  4  0  0  0  0
 10 15  4  0  0  0  0
 11 12  4  0  0  0  0
 11 27  1  0  0  0  0
 12 13  4  0  0  0  0
 12 28  1  0  0  0  0
 13 14  4  0  0  0  0
 13 16  1  0  0  0  0
 14 15  4  0  0  0  0
 14 29  1  0  0  0  0
 15 30  1  0  0  0  0
 16 17  1  0  0  0  0
 17 31  1  0  0  0  0
 17 32  1  0  0  0  0
 17 33  1  0  0  0  0
 18 19  1  0  0  0  0
 18 34  1  0  0  0  0
 19 20  1  0  0  0  0
 19 23  1  0  0  0  0
 19 35  1  0  0  0  0
 20 21  1  0  0  0  0
 20 36  1  0  0  0  0
 20 37  1  0  0  0  0
 21 22  1  0  0  0  0
 21 24  1  0  0  0  0
 21 38  1  0  0  0  0
 22 23  1  0  0  0  0
 22 39  1  0  0  0  0
 22 40  1  0  0  0  0
 23 41  1  0  0  0  0
 23 42  1  0  0  0  0
 24 43  1  0  0  0  0
 24 44  1  0  0  0  0
M  END
> <ConfClashScore>
0 

> <ConfOneFourInteractionScore>
-0.984337 

> <ConfScore>
-0.0858745 

> <ConfScorePBest>
0.00465949 

> <ConfTolerance>
0.233821 

$$$$
c13.sdf
 OpenBabel04162418043D

 44 47  0  0  0  0  0  0  0  0999 V2000
    2.1079   -0.3773   -1.8532 N   0  0  0  1  0  0  0  0  0  0  0  0
    2.5364    0.5907   -2.6455 C   0  0  0  1  0  0  0  0  0  0  0  0
    2.1526    0.6997   -3.8968 N   0  0  0  1  0  0  0  0  0  0  0  0
    1.2985   -0.1837   -4.4201 C   0  0  0  1  0  0  0  0  0  0  0  0
    0.8205   -1.2304   -3.6033 C   0  0  0  1  0  0  0  0  0  0  0  0
    1.2615   -1.2960   -2.2849 C   0  0  0  1  0  0  0  0  0  0  0  0
    0.7020   -0.3513   -5.6890 C   0  0  0  1  0  0  0  0  0  0  0  0
   -0.0689   -1.4010   -5.6538 N   0  0  0  1  0  0  0  0  0  0  0  0
   -0.0256   -1.9781   -4.3778 N   0  0  0  1  0  0  0  0  0  0  0  0
   -0.7856   -3.1447   -4.0791 C   0  0  0  1  0  0  0  0  0  0  0  0
   -0.6185   -3.7866   -2.8667 C   0  0  0  1  0  0  0  0  0  0  0  0
   -1.3621   -4.9192   -2.5739 C   0  0  0  1  0  0  0  0  0  0  0  0
   -2.2671   -5.4095   -3.4964 C   0  0  0  1  0  0  0  0  0  0  0  0
   -2.4347   -4.7655   -4.7123 C   0  0  0  1  0  0  0  0  0  0  0  0
   -1.6931   -3.6363   -5.0045 C   0  0  0  1  0  0  0  0  0  0  0  0
   -3.0387   -6.5006   -3.3258 O   0  0  0  1  0  0  0  0  0  0  0  0
   -2.8994   -7.1545   -2.0431 C   0  0  0  1  0  0  0  0  0  0  0  0
    3.3977    1.4989   -2.1526 N   0  0  0  1  0  0  0  0  0  0  0  0
    3.8483    1.5245   -0.7602 C   0  0  0  1  0  0  0  0  0  0  0  0
    5.1643    2.2851   -0.6333 C   0  0  0  1  0  0  0  0  0  0  0  0
    5.0690    3.1623    0.6209 C   0  0  0  1  0  0  0  0  0  0  0  0
    3.5678    3.6062    0.5992 C   0  0  0  1  0  0  0  0  0  0  0  0
    2.8423    2.3304    0.1333 C   0  0  0  1  0  0  0  0  0  0  0  0
    5.3805    2.3916    1.8366 N   0  0  0  1  0  0  0  0  0  0  0  0
    0.9317   -2.0526   -1.6522 H   0  0  0  1  0  0  0  0  0  0  0  0
    0.8529    0.2620   -6.5152 H   0  0  0  1  0  0  0  0  0  0  0  0
    0.0654   -3.4201   -2.1741 H   0  0  0  1  0  0  0  0  0  0  0  0
   -1.2393   -5.4000   -1.6599 H   0  0  0  1  0  0  0  0  0  0  0  0
   -3.1185   -5.1321   -5.4050 H   0  0  0  1  0  0  0  0  0  0  0  0
   -1.8160   -3.1555   -5.9184 H   0  0  0  1  0  0  0  0  0  0  0  0
   -3.5289   -8.0193   -2.0128 H   0  0  0  1  0  0  0  0  0  0  0  0
   -3.1858   -6.4779   -1.2651 H   0  0  0  1  0  0  0  0  0  0  0  0
   -1.8808   -7.4500   -1.9024 H   0  0  0  1  0  0  0  0  0  0  0  0
    3.7440    2.1840   -2.7618 H   0  0  0  1  0  0  0  0  0  0  0  0
    3.9544    0.5223   -0.4007 H   0  0  0  1  0  0  0  0  0  0  0  0
    5.9769    1.5957   -0.5363 H   0  0  0  1  0  0  0  0  0  0  0  0
    5.3171    2.8978   -1.4971 H   0  0  0  1  0  0  0  0  0  0  0  0
    5.7240    4.0058    0.5551 H   0  0  0  1  0  0  0  0  0  0  0  0
    3.4136    4.4105   -0.0894 H   0  0  0  1  0  0  0  0  0  0  0  0
    3.2394    3.9024    1.5736 H   0  0  0  1  0  0  0  0  0  0  0  0
    2.5529    1.7435    0.9800 H   0  0  0  1  0  0  0  0  0  0  0  0
    1.9737    2.5896   -0.4352 H   0  0  0  1  0  0  0  0  0  0  0  0
    5.1192    2.9082    2.6273 H   0  0  0  1  0  0  0  0  0  0  0  0
    6.3428    2.2087    1.8695 H   0  0  0  1  0  0  0  0  0  0  0  0
  1  2  4  0  0  0  0
  1  6  4  0  0  0  0
  2  3  4  0  0  0  0
  2 18  1  0  0  0  0
  3  4  4  0  0  0  0
  4  5  4  0  0  0  0
  4  7  4  0  0  0  0
  5  6  4  0  0  0  0
  5  9  4  0  0  0  0
  6 25  1  0  0  0  0
  7  8  4  0  0  0  0
  7 26  1  0  0  0  0
  8  9  4  0  0  0  0
  9 10  1  0  0  0  0
 10 11  4  0  0  0  0
 10 15  4  0  0  0  0
 11 12  4  0  0  0  0
 11 27  1  0  0  0  0
 12 13  4  0  0  0  0
 12 28  1  0  0  0  0
 13 14  4  0  0  0  0
 13 16  1  0  0  0  0
 14 15  4  0  0  0  0
 14 29  1  0  0  0  0
 15 30  1  0  0  0  0
 16 17  1  0  0  0  0
 17 31  1  0  0  0  0
 17 32  1  0  0  0  0
 17 33  1  0  0  0  0
 18 19  1  0  0  0  0
 18 34  1  0  0  0  0
 19 20  1  0  0  0  0
 19 23  1  0  0  0  0
 19 35  1  0  0  0  0
 20 21  1  0  0  0  0
 20 36  1  0  0  0  0
 20 37  1  0  0  0  0
 21 22  1  0  0  0  0
 21 24  1  0  0  0  0
 21 38  1  0  0  0  0
 22 23  1  0  0  0  0
 22 39  1  0  0  0  0
 22 40  1  0  0  0  0
 23 41  1  0  0  0  0
 23 42  1  0  0  0  0
 24 43  1  0  0  0  0
 24 44  1  0  0  0  0
M  END
> <ConfClashScore>
0 

> <ConfOneFourInteractionScore>
-0.984337 

> <ConfScore>
-0.0858234 

> <ConfScorePBest>
0.00464616 

> <ConfTolerance>
0.340573 

$$$$
c13.sdf
 OpenBabel04162418043D

 44 47  0  0  0  0  0  0  0  0999 V2000
    2.1080   -0.3773   -1.8532 N   0  0  0  1  0  0  0  0  0  0  0  0
    2.5364    0.5908   -2.6455 C   0  0  0  1  0  0  0  0  0  0  0  0
    2.1525    0.6996   -3.8968 N   0  0  0  1  0  0  0  0  0  0  0  0
    1.2985   -0.1838   -4.4201 C   0  0  0  1  0  0  0  0  0  0  0  0
    0.8204   -1.2305   -3.6033 C   0  0  0  1  0  0  0  0  0  0  0  0
    1.2616   -1.2959   -2.2849 C   0  0  0  1  0  0  0  0  0  0  0  0
    0.7019   -0.3512   -5.6890 C   0  0  0  1  0  0  0  0  0  0  0  0
   -0.0689   -1.4010   -5.6537 N   0  0  0  1  0  0  0  0  0  0  0  0
   -0.0256   -1.9781   -4.3778 N   0  0  0  1  0  0  0  0  0  0  0  0
   -0.7841   -3.1424   -4.0796 C   0  0  0  1  0  0  0  0  0  0  0  0
   -0.2013   -4.2927   -3.5828 C   0  0  0  1  0  0  0  0  0  0  0  0
   -0.9947   -5.3672   -3.2122 C   0  0  0  1  0  0  0  0  0  0  0  0
   -2.3684   -5.2902   -3.3446 C   0  0  0  1  0  0  0  0  0  0  0  0
   -2.9528   -4.1363   -3.8430 C   0  0  0  1  0  0  0  0  0  0  0  0
   -2.1618   -3.0649   -4.2126 C   0  0  0  1  0  0  0  0  0  0  0  0
   -3.2763   -6.2462   -3.0351 O   0  0  0  1  0  0  0  0  0  0  0  0
   -2.7692   -7.5082   -2.5741 C   0  0  0  1  0  0  0  0  0  0  0  0
    3.3977    1.4989   -2.1527 N   0  0  0  1  0  0  0  0  0  0  0  0
    3.9906    1.4202   -0.8167 C   0  0  0  1  0  0  0  0  0  0  0  0
    5.3670    0.7543   -0.8819 C   0  0  0  1  0  0  0  0  0  0  0  0
    6.2854    1.5597    0.0456 C   0  0  0  1  0  0  0  0  0  0  0  0
    5.3718    2.5783    0.7360 C   0  0  0  1  0  0  0  0  0  0  0  0
    4.2372    2.8240   -0.2586 C   0  0  0  1  0  0  0  0  0  0  0  0
    6.9263    0.6625    1.0556 N   0  0  0  1  0  0  0  0  0  0  0  0
    0.9317   -2.0525   -1.6522 H   0  0  0  1  0  0  0  0  0  0  0  0
    0.8529    0.2621   -6.5153 H   0  0  0  1  0  0  0  0  0  0  0  0
    0.8326   -4.3523   -3.4868 H   0  0  0  1  0  0  0  0  0  0  0  0
   -0.5564   -6.2315   -2.8345 H   0  0  0  1  0  0  0  0  0  0  0  0
   -3.9867   -4.0768   -3.9389 H   0  0  0  1  0  0  0  0  0  0  0  0
   -2.6001   -2.2007   -4.5903 H   0  0  0  1  0  0  0  0  0  0  0  0
   -2.2087   -7.3609   -1.6747 H   0  0  0  1  0  0  0  0  0  0  0  0
   -2.1349   -7.9328   -3.3239 H   0  0  0  1  0  0  0  0  0  0  0  0
   -3.5864   -8.1713   -2.3804 H   0  0  0  1  0  0  0  0  0  0  0  0
    3.6427    2.2582   -2.7217 H   0  0  0  1  0  0  0  0  0  0  0  0
    3.3401    0.8702   -0.1691 H   0  0  0  1  0  0  0  0  0  0  0  0
    5.3026   -0.2603   -0.5482 H   0  0  0  1  0  0  0  0  0  0  0  0
    5.7415    0.7775   -1.8840 H   0  0  0  1  0  0  0  0  0  0  0  0
    7.0437    2.0598   -0.5201 H   0  0  0  1  0  0  0  0  0  0  0  0
    4.9894    2.1805    1.6528 H   0  0  0  1  0  0  0  0  0  0  0  0
    5.9020    3.4863    0.9343 H   0  0  0  1  0  0  0  0  0  0  0  0
    3.3663    3.2052    0.2323 H   0  0  0  1  0  0  0  0  0  0  0  0
    4.5375    3.5015   -1.0305 H   0  0  0  1  0  0  0  0  0  0  0  0
    7.5050    0.0167    0.5990 H   0  0  0  1  0  0  0  0  0  0  0  0
    6.2318    0.1832    1.5538 H   0  0  0  1  0  0  0  0  0  0  0  0
  1  2  4  0  0  0  0
  1  6  4  0  0  0  0
  2  3  4  0  0  0  0
  2 18  1  0  0  0  0
  3  4  4  0  0  0  0
  4  5  4  0  0  0  0
  4  7  4  0  0  0  0
  5  6  4  0  0  0  0
  5  9  4  0  0  0  0
  6 25  1  0  0  0  0
  7  8  4  0  0  0  0
  7 26  1  0  0  0  0
  8  9  4  0  0  0  0
  9 10  1  0  0  0  0
 10 11  4  0  0  0  0
 10 15  4  0  0  0  0
 11 12  4  0  0  0  0
 11 27  1  0  0  0  0
 12 13  4  0  0  0  0
 12 28  1  0  0  0  0
 13 14  4  0  0  0  0
 13 16  1  0  0  0  0
 14 15  4  0  0  0  0
 14 29  1  0  0  0  0
 15 30  1  0  0  0  0
 16 17  1  0  0  0  0
 17 31  1  0  0  0  0
 17 32  1  0  0  0  0
 17 33  1  0  0  0  0
 18 19  1  0  0  0  0
 18 34  1  0  0  0  0
 19 20  1  0  0  0  0
 19 23  1  0  0  0  0
 19 35  1  0  0  0  0
 20 21  1  0  0  0  0
 20 36  1  0  0  0  0
 20 37  1  0  0  0  0
 21 22  1  0  0  0  0
 21 24  1  0  0  0  0
 21 38  1  0  0  0  0
 22 23  1  0  0  0  0
 22 39  1  0  0  0  0
 22 40  1  0  0  0  0
 23 41  1  0  0  0  0
 23 42  1  0  0  0  0
 24 43  1  0  0  0  0
 24 44  1  0  0  0  0
M  END
> <ConfClashScore>
0 

> <ConfOneFourInteractionScore>
-0.984337 

> <ConfScore>
-0.0850278 

> <ConfScorePBest>
0.00463283 

> <ConfTolerance>
0.323465 

$$$$
c13.sdf
 OpenBabel04162418043D

 44 47  0  0  0  0  0  0  0  0999 V2000
    2.1080   -0.3774   -1.8533 N   0  0  0  1  0  0  0  0  0  0  0  0
    2.5363    0.5907   -2.6455 C   0  0  0  1  0  0  0  0  0  0  0  0
    2.1526    0.6997   -3.8968 N   0  0  0  1  0  0  0  0  0  0  0  0
    1.2985   -0.1838   -4.4201 C   0  0  0  1  0  0  0  0  0  0  0  0
    0.8205   -1.2305   -3.6034 C   0  0  0  1  0  0  0  0  0  0  0  0
    1.2616   -1.2960   -2.2850 C   0  0  0  1  0  0  0  0  0  0  0  0
    0.7018   -0.3513   -5.6890 C   0  0  0  1  0  0  0  0  0  0  0  0
   -0.0689   -1.4010   -5.6537 N   0  0  0  1  0  0  0  0  0  0  0  0
   -0.0256   -1.9781   -4.3778 N   0  0  0  1  0  0  0  0  0  0  0  0
   -0.9099   -3.0490   -4.0667 C   0  0  0  1  0  0  0  0  0  0  0  0
   -0.4529   -4.1345   -3.3436 C   0  0  0  1  0  0  0  0  0  0  0  0
   -1.3156   -5.1749   -3.0359 C   0  0  0  1  0  0  0  0  0  0  0  0
   -2.6313   -5.1294   -3.4567 C   0  0  0  1  0  0  0  0  0  0  0  0
   -3.0895   -4.0405   -4.1819 C   0  0  0  1  0  0  0  0  0  0  0  0
   -2.2294   -3.0031   -4.4887 C   0  0  0  1  0  0  0  0  0  0  0  0
   -3.5616   -6.0849   -3.2214 O   0  0  0  1  0  0  0  0  0  0  0  0
   -3.2090   -7.1327   -2.3049 C   0  0  0  1  0  0  0  0  0  0  0  0
    3.3977    1.4989   -2.1527 N   0  0  0  1  0  0  0  0  0  0  0  0
    3.9722    1.5111   -0.8065 C   0  0  0  1  0  0  0  0  0  0  0  0
    4.9083    2.7043   -0.6137 C   0  0  0  1  0  0  0  0  0  0  0  0
    4.9750    2.9098    0.9036 C   0  0  0  1  0  0  0  0  0  0  0  0
    3.6347    2.3935    1.4421 C   0  0  0  1  0  0  0  0  0  0  0  0
    2.8988    1.7714    0.2532 C   0  0  0  1  0  0  0  0  0  0  0  0
    6.0924    2.1418    1.4794 N   0  0  0  1  0  0  0  0  0  0  0  0
    0.9318   -2.0527   -1.6523 H   0  0  0  1  0  0  0  0  0  0  0  0
    0.8529    0.2620   -6.5152 H   0  0  0  1  0  0  0  0  0  0  0  0
    0.5382   -4.1708   -3.0303 H   0  0  0  1  0  0  0  0  0  0  0  0
   -0.9727   -5.9900   -2.4882 H   0  0  0  1  0  0  0  0  0  0  0  0
   -4.0806   -4.0043   -4.4951 H   0  0  0  1  0  0  0  0  0  0  0  0
   -2.5722   -2.1880   -5.0363 H   0  0  0  1  0  0  0  0  0  0  0  0
   -4.0214   -7.8242   -2.2230 H   0  0  0  1  0  0  0  0  0  0  0  0
   -3.0019   -6.7107   -1.3436 H   0  0  0  1  0  0  0  0  0  0  0  0
   -2.3407   -7.6439   -2.6649 H   0  0  0  1  0  0  0  0  0  0  0  0
    3.6671    2.2239   -2.7544 H   0  0  0  1  0  0  0  0  0  0  0  0
    4.4796    0.5865   -0.6263 H   0  0  0  1  0  0  0  0  0  0  0  0
    4.5130    3.5746   -1.0947 H   0  0  0  1  0  0  0  0  0  0  0  0
    5.8794    2.4886   -1.0076 H   0  0  0  1  0  0  0  0  0  0  0  0
    5.0974    3.9471    1.1361 H   0  0  0  1  0  0  0  0  0  0  0  0
    3.8004    1.6570    2.2005 H   0  0  0  1  0  0  0  0  0  0  0  0
    3.0635    3.2020    1.8482 H   0  0  0  1  0  0  0  0  0  0  0  0
    2.4302    0.8541    0.5428 H   0  0  0  1  0  0  0  0  0  0  0  0
    2.1592    2.4470   -0.1229 H   0  0  0  1  0  0  0  0  0  0  0  0
    5.9693    1.1893    1.2844 H   0  0  0  1  0  0  0  0  0  0  0  0
    6.1150    2.2761    2.4499 H   0  0  0  1  0  0  0  0  0  0  0  0
  1  2  4  0  0  0  0
  1  6  4  0  0  0  0
  2  3  4  0  0  0  0
  2 18  1  0  0  0  0
  3  4  4  0  0  0  0
  4  5  4  0  0  0  0
  4  7  4  0  0  0  0
  5  6  4  0  0  0  0
  5  9  4  0  0  0  0
  6 25  1  0  0  0  0
  7  8  4  0  0  0  0
  7 26  1  0  0  0  0
  8  9  4  0  0  0  0
  9 10  1  0  0  0  0
 10 11  4  0  0  0  0
 10 15  4  0  0  0  0
 11 12  4  0  0  0  0
 11 27  1  0  0  0  0
 12 13  4  0  0  0  0
 12 28  1  0  0  0  0
 13 14  4  0  0  0  0
 13 16  1  0  0  0  0
 14 15  4  0  0  0  0
 14 29  1  0  0  0  0
 15 30  1  0  0  0  0
 16 17  1  0  0  0  0
 17 31  1  0  0  0  0
 17 32  1  0  0  0  0
 17 33  1  0  0  0  0
 18 19  1  0  0  0  0
 18 34  1  0  0  0  0
 19 20  1  0  0  0  0
 19 23  1  0  0  0  0
 19 35  1  0  0  0  0
 20 21  1  0  0  0  0
 20 36  1  0  0  0  0
 20 37  1  0  0  0  0
 21 22  1  0  0  0  0
 21 24  1  0  0  0  0
 21 38  1  0  0  0  0
 22 23  1  0  0  0  0
 22 39  1  0  0  0  0
 22 40  1  0  0  0  0
 23 41  1  0  0  0  0
 23 42  1  0  0  0  0
 24 43  1  0  0  0  0
 24 44  1  0  0  0  0
M  END
> <ConfClashScore>
0 

> <ConfOneFourInteractionScore>
-0.984337 

> <ConfScore>
-0.0836748 

> <ConfScorePBest>
0.0046195 

> <ConfTolerance>
0.241362 

$$$$
c13.sdf
 OpenBabel04162418043D

 44 47  0  0  0  0  0  0  0  0999 V2000
    2.1080   -0.3774   -1.8532 N   0  0  0  1  0  0  0  0  0  0  0  0
    2.5363    0.5907   -2.6455 C   0  0  0  1  0  0  0  0  0  0  0  0
    2.1526    0.6996   -3.8968 N   0  0  0  1  0  0  0  0  0  0  0  0
    1.2985   -0.1837   -4.4201 C   0  0  0  1  0  0  0  0  0  0  0  0
    0.8204   -1.2304   -3.6034 C   0  0  0  1  0  0  0  0  0  0  0  0
    1.2616   -1.2960   -2.2849 C   0  0  0  1  0  0  0  0  0  0  0  0
    0.7020   -0.3513   -5.6889 C   0  0  0  1  0  0  0  0  0  0  0  0
   -0.0689   -1.4010   -5.6537 N   0  0  0  1  0  0  0  0  0  0  0  0
   -0.0256   -1.9781   -4.3778 N   0  0  0  1  0  0  0  0  0  0  0  0
   -0.7806   -3.1368   -4.0811 C   0  0  0  1  0  0  0  0  0  0  0  0
   -1.3504   -3.9213   -5.0661 C   0  0  0  1  0  0  0  0  0  0  0  0
   -2.0765   -5.0500   -4.7193 C   0  0  0  1  0  0  0  0  0  0  0  0
   -2.2351   -5.3881   -3.3886 C   0  0  0  1  0  0  0  0  0  0  0  0
   -1.6635   -4.6012   -2.4009 C   0  0  0  1  0  0  0  0  0  0  0  0
   -0.9395   -3.4757   -2.7465 C   0  0  0  1  0  0  0  0  0  0  0  0
   -2.8490   -6.5624   -3.1095 O   0  0  0  1  0  0  0  0  0  0  0  0
   -2.9822   -6.9205   -1.7251 C   0  0  0  1  0  0  0  0  0  0  0  0
    3.3977    1.4989   -2.1526 N   0  0  0  1  0  0  0  0  0  0  0  0
    3.8789    1.5016   -0.7672 C   0  0  0  1  0  0  0  0  0  0  0  0
    5.2848    0.9047   -0.6663 C   0  0  0  1  0  0  0  0  0  0  0  0
    6.2437    2.0458   -1.0140 C   0  0  0  1  0  0  0  0  0  0  0  0
    5.4508    3.3480   -0.8456 C   0  0  0  1  0  0  0  0  0  0  0  0
    4.0990    2.9266   -0.2592 C   0  0  0  1  0  0  0  0  0  0  0  0
    7.4182    2.0330   -0.0888 N   0  0  0  1  0  0  0  0  0  0  0  0
    0.9317   -2.0527   -1.6522 H   0  0  0  1  0  0  0  0  0  0  0  0
    0.8529    0.2621   -6.5152 H   0  0  0  1  0  0  0  0  0  0  0  0
   -1.2344   -3.6647   -6.0672 H   0  0  0  1  0  0  0  0  0  0  0  0
   -2.5018   -5.6426   -5.4606 H   0  0  0  1  0  0  0  0  0  0  0  0
   -1.7794   -4.8576   -1.3996 H   0  0  0  1  0  0  0  0  0  0  0  0
   -0.5141   -2.8831   -2.0052 H   0  0  0  1  0  0  0  0  0  0  0  0
   -2.0174   -6.9225   -1.2623 H   0  0  0  1  0  0  0  0  0  0  0  0
   -3.4159   -7.8957   -1.6493 H   0  0  0  1  0  0  0  0  0  0  0  0
   -3.6124   -6.2100   -1.2322 H   0  0  0  1  0  0  0  0  0  0  0  0
    3.7230    2.2001   -2.7550 H   0  0  0  1  0  0  0  0  0  0  0  0
    3.1865    0.9711   -0.1475 H   0  0  0  1  0  0  0  0  0  0  0  0
    5.4697    0.5512    0.3265 H   0  0  0  1  0  0  0  0  0  0  0  0
    5.3981    0.0976   -1.3597 H   0  0  0  1  0  0  0  0  0  0  0  0
    6.5834    1.9480   -2.0240 H   0  0  0  1  0  0  0  0  0  0  0  0
    5.9585    4.0118   -0.1773 H   0  0  0  1  0  0  0  0  0  0  0  0
    5.3151    3.8289   -1.7917 H   0  0  0  1  0  0  0  0  0  0  0  0
    4.1303    2.9446    0.8102 H   0  0  0  1  0  0  0  0  0  0  0  0
    3.3203    3.5741   -0.6047 H   0  0  0  1  0  0  0  0  0  0  0  0
    7.7846    1.1255   -0.0377 H   0  0  0  1  0  0  0  0  0  0  0  0
    7.1338    2.3210    0.8037 H   0  0  0  1  0  0  0  0  0  0  0  0
  1  2  4  0  0  0  0
  1  6  4  0  0  0  0
  2  3  4  0  0  0  0
  2 18  1  0  0  0  0
  3  4  4  0  0  0  0
  4  5  4  0  0  0  0
  4  7  4  0  0  0  0
  5  6  4  0  0  0  0
  5  9  4  0  0  0  0
  6 25  1  0  0  0  0
  7  8  4  0  0  0  0
  7 26  1  0  0  0  0
  8  9  4  0  0  0  0
  9 10  1  0  0  0  0
 10 11  4  0  0  0  0
 10 15  4  0  0  0  0
 11 12  4  0  0  0  0
 11 27  1  0  0  0  0
 12 13  4  0  0  0  0
 12 28  1  0  0  0  0
 13 14  4  0  0  0  0
 13 16  1  0  0  0  0
 14 15  4  0  0  0  0
 14 29  1  0  0  0  0
 15 30  1  0  0  0  0
 16 17  1  0  0  0  0
 17 31  1  0  0  0  0
 17 32  1  0  0  0  0
 17 33  1  0  0  0  0
 18 19  1  0  0  0  0
 18 34  1  0  0  0  0
 19 20  1  0  0  0  0
 19 23  1  0  0  0  0
 19 35  1  0  0  0  0
 20 21  1  0  0  0  0
 20 36  1  0  0  0  0
 20 37  1  0  0  0  0
 21 22  1  0  0  0  0
 21 24  1  0  0  0  0
 21 38  1  0  0  0  0
 22 23  1  0  0  0  0
 22 39  1  0  0  0  0
 22 40  1  0  0  0  0
 23 41  1  0  0  0  0
 23 42  1  0  0  0  0
 24 43  1  0  0  0  0
 24 44  1  0  0  0  0
M  END
> <ConfClashScore>
0 

> <ConfOneFourInteractionScore>
-0.984337 

> <ConfScore>
-0.0833407 

> <ConfScorePBest>
0.00460617 

> <ConfTolerance>
0.313779 

$$$$
c13.sdf
 OpenBabel04162418043D

 44 47  0  0  0  0  0  0  0  0999 V2000
    2.1080   -0.3773   -1.8532 N   0  0  0  1  0  0  0  0  0  0  0  0
    2.5363    0.5907   -2.6455 C   0  0  0  1  0  0  0  0  0  0  0  0
    2.1525    0.6996   -3.8969 N   0  0  0  1  0  0  0  0  0  0  0  0
    1.2985   -0.1838   -4.4201 C   0  0  0  1  0  0  0  0  0  0  0  0
    0.8204   -1.2304   -3.6033 C   0  0  0  1  0  0  0  0  0  0  0  0
    1.2616   -1.2960   -2.2850 C   0  0  0  1  0  0  0  0  0  0  0  0
    0.7018   -0.3512   -5.6890 C   0  0  0  1  0  0  0  0  0  0  0  0
   -0.0689   -1.4010   -5.6537 N   0  0  0  1  0  0  0  0  0  0  0  0
   -0.0256   -1.9781   -4.3778 N   0  0  0  1  0  0  0  0  0  0  0  0
   -0.8727   -3.0650   -4.0187 C   0  0  0  1  0  0  0  0  0  0  0  0
   -2.1399   -3.1622   -4.5618 C   0  0  0  1  0  0  0  0  0  0  0  0
   -2.9623   -4.2231   -4.2163 C   0  0  0  1  0  0  0  0  0  0  0  0
   -2.5174   -5.1808   -3.3246 C   0  0  0  1  0  0  0  0  0  0  0  0
   -1.2465   -5.0833   -2.7799 C   0  0  0  1  0  0  0  0  0  0  0  0
   -0.4263   -4.0255   -3.1243 C   0  0  0  1  0  0  0  0  0  0  0  0
   -3.3496   -6.1562   -2.9112 O   0  0  0  1  0  0  0  0  0  0  0  0
   -2.7682   -7.1065   -1.9883 C   0  0  0  1  0  0  0  0  0  0  0  0
    3.3977    1.4990   -2.1527 N   0  0  0  1  0  0  0  0  0  0  0  0
    3.8647    1.5126   -0.7626 C   0  0  0  1  0  0  0  0  0  0  0  0
    5.1745    2.2770   -0.6525 C   0  0  0  1  0  0  0  0  0  0  0  0
    5.0022    3.3626    0.4226 C   0  0  0  1  0  0  0  0  0  0  0  0
    3.7657    2.9085    1.1786 C   0  0  0  1  0  0  0  0  0  0  0  0
    2.8605    2.2636    0.1324 C   0  0  0  1  0  0  0  0  0  0  0  0
    6.1756    3.4160    1.3125 N   0  0  0  1  0  0  0  0  0  0  0  0
    0.9318   -2.0526   -1.6522 H   0  0  0  1  0  0  0  0  0  0  0  0
    0.8528    0.2621   -6.5152 H   0  0  0  1  0  0  0  0  0  0  0  0
   -2.4762   -2.4394   -5.2297 H   0  0  0  1  0  0  0  0  0  0  0  0
   -3.9143   -4.2985   -4.6281 H   0  0  0  1  0  0  0  0  0  0  0  0
   -0.9101   -5.8060   -2.1120 H   0  0  0  1  0  0  0  0  0  0  0  0
    0.5258   -3.9501   -2.7126 H   0  0  0  1  0  0  0  0  0  0  0  0
   -2.3951   -6.5883   -1.1298 H   0  0  0  1  0  0  0  0  0  0  0  0
   -1.9648   -7.6244   -2.4692 H   0  0  0  1  0  0  0  0  0  0  0  0
   -3.5148   -7.8099   -1.6836 H   0  0  0  1  0  0  0  0  0  0  0  0
    3.7330    2.1926   -2.7585 H   0  0  0  1  0  0  0  0  0  0  0  0
    3.9905    0.5073   -0.4182 H   0  0  0  1  0  0  0  0  0  0  0  0
    5.9619    1.6093   -0.3711 H   0  0  0  1  0  0  0  0  0  0  0  0
    5.4101    2.7310   -1.5922 H   0  0  0  1  0  0  0  0  0  0  0  0
    4.8480    4.3229   -0.0233 H   0  0  0  1  0  0  0  0  0  0  0  0
    3.2763    3.7453    1.6314 H   0  0  0  1  0  0  0  0  0  0  0  0
    4.0295    2.1976    1.9336 H   0  0  0  1  0  0  0  0  0  0  0  0
    2.1665    1.5874    0.5862 H   0  0  0  1  0  0  0  0  0  0  0  0
    2.3254    3.0042   -0.4245 H   0  0  0  1  0  0  0  0  0  0  0  0
    6.1970    2.6131    1.8742 H   0  0  0  1  0  0  0  0  0  0  0  0
    6.1175    4.2114    1.8821 H   0  0  0  1  0  0  0  0  0  0  0  0
  1  2  4  0  0  0  0
  1  6  4  0  0  0  0
  2  3  4  0  0  0  0
  2 18  1  0  0  0  0
  3  4  4  0  0  0  0
  4  5  4  0  0  0  0
  4  7  4  0  0  0  0
  5  6  4  0  0  0  0
  5  9  4  0  0  0  0
  6 25  1  0  0  0  0
  7  8  4  0  0  0  0
  7 26  1  0  0  0  0
  8  9  4  0  0  0  0
  9 10  1  0  0  0  0
 10 11  4  0  0  0  0
 10 15  4  0  0  0  0
 11 12  4  0  0  0  0
 11 27  1  0  0  0  0
 12 13  4  0  0  0  0
 12 28  1  0  0  0  0
 13 14  4  0  0  0  0
 13 16  1  0  0  0  0
 14 15  4  0  0  0  0
 14 29  1  0  0  0  0
 15 30  1  0  0  0  0
 16 17  1  0  0  0  0
 17 31  1  0  0  0  0
 17 32  1  0  0  0  0
 17 33  1  0  0  0  0
 18 19  1  0  0  0  0
 18 34  1  0  0  0  0
 19 20  1  0  0  0  0
 19 23  1  0  0  0  0
 19 35  1  0  0  0  0
 20 21  1  0  0  0  0
 20 36  1  0  0  0  0
 20 37  1  0  0  0  0
 21 22  1  0  0  0  0
 21 24  1  0  0  0  0
 21 38  1  0  0  0  0
 22 23  1  0  0  0  0
 22 39  1  0  0  0  0
 22 40  1  0  0  0  0
 23 41  1  0  0  0  0
 23 42  1  0  0  0  0
 24 43  1  0  0  0  0
 24 44  1  0  0  0  0
M  END
> <ConfClashScore>
0 

> <ConfOneFourInteractionScore>
-0.984337 

> <ConfScore>
-0.0826647 

> <ConfScorePBest>
0.00459285 

> <ConfTolerance>
0.34246 

$$$$
c13.sdf
 OpenBabel04162418043D

 44 47  0  0  0  0  0  0  0  0999 V2000
    2.1079   -0.3774   -1.8532 N   0  0  0  1  0  0  0  0  0  0  0  0
    2.5364    0.5907   -2.6454 C   0  0  0  1  0  0  0  0  0  0  0  0
    2.1525    0.6996   -3.8968 N   0  0  0  1  0  0  0  0  0  0  0  0
    1.2985   -0.1837   -4.4202 C   0  0  0  1  0  0  0  0  0  0  0  0
    0.8204   -1.2304   -3.6034 C   0  0  0  1  0  0  0  0  0  0  0  0
    1.2615   -1.2960   -2.2850 C   0  0  0  1  0  0  0  0  0  0  0  0
    0.7019   -0.3512   -5.6889 C   0  0  0  1  0  0  0  0  0  0  0  0
   -0.0689   -1.4010   -5.6538 N   0  0  0  1  0  0  0  0  0  0  0  0
   -0.0256   -1.9781   -4.3778 N   0  0  0  1  0  0  0  0  0  0  0  0
   -0.7143   -3.1961   -4.1129 C   0  0  0  1  0  0  0  0  0  0  0  0
   -0.4450   -4.3208   -4.8698 C   0  0  0  1  0  0  0  0  0  0  0  0
   -1.1115   -5.5078   -4.6083 C   0  0  0  1  0  0  0  0  0  0  0  0
   -2.0491   -5.5653   -3.5945 C   0  0  0  1  0  0  0  0  0  0  0  0
   -2.3192   -4.4371   -2.8356 C   0  0  0  1  0  0  0  0  0  0  0  0
   -1.6546   -3.2536   -3.0961 C   0  0  0  1  0  0  0  0  0  0  0  0
   -2.7605   -6.6572   -3.2531 O   0  0  0  1  0  0  0  0  0  0  0  0
   -2.4210   -7.8609   -3.9800 C   0  0  0  1  0  0  0  0  0  0  0  0
    3.3913    1.4696   -2.1105 N   0  0  0  1  0  0  0  0  0  0  0  0
    3.9640    2.6435   -2.7769 C   0  0  0  1  0  0  0  0  0  0  0  0
    3.3310    3.9269   -2.2344 C   0  0  0  1  0  0  0  0  0  0  0  0
    4.4726    4.9367   -2.0607 C   0  0  0  1  0  0  0  0  0  0  0  0
    5.7109    4.2537   -2.6515 C   0  0  0  1  0  0  0  0  0  0  0  0
    5.4586    2.7572   -2.4665 C   0  0  0  1  0  0  0  0  0  0  0  0
    4.1702    6.1996   -2.7984 N   0  0  0  1  0  0  0  0  0  0  0  0
    0.9316   -2.0527   -1.6522 H   0  0  0  1  0  0  0  0  0  0  0  0
    0.8529    0.2620   -6.5152 H   0  0  0  1  0  0  0  0  0  0  0  0
    0.2576   -4.2766   -5.6352 H   0  0  0  1  0  0  0  0  0  0  0  0
   -0.9059   -6.3552   -5.1752 H   0  0  0  1  0  0  0  0  0  0  0  0
   -3.0217   -4.4813   -2.0701 H   0  0  0  1  0  0  0  0  0  0  0  0
   -1.8602   -2.4061   -2.5293 H   0  0  0  1  0  0  0  0  0  0  0  0
   -1.4587   -8.2080   -3.6666 H   0  0  0  1  0  0  0  0  0  0  0  0
   -2.3997   -7.6499   -5.0287 H   0  0  0  1  0  0  0  0  0  0  0  0
   -3.1537   -8.6152   -3.7822 H   0  0  0  1  0  0  0  0  0  0  0  0
    3.6616    1.3133   -1.1816 H   0  0  0  1  0  0  0  0  0  0  0  0
    3.8069    2.5672   -3.8325 H   0  0  0  1  0  0  0  0  0  0  0  0
    2.8594    3.7369   -1.2929 H   0  0  0  1  0  0  0  0  0  0  0  0
    2.6071    4.3031   -2.9269 H   0  0  0  1  0  0  0  0  0  0  0  0
    4.6243    5.1559   -1.0244 H   0  0  0  1  0  0  0  0  0  0  0  0
    6.5933    4.5545   -2.1264 H   0  0  0  1  0  0  0  0  0  0  0  0
    5.8138    4.4928   -3.6893 H   0  0  0  1  0  0  0  0  0  0  0  0
    5.6716    2.4485   -1.4644 H   0  0  0  1  0  0  0  0  0  0  0  0
    6.0425    2.1776   -3.1505 H   0  0  0  1  0  0  0  0  0  0  0  0
    3.3800    6.6264   -2.4062 H   0  0  0  1  0  0  0  0  0  0  0  0
    3.9962    5.9936   -3.7406 H   0  0  0  1  0  0  0  0  0  0  0  0
  1  2  4  0  0  0  0
  1  6  4  0  0  0  0
  2  3  4  0  0  0  0
  2 18  1  0  0  0  0
  3  4  4  0  0  0  0
  4  5  4  0  0  0  0
  4  7  4  0  0  0  0
  5  6  4  0  0  0  0
  5  9  4  0  0  0  0
  6 25  1  0  0  0  0
  7  8  4  0  0  0  0
  7 26  1  0  0  0  0
  8  9  4  0  0  0  0
  9 10  1  0  0  0  0
 10 11  4  0  0  0  0
 10 15  4  0  0  0  0
 11 12  4  0  0  0  0
 11 27  1  0  0  0  0
 12 13  4  0  0  0  0
 12 28  1  0  0  0  0
 13 14  4  0  0  0  0
 13 16  1  0  0  0  0
 14 15  4  0  0  0  0
 14 29  1  0  0  0  0
 15 30  1  0  0  0  0
 16 17  1  0  0  0  0
 17 31  1  0  0  0  0
 17 32  1  0  0  0  0
 17 33  1  0  0  0  0
 18 19  1  0  0  0  0
 18 34  1  0  0  0  0
 19 20  1  0  0  0  0
 19 23  1  0  0  0  0
 19 35  1  0  0  0  0
 20 21  1  0  0  0  0
 20 36  1  0  0  0  0
 20 37  1  0  0  0  0
 21 22  1  0  0  0  0
 21 24  1  0  0  0  0
 21 38  1  0  0  0  0
 22 23  1  0  0  0  0
 22 39  1  0  0  0  0
 22 40  1  0  0  0  0
 23 41  1  0  0  0  0
 23 42  1  0  0  0  0
 24 43  1  0  0  0  0
 24 44  1  0  0  0  0
M  END
> <ConfClashScore>
0 

> <ConfOneFourInteractionScore>
-0.984337 

> <ConfScore>
-0.0825194 

> <ConfScorePBest>
0.00457952 

> <ConfTolerance>
0.324121 

$$$$
c13.sdf
 OpenBabel04162418043D

 44 47  0  0  0  0  0  0  0  0999 V2000
    2.1078   -0.3773   -1.8532 N   0  0  0  1  0  0  0  0  0  0  0  0
    2.5364    0.5907   -2.6455 C   0  0  0  1  0  0  0  0  0  0  0  0
    2.1526    0.6996   -3.8968 N   0  0  0  1  0  0  0  0  0  0  0  0
    1.2985   -0.1838   -4.4201 C   0  0  0  1  0  0  0  0  0  0  0  0
    0.8204   -1.2304   -3.6033 C   0  0  0  1  0  0  0  0  0  0  0  0
    1.2615   -1.2959   -2.2849 C   0  0  0  1  0  0  0  0  0  0  0  0
    0.7020   -0.3513   -5.6891 C   0  0  0  1  0  0  0  0  0  0  0  0
   -0.0689   -1.4010   -5.6538 N   0  0  0  1  0  0  0  0  0  0  0  0
   -0.0256   -1.9781   -4.3778 N   0  0  0  1  0  0  0  0  0  0  0  0
   -0.8609   -3.0769   -4.0691 C   0  0  0  1  0  0  0  0  0  0  0  0
   -1.7291   -3.0049   -2.9961 C   0  0  0  1  0  0  0  0  0  0  0  0
   -2.5516   -4.0798   -2.6967 C   0  0  0  1  0  0  0  0  0  0  0  0
   -2.4998   -5.2256   -3.4680 C   0  0  0  1  0  0  0  0  0  0  0  0
   -1.6290   -5.2977   -4.5441 C   0  0  0  1  0  0  0  0  0  0  0  0
   -0.8089   -4.2260   -4.8427 C   0  0  0  1  0  0  0  0  0  0  0  0
   -3.2954   -6.2721   -3.1738 O   0  0  0  1  0  0  0  0  0  0  0  0
   -3.3722   -7.2898   -4.1991 C   0  0  0  1  0  0  0  0  0  0  0  0
    3.4218    1.5243   -2.1388 N   0  0  0  1  0  0  0  0  0  0  0  0
    3.8777    1.4201   -0.7502 C   0  0  0  1  0  0  0  0  0  0  0  0
    4.5461    2.7147   -0.2871 C   0  0  0  1  0  0  0  0  0  0  0  0
    4.4541    2.6787    1.2424 C   0  0  0  1  0  0  0  0  0  0  0  0
    3.2023    1.8486    1.5540 C   0  0  0  1  0  0  0  0  0  0  0  0
    2.6955    1.3065    0.2154 C   0  0  0  1  0  0  0  0  0  0  0  0
    5.6485    2.0425    1.8144 N   0  0  0  1  0  0  0  0  0  0  0  0
    0.9316   -2.0525   -1.6522 H   0  0  0  1  0  0  0  0  0  0  0  0
    0.8530    0.2620   -6.5152 H   0  0  0  1  0  0  0  0  0  0  0  0
   -1.7652   -2.1443   -2.4132 H   0  0  0  1  0  0  0  0  0  0  0  0
   -3.2077   -4.0241   -1.8917 H   0  0  0  1  0  0  0  0  0  0  0  0
   -1.5928   -6.1582   -5.1269 H   0  0  0  1  0  0  0  0  0  0  0  0
   -0.1527   -4.2816   -5.6477 H   0  0  0  1  0  0  0  0  0  0  0  0
   -2.3847   -7.6070   -4.4622 H   0  0  0  1  0  0  0  0  0  0  0  0
   -3.8600   -6.8893   -5.0630 H   0  0  0  1  0  0  0  0  0  0  0  0
   -3.9287   -8.1260   -3.8302 H   0  0  0  1  0  0  0  0  0  0  0  0
    3.7438    2.2545   -2.7076 H   0  0  0  1  0  0  0  0  0  0  0  0
    4.5397    0.5851   -0.6534 H   0  0  0  1  0  0  0  0  0  0  0  0
    5.5681    2.7445   -0.6024 H   0  0  0  1  0  0  0  0  0  0  0  0
    4.0275    3.5662   -0.6756 H   0  0  0  1  0  0  0  0  0  0  0  0
    4.3541    3.6689    1.6350 H   0  0  0  1  0  0  0  0  0  0  0  0
    2.4551    2.4639    2.0101 H   0  0  0  1  0  0  0  0  0  0  0  0
    3.4489    1.0403    2.2103 H   0  0  0  1  0  0  0  0  0  0  0  0
    2.3934    0.2851    0.3168 H   0  0  0  1  0  0  0  0  0  0  0  0
    1.8700    1.8901   -0.1351 H   0  0  0  1  0  0  0  0  0  0  0  0
    6.4470    2.5407    1.5412 H   0  0  0  1  0  0  0  0  0  0  0  0
    5.7130    1.1195    1.4916 H   0  0  0  1  0  0  0  0  0  0  0  0
  1  2  4  0  0  0  0
  1  6  4  0  0  0  0
  2  3  4  0  0  0  0
  2 18  1  0  0  0  0
  3  4  4  0  0  0  0
  4  5  4  0  0  0  0
  4  7  4  0  0  0  0
  5  6  4  0  0  0  0
  5  9  4  0  0  0  0
  6 25  1  0  0  0  0
  7  8  4  0  0  0  0
  7 26  1  0  0  0  0
  8  9  4  0  0  0  0
  9 10  1  0  0  0  0
 10 11  4  0  0  0  0
 10 15  4  0  0  0  0
 11 12  4  0  0  0  0
 11 27  1  0  0  0  0
 12 13  4  0  0  0  0
 12 28  1  0  0  0  0
 13 14  4  0  0  0  0
 13 16  1  0  0  0  0
 14 15  4  0  0  0  0
 14 29  1  0  0  0  0
 15 30  1  0  0  0  0
 16 17  1  0  0  0  0
 17 31  1  0  0  0  0
 17 32  1  0  0  0  0
 17 33  1  0  0  0  0
 18 19  1  0  0  0  0
 18 34  1  0  0  0  0
 19 20  1  0  0  0  0
 19 23  1  0  0  0  0
 19 35  1  0  0  0  0
 20 21  1  0  0  0  0
 20 36  1  0  0  0  0
 20 37  1  0  0  0  0
 21 22  1  0  0  0  0
 21 24  1  0  0  0  0
 21 38  1  0  0  0  0
 22 23  1  0  0  0  0
 22 39  1  0  0  0  0
 22 40  1  0  0  0  0
 23 41  1  0  0  0  0
 23 42  1  0  0  0  0
 24 43  1  0  0  0  0
 24 44  1  0  0  0  0
M  END
> <ConfClashScore>
0 

> <ConfOneFourInteractionScore>
-0.985399 

> <ConfScore>
-0.0802511 

> <ConfScorePBest>
0.00456619 

> <ConfTolerance>
0.24394 

$$$$
c13.sdf
 OpenBabel04162418043D

 44 47  0  0  0  0  0  0  0  0999 V2000
    2.1080   -0.3773   -1.8533 N   0  0  0  1  0  0  0  0  0  0  0  0
    2.5364    0.5908   -2.6454 C   0  0  0  1  0  0  0  0  0  0  0  0
    2.1526    0.6996   -3.8968 N   0  0  0  1  0  0  0  0  0  0  0  0
    1.2985   -0.1838   -4.4201 C   0  0  0  1  0  0  0  0  0  0  0  0
    0.8204   -1.2304   -3.6034 C   0  0  0  1  0  0  0  0  0  0  0  0
    1.2616   -1.2960   -2.2850 C   0  0  0  1  0  0  0  0  0  0  0  0
    0.7019   -0.3512   -5.6890 C   0  0  0  1  0  0  0  0  0  0  0  0
   -0.0689   -1.4010   -5.6538 N   0  0  0  1  0  0  0  0  0  0  0  0
   -0.0256   -1.9781   -4.3778 N   0  0  0  1  0  0  0  0  0  0  0  0
   -0.7779   -3.1328   -4.0822 C   0  0  0  1  0  0  0  0  0  0  0  0
   -1.6314   -3.0806   -2.9964 C   0  0  0  1  0  0  0  0  0  0  0  0
   -2.3987   -4.1862   -2.6643 C   0  0  0  1  0  0  0  0  0  0  0  0
   -2.3062   -5.3426   -3.4155 C   0  0  0  1  0  0  0  0  0  0  0  0
   -1.4502   -5.3949   -4.5045 C   0  0  0  1  0  0  0  0  0  0  0  0
   -0.6850   -4.2926   -4.8357 C   0  0  0  1  0  0  0  0  0  0  0  0
   -3.0520   -6.4244   -3.0878 O   0  0  0  1  0  0  0  0  0  0  0  0
   -2.8302   -7.6269   -3.8411 C   0  0  0  1  0  0  0  0  0  0  0  0
    3.4108    1.4685   -2.0561 N   0  0  0  1  0  0  0  0  0  0  0  0
    4.0062    2.5719   -2.7997 C   0  0  0  1  0  0  0  0  0  0  0  0
    4.7988    3.4840   -1.8453 C   0  0  0  1  0  0  0  0  0  0  0  0
    6.2373    2.8678   -1.8927 C   0  0  0  1  0  0  0  0  0  0  0  0
    6.3824    2.5004   -3.3746 C   0  0  0  1  0  0  0  0  0  0  0  0
    5.0194    2.0191   -3.8617 C   0  0  0  1  0  0  0  0  0  0  0  0
    7.2544    3.8531   -1.4844 N   0  0  0  1  0  0  0  0  0  0  0  0
    0.9318   -2.0526   -1.6523 H   0  0  0  1  0  0  0  0  0  0  0  0
    0.8529    0.2621   -6.5152 H   0  0  0  1  0  0  0  0  0  0  0  0
   -1.6980   -2.2117   -2.4286 H   0  0  0  1  0  0  0  0  0  0  0  0
   -3.0439   -4.1454   -1.8496 H   0  0  0  1  0  0  0  0  0  0  0  0
   -1.3835   -6.2637   -5.0723 H   0  0  0  1  0  0  0  0  0  0  0  0
   -0.0397   -4.3332   -5.6504 H   0  0  0  1  0  0  0  0  0  0  0  0
   -2.7844   -7.3918   -4.8839 H   0  0  0  1  0  0  0  0  0  0  0  0
   -3.6338   -8.3111   -3.6649 H   0  0  0  1  0  0  0  0  0  0  0  0
   -1.9072   -8.0737   -3.5355 H   0  0  0  1  0  0  0  0  0  0  0  0
    3.6411    1.3507   -1.1109 H   0  0  0  1  0  0  0  0  0  0  0  0
    3.2351    3.1321   -3.2859 H   0  0  0  1  0  0  0  0  0  0  0  0
    4.3965    3.4476   -0.8544 H   0  0  0  1  0  0  0  0  0  0  0  0
    4.8014    4.4960   -2.1928 H   0  0  0  1  0  0  0  0  0  0  0  0
    6.3089    2.0012   -1.2693 H   0  0  0  1  0  0  0  0  0  0  0  0
    6.6888    3.3586   -3.9355 H   0  0  0  1  0  0  0  0  0  0  0  0
    7.1072    1.7217   -3.4888 H   0  0  0  1  0  0  0  0  0  0  0  0
    4.9859    0.9501   -3.8957 H   0  0  0  1  0  0  0  0  0  0  0  0
    4.8034    2.4143   -4.8322 H   0  0  0  1  0  0  0  0  0  0  0  0
    7.1090    4.1045   -0.5484 H   0  0  0  1  0  0  0  0  0  0  0  0
    7.1836    4.6494   -2.0512 H   0  0  0  1  0  0  0  0  0  0  0  0
  1  2  4  0  0  0  0
  1  6  4  0  0  0  0
  2  3  4  0  0  0  0
  2 18  1  0  0  0  0
  3  4  4  0  0  0  0
  4  5  4  0  0  0  0
  4  7  4  0  0  0  0
  5  6  4  0  0  0  0
  5  9  4  0  0  0  0
  6 25  1  0  0  0  0
  7  8  4  0  0  0  0
  7 26  1  0  0  0  0
  8  9  4  0  0  0  0
  9 10  1  0  0  0  0
 10 11  4  0  0  0  0
 10 15  4  0  0  0  0
 11 12  4  0  0  0  0
 11 27  1  0  0  0  0
 12 13  4  0  0  0  0
 12 28  1  0  0  0  0
 13 14  4  0  0  0  0
 13 16  1  0  0  0  0
 14 15  4  0  0  0  0
 14 29  1  0  0  0  0
 15 30  1  0  0  0  0
 16 17  1  0  0  0  0
 17 31  1  0  0  0  0
 17 32  1  0  0  0  0
 17 33  1  0  0  0  0
 18 19  1  0  0  0  0
 18 34  1  0  0  0  0
 19 20  1  0  0  0  0
 19 23  1  0  0  0  0
 19 35  1  0  0  0  0
 20 21  1  0  0  0  0
 20 36  1  0  0  0  0
 20 37  1  0  0  0  0
 21 22  1  0  0  0  0
 21 24  1  0  0  0  0
 21 38  1  0  0  0  0
 22 23  1  0  0  0  0
 22 39  1  0  0  0  0
 22 40  1  0  0  0  0
 23 41  1  0  0  0  0
 23 42  1  0  0  0  0
 24 43  1  0  0  0  0
 24 44  1  0  0  0  0
M  END
> <ConfClashScore>
0 

> <ConfOneFourInteractionScore>
-0.981848 

> <ConfScore>
-0.0802511 

> <ConfScorePBest>
0.00455286 

> <ConfTolerance>
0.254137 

$$$$
c13.sdf
 OpenBabel04162418043D

 44 47  0  0  0  0  0  0  0  0999 V2000
    2.1079   -0.3773   -1.8532 N   0  0  0  1  0  0  0  0  0  0  0  0
    2.5364    0.5907   -2.6455 C   0  0  0  1  0  0  0  0  0  0  0  0
    2.1526    0.6996   -3.8968 N   0  0  0  1  0  0  0  0  0  0  0  0
    1.2985   -0.1838   -4.4201 C   0  0  0  1  0  0  0  0  0  0  0  0
    0.8205   -1.2305   -3.6033 C   0  0  0  1  0  0  0  0  0  0  0  0
    1.2615   -1.2959   -2.2850 C   0  0  0  1  0  0  0  0  0  0  0  0
    0.7019   -0.3513   -5.6889 C   0  0  0  1  0  0  0  0  0  0  0  0
   -0.0689   -1.4010   -5.6538 N   0  0  0  1  0  0  0  0  0  0  0  0
   -0.0256   -1.9781   -4.3778 N   0  0  0  1  0  0  0  0  0  0  0  0
   -0.7850   -3.1435   -4.0794 C   0  0  0  1  0  0  0  0  0  0  0  0
   -0.1441   -4.3056   -3.6932 C   0  0  0  1  0  0  0  0  0  0  0  0
   -0.8844   -5.4395   -3.3973 C   0  0  0  1  0  0  0  0  0  0  0  0
   -2.2629   -5.4098   -3.4936 C   0  0  0  1  0  0  0  0  0  0  0  0
   -2.9055   -4.2443   -3.8810 C   0  0  0  1  0  0  0  0  0  0  0  0
   -2.1675   -3.1135   -4.1761 C   0  0  0  1  0  0  0  0  0  0  0  0
   -2.8772   -6.5767   -3.1855 O   0  0  0  1  0  0  0  0  0  0  0  0
   -4.2972   -6.6446   -3.3893 C   0  0  0  1  0  0  0  0  0  0  0  0
    3.3930    1.4939   -2.1554 N   0  0  0  1  0  0  0  0  0  0  0  0
    3.9078    2.6660   -2.8522 C   0  0  0  1  0  0  0  0  0  0  0  0
    4.3353    3.7561   -1.8558 C   0  0  0  1  0  0  0  0  0  0  0  0
    5.6760    4.3102   -2.3121 C   0  0  0  1  0  0  0  0  0  0  0  0
    5.9577    3.6611   -3.6806 C   0  0  0  1  0  0  0  0  0  0  0  0
    5.1978    2.3409   -3.5848 C   0  0  0  1  0  0  0  0  0  0  0  0
    5.6050    5.7959   -2.4468 N   0  0  0  1  0  0  0  0  0  0  0  0
    0.9317   -2.0526   -1.6522 H   0  0  0  1  0  0  0  0  0  0  0  0
    0.8530    0.2620   -6.5152 H   0  0  0  1  0  0  0  0  0  0  0  0
    0.8933   -4.3292   -3.6246 H   0  0  0  1  0  0  0  0  0  0  0  0
   -0.4025   -6.3128   -3.1028 H   0  0  0  1  0  0  0  0  0  0  0  0
   -3.9429   -4.2206   -3.9496 H   0  0  0  1  0  0  0  0  0  0  0  0
   -2.6494   -2.2402   -4.4706 H   0  0  0  1  0  0  0  0  0  0  0  0
   -4.7745   -5.8597   -2.8407 H   0  0  0  1  0  0  0  0  0  0  0  0
   -4.6614   -7.5908   -3.0475 H   0  0  0  1  0  0  0  0  0  0  0  0
   -4.5134   -6.5336   -4.4312 H   0  0  0  1  0  0  0  0  0  0  0  0
    3.7051    1.3535   -1.2370 H   0  0  0  1  0  0  0  0  0  0  0  0
    3.1650    3.0344   -3.5285 H   0  0  0  1  0  0  0  0  0  0  0  0
    4.4307    3.3355   -0.8765 H   0  0  0  1  0  0  0  0  0  0  0  0
    3.6059    4.5387   -1.8389 H   0  0  0  1  0  0  0  0  0  0  0  0
    6.4431    4.0511   -1.6125 H   0  0  0  1  0  0  0  0  0  0  0  0
    7.0053    3.4944   -3.8208 H   0  0  0  1  0  0  0  0  0  0  0  0
    5.5823    4.2657   -4.4796 H   0  0  0  1  0  0  0  0  0  0  0  0
    5.7678    1.6206   -3.0359 H   0  0  0  1  0  0  0  0  0  0  0  0
    4.9865    1.9596   -4.5621 H   0  0  0  1  0  0  0  0  0  0  0  0
    6.4562    6.1337   -2.7957 H   0  0  0  1  0  0  0  0  0  0  0  0
    5.4305    6.1953   -1.5690 H   0  0  0  1  0  0  0  0  0  0  0  0
  1  2  4  0  0  0  0
  1  6  4  0  0  0  0
  2  3  4  0  0  0  0
  2 18  1  0  0  0  0
  3  4  4  0  0  0  0
  4  5  4  0  0  0  0
  4  7  4  0  0  0  0
  5  6  4  0  0  0  0
  5  9  4  0  0  0  0
  6 25  1  0  0  0  0
  7  8  4  0  0  0  0
  7 26  1  0  0  0  0
  8  9  4  0  0  0  0
  9 10  1  0  0  0  0
 10 11  4  0  0  0  0
 10 15  4  0  0  0  0
 11 12  4  0  0  0  0
 11 27  1  0  0  0  0
 12 13  4  0  0  0  0
 12 28  1  0  0  0  0
 13 14  4  0  0  0  0
 13 16  1  0  0  0  0
 14 15  4  0  0  0  0
 14 29  1  0  0  0  0
 15 30  1  0  0  0  0
 16 17  1  0  0  0  0
 17 31  1  0  0  0  0
 17 32  1  0  0  0  0
 17 33  1  0  0  0  0
 18 19  1  0  0  0  0
 18 34  1  0  0  0  0
 19 20  1  0  0  0  0
 19 23  1  0  0  0  0
 19 35  1  0  0  0  0
 20 21  1  0  0  0  0
 20 36  1  0  0  0  0
 20 37  1  0  0  0  0
 21 22  1  0  0  0  0
 21 24  1  0  0  0  0
 21 38  1  0  0  0  0
 22 23  1  0  0  0  0
 22 39  1  0  0  0  0
 22 40  1  0  0  0  0
 23 41  1  0  0  0  0
 23 42  1  0  0  0  0
 24 43  1  0  0  0  0
 24 44  1  0  0  0  0
M  END
> <ConfClashScore>
0 

> <ConfOneFourInteractionScore>
-0.984337 

> <ConfScore>
-0.0794146 

> <ConfScorePBest>
0.00453953 

> <ConfTolerance>
0.30917 

$$$$
c13.sdf
 OpenBabel04162418043D

 44 47  0  0  0  0  0  0  0  0999 V2000
    2.1079   -0.3773   -1.8533 N   0  0  0  1  0  0  0  0  0  0  0  0
    2.5363    0.5907   -2.6455 C   0  0  0  1  0  0  0  0  0  0  0  0
    2.1526    0.6996   -3.8968 N   0  0  0  1  0  0  0  0  0  0  0  0
    1.2985   -0.1838   -4.4201 C   0  0  0  1  0  0  0  0  0  0  0  0
    0.8204   -1.2304   -3.6033 C   0  0  0  1  0  0  0  0  0  0  0  0
    1.2615   -1.2960   -2.2849 C   0  0  0  1  0  0  0  0  0  0  0  0
    0.7019   -0.3513   -5.6890 C   0  0  0  1  0  0  0  0  0  0  0  0
   -0.0689   -1.4010   -5.6538 N   0  0  0  1  0  0  0  0  0  0  0  0
   -0.0256   -1.9781   -4.3778 N   0  0  0  1  0  0  0  0  0  0  0  0
   -0.7943   -3.1326   -4.1266 C   0  0  0  1  0  0  0  0  0  0  0  0
   -0.2253   -4.3304   -3.7372 C   0  0  0  1  0  0  0  0  0  0  0  0
   -1.0293   -5.4340   -3.4979 C   0  0  0  1  0  0  0  0  0  0  0  0
   -2.3992   -5.3381   -3.6540 C   0  0  0  1  0  0  0  0  0  0  0  0
   -2.9697   -4.1367   -4.0446 C   0  0  0  1  0  0  0  0  0  0  0  0
   -2.1682   -3.0362   -4.2832 C   0  0  0  1  0  0  0  0  0  0  0  0
   -3.0795   -6.4807   -3.3978 O   0  0  0  1  0  0  0  0  0  0  0  0
   -4.5065   -6.4441   -3.5552 C   0  0  0  1  0  0  0  0  0  0  0  0
    3.3977    1.4989   -2.1526 N   0  0  0  1  0  0  0  0  0  0  0  0
    4.0066    1.5577   -0.8229 C   0  0  0  1  0  0  0  0  0  0  0  0
    5.3522    2.2630   -0.8624 C   0  0  0  1  0  0  0  0  0  0  0  0
    5.5826    2.7316    0.5782 C   0  0  0  1  0  0  0  0  0  0  0  0
    4.1932    2.8485    1.2193 C   0  0  0  1  0  0  0  0  0  0  0  0
    3.2021    2.4604    0.1186 C   0  0  0  1  0  0  0  0  0  0  0  0
    6.4088    1.7394    1.3167 N   0  0  0  1  0  0  0  0  0  0  0  0
    0.9317   -2.0527   -1.6523 H   0  0  0  1  0  0  0  0  0  0  0  0
    0.8529    0.2620   -6.5152 H   0  0  0  1  0  0  0  0  0  0  0  0
    0.8059   -4.4037   -3.6237 H   0  0  0  1  0  0  0  0  0  0  0  0
   -0.6015   -6.3343   -3.2011 H   0  0  0  1  0  0  0  0  0  0  0  0
   -4.0009   -4.0633   -4.1582 H   0  0  0  1  0  0  0  0  0  0  0  0
   -2.5959   -2.1359   -4.5801 H   0  0  0  1  0  0  0  0  0  0  0  0
   -4.8962   -7.4397   -3.5120 H   0  0  0  1  0  0  0  0  0  0  0  0
   -4.7497   -6.0067   -4.5009 H   0  0  0  1  0  0  0  0  0  0  0  0
   -4.9368   -5.8586   -2.7697 H   0  0  0  1  0  0  0  0  0  0  0  0
    3.6519    2.2187   -2.7671 H   0  0  0  1  0  0  0  0  0  0  0  0
    4.0982    0.5674   -0.4279 H   0  0  0  1  0  0  0  0  0  0  0  0
    5.3219    3.0978   -1.5312 H   0  0  0  1  0  0  0  0  0  0  0  0
    6.1240    1.5881   -1.1684 H   0  0  0  1  0  0  0  0  0  0  0  0
    6.0748    3.6817    0.5847 H   0  0  0  1  0  0  0  0  0  0  0  0
    4.1080    2.1816    2.0515 H   0  0  0  1  0  0  0  0  0  0  0  0
    4.0153    3.8518    1.5459 H   0  0  0  1  0  0  0  0  0  0  0  0
    2.8521    3.3294   -0.3985 H   0  0  0  1  0  0  0  0  0  0  0  0
    2.3688    1.9301    0.5302 H   0  0  0  1  0  0  0  0  0  0  0  0
    6.5407    2.0450    2.2385 H   0  0  0  1  0  0  0  0  0  0  0  0
    7.2791    1.6466    0.8759 H   0  0  0  1  0  0  0  0  0  0  0  0
  1  2  4  0  0  0  0
  1  6  4  0  0  0  0
  2  3  4  0  0  0  0
  2 18  1  0  0  0  0
  3  4  4  0  0  0  0
  4  5  4  0  0  0  0
  4  7  4  0  0  0  0
  5  6  4  0  0  0  0
  5  9  4  0  0  0  0
  6 25  1  0  0  0  0
  7  8  4  0  0  0  0
  7 26  1  0  0  0  0
  8  9  4  0  0  0  0
  9 10  1  0  0  0  0
 10 11  4  0  0  0  0
 10 15  4  0  0  0  0
 11 12  4  0  0  0  0
 11 27  1  0  0  0  0
 12 13  4  0  0  0  0
 12 28  1  0  0  0  0
 13 14  4  0  0  0  0
 13 16  1  0  0  0  0
 14 15  4  0  0  0  0
 14 29  1  0  0  0  0
 15 30  1  0  0  0  0
 16 17  1  0  0  0  0
 17 31  1  0  0  0  0
 17 32  1  0  0  0  0
 17 33  1  0  0  0  0
 18 19  1  0  0  0  0
 18 34  1  0  0  0  0
 19 20  1  0  0  0  0
 19 23  1  0  0  0  0
 19 35  1  0  0  0  0
 20 21  1  0  0  0  0
 20 36  1  0  0  0  0
 20 37  1  0  0  0  0
 21 22  1  0  0  0  0
 21 24  1  0  0  0  0
 21 38  1  0  0  0  0
 22 23  1  0  0  0  0
 22 39  1  0  0  0  0
 22 40  1  0  0  0  0
 23 41  1  0  0  0  0
 23 42  1  0  0  0  0
 24 43  1  0  0  0  0
 24 44  1  0  0  0  0
M  END
> <ConfClashScore>
0 

> <ConfOneFourInteractionScore>
-0.984337 

> <ConfScore>
-0.0794146 

> <ConfScorePBest>
0.00452621 

> <ConfTolerance>
0.26323 

$$$$
c13.sdf
 OpenBabel04162418043D

 44 47  0  0  0  0  0  0  0  0999 V2000
    2.1078   -0.3773   -1.8532 N   0  0  0  1  0  0  0  0  0  0  0  0
    2.5364    0.5907   -2.6455 C   0  0  0  1  0  0  0  0  0  0  0  0
    2.1526    0.6997   -3.8968 N   0  0  0  1  0  0  0  0  0  0  0  0
    1.2985   -0.1838   -4.4201 C   0  0  0  1  0  0  0  0  0  0  0  0
    0.8204   -1.2304   -3.6034 C   0  0  0  1  0  0  0  0  0  0  0  0
    1.2614   -1.2959   -2.2849 C   0  0  0  1  0  0  0  0  0  0  0  0
    0.7020   -0.3513   -5.6890 C   0  0  0  1  0  0  0  0  0  0  0  0
   -0.0689   -1.4010   -5.6538 N   0  0  0  1  0  0  0  0  0  0  0  0
   -0.0256   -1.9781   -4.3778 N   0  0  0  1  0  0  0  0  0  0  0  0
   -0.7807   -3.1368   -4.0812 C   0  0  0  1  0  0  0  0  0  0  0  0
   -2.0009   -3.2871   -4.7126 C   0  0  0  1  0  0  0  0  0  0  0  0
   -2.8189   -4.3596   -4.3930 C   0  0  0  1  0  0  0  0  0  0  0  0
   -2.4168   -5.2756   -3.4393 C   0  0  0  1  0  0  0  0  0  0  0  0
   -1.1929   -5.1246   -2.8062 C   0  0  0  1  0  0  0  0  0  0  0  0
   -0.3772   -4.0553   -3.1246 C   0  0  0  1  0  0  0  0  0  0  0  0
   -3.2643   -6.2968   -3.1698 O   0  0  0  1  0  0  0  0  0  0  0  0
   -2.8234   -7.2830   -2.2234 C   0  0  0  1  0  0  0  0  0  0  0  0
    3.3976    1.4989   -2.1525 N   0  0  0  1  0  0  0  0  0  0  0  0
    3.9902    2.6207   -2.8825 C   0  0  0  1  0  0  0  0  0  0  0  0
    4.5083    3.7335   -1.8964 C   0  0  0  1  0  0  0  0  0  0  0  0
    5.5283    4.4937   -2.8036 C   0  0  0  1  0  0  0  0  0  0  0  0
    6.0875    3.4705   -3.7943 C   0  0  0  1  0  0  0  0  0  0  0  0
    5.2694    2.2021   -3.5945 C   0  0  0  1  0  0  0  0  0  0  0  0
    4.8513    5.5791   -3.5260 N   0  0  0  1  0  0  0  0  0  0  0  0
    0.9316   -2.0525   -1.6522 H   0  0  0  1  0  0  0  0  0  0  0  0
    0.8530    0.2621   -6.5152 H   0  0  0  1  0  0  0  0  0  0  0  0
   -2.3053   -2.5957   -5.4273 H   0  0  0  1  0  0  0  0  0  0  0  0
   -3.7353   -4.4750   -4.8710 H   0  0  0  1  0  0  0  0  0  0  0  0
   -0.8885   -5.8160   -2.0914 H   0  0  0  1  0  0  0  0  0  0  0  0
    0.5393   -3.9399   -2.6467 H   0  0  0  1  0  0  0  0  0  0  0  0
   -3.6659   -7.6611   -1.6829 H   0  0  0  1  0  0  0  0  0  0  0  0
   -2.1322   -6.8366   -1.5394 H   0  0  0  1  0  0  0  0  0  0  0  0
   -2.3436   -8.0860   -2.7428 H   0  0  0  1  0  0  0  0  0  0  0  0
    3.6537    1.3996   -1.2118 H   0  0  0  1  0  0  0  0  0  0  0  0
    3.2740    3.0163   -3.5721 H   0  0  0  1  0  0  0  0  0  0  0  0
    4.9877    3.3062   -1.0405 H   0  0  0  1  0  0  0  0  0  0  0  0
    3.7136    4.3751   -1.5774 H   0  0  0  1  0  0  0  0  0  0  0  0
    6.3191    4.8999   -2.2081 H   0  0  0  1  0  0  0  0  0  0  0  0
    7.1209    3.2821   -3.5905 H   0  0  0  1  0  0  0  0  0  0  0  0
    5.9806    3.8275   -4.7974 H   0  0  0  1  0  0  0  0  0  0  0  0
    5.0376    1.7589   -4.5403 H   0  0  0  1  0  0  0  0  0  0  0  0
    5.8134    1.5019   -2.9956 H   0  0  0  1  0  0  0  0  0  0  0  0
    4.0764    5.2190   -4.0060 H   0  0  0  1  0  0  0  0  0  0  0  0
    5.4734    5.9827   -4.1666 H   0  0  0  1  0  0  0  0  0  0  0  0
  1  2  4  0  0  0  0
  1  6  4  0  0  0  0
  2  3  4  0  0  0  0
  2 18  1  0  0  0  0
  3  4  4  0  0  0  0
  4  5  4  0  0  0  0
  4  7  4  0  0  0  0
  5  6  4  0  0  0  0
  5  9  4  0  0  0  0
  6 25  1  0  0  0  0
  7  8  4  0  0  0  0
  7 26  1  0  0  0  0
  8  9  4  0  0  0  0
  9 10  1  0  0  0  0
 10 11  4  0  0  0  0
 10 15  4  0  0  0  0
 11 12  4  0  0  0  0
 11 27  1  0  0  0  0
 12 13  4  0  0  0  0
 12 28  1  0  0  0  0
 13 14  4  0  0  0  0
 13 16  1  0  0  0  0
 14 15  4  0  0  0  0
 14 29  1  0  0  0  0
 15 30  1  0  0  0  0
 16 17  1  0  0  0  0
 17 31  1  0  0  0  0
 17 32  1  0  0  0  0
 17 33  1  0  0  0  0
 18 19  1  0  0  0  0
 18 34  1  0  0  0  0
 19 20  1  0  0  0  0
 19 23  1  0  0  0  0
 19 35  1  0  0  0  0
 20 21  1  0  0  0  0
 20 36  1  0  0  0  0
 20 37  1  0  0  0  0
 21 22  1  0  0  0  0
 21 24  1  0  0  0  0
 21 38  1  0  0  0  0
 22 23  1  0  0  0  0
 22 39  1  0  0  0  0
 22 40  1  0  0  0  0
 23 41  1  0  0  0  0
 23 42  1  0  0  0  0
 24 43  1  0  0  0  0
 24 44  1  0  0  0  0
M  END
> <ConfClashScore>
0 

> <ConfOneFourInteractionScore>
-0.984337 

> <ConfScore>
-0.07907 

> <ConfScorePBest>
0.00451288 

> <ConfTolerance>
0.254277 

$$$$
c13.sdf
 OpenBabel04162418043D

 44 47  0  0  0  0  0  0  0  0999 V2000
    2.1079   -0.3773   -1.8533 N   0  0  0  1  0  0  0  0  0  0  0  0
    2.5363    0.5907   -2.6455 C   0  0  0  1  0  0  0  0  0  0  0  0
    2.1526    0.6996   -3.8968 N   0  0  0  1  0  0  0  0  0  0  0  0
    1.2985   -0.1837   -4.4201 C   0  0  0  1  0  0  0  0  0  0  0  0
    0.8205   -1.2305   -3.6033 C   0  0  0  1  0  0  0  0  0  0  0  0
    1.2615   -1.2961   -2.2849 C   0  0  0  1  0  0  0  0  0  0  0  0
    0.7019   -0.3513   -5.6890 C   0  0  0  1  0  0  0  0  0  0  0  0
   -0.0689   -1.4010   -5.6537 N   0  0  0  1  0  0  0  0  0  0  0  0
   -0.0256   -1.9781   -4.3778 N   0  0  0  1  0  0  0  0  0  0  0  0
   -0.8649   -3.0822   -4.0676 C   0  0  0  1  0  0  0  0  0  0  0  0
   -0.5027   -3.9663   -3.0689 C   0  0  0  1  0  0  0  0  0  0  0  0
   -1.3240   -5.0401   -2.7627 C   0  0  0  1  0  0  0  0  0  0  0  0
   -2.5024   -5.2299   -3.4596 C   0  0  0  1  0  0  0  0  0  0  0  0
   -2.8655   -4.3432   -4.4613 C   0  0  0  1  0  0  0  0  0  0  0  0
   -2.0466   -3.2723   -4.7667 C   0  0  0  1  0  0  0  0  0  0  0  0
   -3.2979   -6.2766   -3.1655 O   0  0  0  1  0  0  0  0  0  0  0  0
   -4.5252   -6.3459   -3.9281 C   0  0  0  1  0  0  0  0  0  0  0  0
    3.4010    1.5022   -2.1508 N   0  0  0  1  0  0  0  0  0  0  0  0
    3.7669    1.5963   -0.7367 C   0  0  0  1  0  0  0  0  0  0  0  0
    5.1646    1.0298   -0.4865 C   0  0  0  1  0  0  0  0  0  0  0  0
    5.6216    1.6768    0.8255 C   0  0  0  1  0  0  0  0  0  0  0  0
    4.8926    3.0251    0.8881 C   0  0  0  1  0  0  0  0  0  0  0  0
    3.9294    3.0545   -0.3009 C   0  0  0  1  0  0  0  0  0  0  0  0
    5.2475    0.8366    1.9706 N   0  0  0  1  0  0  0  0  0  0  0  0
    0.9318   -2.0526   -1.6522 H   0  0  0  1  0  0  0  0  0  0  0  0
    0.8530    0.2620   -6.5152 H   0  0  0  1  0  0  0  0  0  0  0  0
    0.3859   -3.8258   -2.5471 H   0  0  0  1  0  0  0  0  0  0  0  0
   -1.0535   -5.7031   -2.0085 H   0  0  0  1  0  0  0  0  0  0  0  0
   -3.7541   -4.4835   -4.9831 H   0  0  0  1  0  0  0  0  0  0  0  0
   -2.3172   -2.6093   -5.5209 H   0  0  0  1  0  0  0  0  0  0  0  0
   -4.2945   -6.4163   -4.9706 H   0  0  0  1  0  0  0  0  0  0  0  0
   -5.1057   -5.4648   -3.7503 H   0  0  0  1  0  0  0  0  0  0  0  0
   -5.0834   -7.2079   -3.6276 H   0  0  0  1  0  0  0  0  0  0  0  0
    3.8075    2.1385   -2.7755 H   0  0  0  1  0  0  0  0  0  0  0  0
    3.0321    1.0934   -0.1434 H   0  0  0  1  0  0  0  0  0  0  0  0
    5.1273   -0.0350   -0.3883 H   0  0  0  1  0  0  0  0  0  0  0  0
    5.8258    1.2918   -1.2859 H   0  0  0  1  0  0  0  0  0  0  0  0
    6.6813    1.8239    0.8214 H   0  0  0  1  0  0  0  0  0  0  0  0
    5.5953    3.8286    0.8143 H   0  0  0  1  0  0  0  0  0  0  0  0
    4.3492    3.1091    1.8060 H   0  0  0  1  0  0  0  0  0  0  0  0
    2.9855    3.4634   -0.0064 H   0  0  0  1  0  0  0  0  0  0  0  0
    4.3386    3.6390   -1.0983 H   0  0  0  1  0  0  0  0  0  0  0  0
    5.4717    1.3009    2.8041 H   0  0  0  1  0  0  0  0  0  0  0  0
    5.7373   -0.0110    1.9273 H   0  0  0  1  0  0  0  0  0  0  0  0
  1  2  4  0  0  0  0
  1  6  4  0  0  0  0
  2  3  4  0  0  0  0
  2 18  1  0  0  0  0
  3  4  4  0  0  0  0
  4  5  4  0  0  0  0
  4  7  4  0  0  0  0
  5  6  4  0  0  0  0
  5  9  4  0  0  0  0
  6 25  1  0  0  0  0
  7  8  4  0  0  0  0
  7 26  1  0  0  0  0
  8  9  4  0  0  0  0
  9 10  1  0  0  0  0
 10 11  4  0  0  0  0
 10 15  4  0  0  0  0
 11 12  4  0  0  0  0
 11 27  1  0  0  0  0
 12 13  4  0  0  0  0
 12 28  1  0  0  0  0
 13 14  4  0  0  0  0
 13 16  1  0  0  0  0
 14 15  4  0  0  0  0
 14 29  1  0  0  0  0
 15 30  1  0  0  0  0
 16 17  1  0  0  0  0
 17 31  1  0  0  0  0
 17 32  1  0  0  0  0
 17 33  1  0  0  0  0
 18 19  1  0  0  0  0
 18 34  1  0  0  0  0
 19 20  1  0  0  0  0
 19 23  1  0  0  0  0
 19 35  1  0  0  0  0
 20 21  1  0  0  0  0
 20 36  1  0  0  0  0
 20 37  1  0  0  0  0
 21 22  1  0  0  0  0
 21 24  1  0  0  0  0
 21 38  1  0  0  0  0
 22 23  1  0  0  0  0
 22 39  1  0  0  0  0
 22 40  1  0  0  0  0
 23 41  1  0  0  0  0
 23 42  1  0  0  0  0
 24 43  1  0  0  0  0
 24 44  1  0  0  0  0
M  END
> <ConfClashScore>
0 

> <ConfOneFourInteractionScore>
-0.984337 

> <ConfScore>
-0.0783484 

> <ConfScorePBest>
0.00449955 

> <ConfTolerance>
0.208592 

$$$$
c13.sdf
 OpenBabel04162418043D

 44 47  0  0  0  0  0  0  0  0999 V2000
    2.1080   -0.3773   -1.8532 N   0  0  0  1  0  0  0  0  0  0  0  0
    2.5363    0.5907   -2.6455 C   0  0  0  1  0  0  0  0  0  0  0  0
    2.1526    0.6997   -3.8968 N   0  0  0  1  0  0  0  0  0  0  0  0
    1.2986   -0.1837   -4.4201 C   0  0  0  1  0  0  0  0  0  0  0  0
    0.8205   -1.2305   -3.6034 C   0  0  0  1  0  0  0  0  0  0  0  0
    1.2615   -1.2960   -2.2849 C   0  0  0  1  0  0  0  0  0  0  0  0
    0.7019   -0.3513   -5.6889 C   0  0  0  1  0  0  0  0  0  0  0  0
   -0.0689   -1.4011   -5.6537 N   0  0  0  1  0  0  0  0  0  0  0  0
   -0.0256   -1.9781   -4.3778 N   0  0  0  1  0  0  0  0  0  0  0  0
   -0.7805   -3.1369   -4.0812 C   0  0  0  1  0  0  0  0  0  0  0  0
   -1.8512   -3.0001   -3.2180 C   0  0  0  1  0  0  0  0  0  0  0  0
   -2.6280   -4.1024   -2.8973 C   0  0  0  1  0  0  0  0  0  0  0  0
   -2.3287   -5.3394   -3.4364 C   0  0  0  1  0  0  0  0  0  0  0  0
   -1.2547   -5.4765   -4.3022 C   0  0  0  1  0  0  0  0  0  0  0  0
   -0.4801   -4.3774   -4.6220 C   0  0  0  1  0  0  0  0  0  0  0  0
   -3.1528   -6.3410   -3.0472 O   0  0  0  1  0  0  0  0  0  0  0  0
   -2.8192   -7.6699   -3.4775 C   0  0  0  1  0  0  0  0  0  0  0  0
    3.3976    1.4989   -2.1527 N   0  0  0  1  0  0  0  0  0  0  0  0
    3.8859    2.6540   -2.9074 C   0  0  0  1  0  0  0  0  0  0  0  0
    2.7034    3.4496   -3.5557 C   0  0  0  1  0  0  0  0  0  0  0  0
    3.3150    4.8447   -3.7813 C   0  0  0  1  0  0  0  0  0  0  0  0
    4.4159    5.0517   -2.6835 C   0  0  0  1  0  0  0  0  0  0  0  0
    4.5091    3.7026   -1.9780 C   0  0  0  1  0  0  0  0  0  0  0  0
    3.9195    4.9196   -5.1222 N   0  0  0  1  0  0  0  0  0  0  0  0
    0.9318   -2.0527   -1.6522 H   0  0  0  1  0  0  0  0  0  0  0  0
    0.8529    0.2620   -6.5151 H   0  0  0  1  0  0  0  0  0  0  0  0
   -2.0741   -2.0702   -2.8091 H   0  0  0  1  0  0  0  0  0  0  0  0
   -3.4361   -3.9987   -2.2510 H   0  0  0  1  0  0  0  0  0  0  0  0
   -1.0319   -6.4063   -4.7111 H   0  0  0  1  0  0  0  0  0  0  0  0
    0.3280   -4.4810   -5.2684 H   0  0  0  1  0  0  0  0  0  0  0  0
   -1.8570   -7.9385   -3.0943 H   0  0  0  1  0  0  0  0  0  0  0  0
   -2.7992   -7.7038   -4.5468 H   0  0  0  1  0  0  0  0  0  0  0  0
   -3.5530   -8.3576   -3.1121 H   0  0  0  1  0  0  0  0  0  0  0  0
    3.7172    1.3801   -1.2339 H   0  0  0  1  0  0  0  0  0  0  0  0
    4.5856    2.3270   -3.6480 H   0  0  0  1  0  0  0  0  0  0  0  0
    2.4027    3.0062   -4.4820 H   0  0  0  1  0  0  0  0  0  0  0  0
    1.8639    3.4992   -2.8942 H   0  0  0  1  0  0  0  0  0  0  0  0
    2.5586    5.5957   -3.6880 H   0  0  0  1  0  0  0  0  0  0  0  0
    4.1252    5.8187   -1.9962 H   0  0  0  1  0  0  0  0  0  0  0  0
    5.3528    5.3100   -3.1313 H   0  0  0  1  0  0  0  0  0  0  0  0
    3.9726    3.7361   -1.0529 H   0  0  0  1  0  0  0  0  0  0  0  0
    5.5338    3.4596   -1.7880 H   0  0  0  1  0  0  0  0  0  0  0  0
    4.4484    4.1115   -5.2882 H   0  0  0  1  0  0  0  0  0  0  0  0
    4.5009    5.7067   -5.1746 H   0  0  0  1  0  0  0  0  0  0  0  0
  1  2  4  0  0  0  0
  1  6  4  0  0  0  0
  2  3  4  0  0  0  0
  2 18  1  0  0  0  0
  3  4  4  0  0  0  0
  4  5  4  0  0  0  0
  4  7  4  0  0  0  0
  5  6  4  0  0  0  0
  5  9  4  0  0  0  0
  6 25  1  0  0  0  0
  7  8  4  0  0  0  0
  7 26  1  0  0  0  0
  8  9  4  0  0  0  0
  9 10  1  0  0  0  0
 10 11  4  0  0  0  0
 10 15  4  0  0  0  0
 11 12  4  0  0  0  0
 11 27  1  0  0  0  0
 12 13  4  0  0  0  0
 12 28  1  0  0  0  0
 13 14  4  0  0  0  0
 13 16  1  0  0  0  0
 14 15  4  0  0  0  0
 14 29  1  0  0  0  0
 15 30  1  0  0  0  0
 16 17  1  0  0  0  0
 17 31  1  0  0  0  0
 17 32  1  0  0  0  0
 17 33  1  0  0  0  0
 18 19  1  0  0  0  0
 18 34  1  0  0  0  0
 19 20  1  0  0  0  0
 19 23  1  0  0  0  0
 19 35  1  0  0  0  0
 20 21  1  0  0  0  0
 20 36  1  0  0  0  0
 20 37  1  0  0  0  0
 21 22  1  0  0  0  0
 21 24  1  0  0  0  0
 21 38  1  0  0  0  0
 22 23  1  0  0  0  0
 22 39  1  0  0  0  0
 22 40  1  0  0  0  0
 23 41  1  0  0  0  0
 23 42  1  0  0  0  0
 24 43  1  0  0  0  0
 24 44  1  0  0  0  0
M  END
> <ConfClashScore>
0 

> <ConfOneFourInteractionScore>
-0.985399 

> <ConfScore>
-0.0780776 

> <ConfScorePBest>
0.00448622 

> <ConfTolerance>
0.257205 

$$$$
c13.sdf
 OpenBabel04162418043D

 44 47  0  0  0  0  0  0  0  0999 V2000
    2.1080   -0.3775   -1.8532 N   0  0  0  1  0  0  0  0  0  0  0  0
    2.5363    0.5907   -2.6455 C   0  0  0  1  0  0  0  0  0  0  0  0
    2.1525    0.6997   -3.8968 N   0  0  0  1  0  0  0  0  0  0  0  0
    1.2986   -0.1837   -4.4201 C   0  0  0  1  0  0  0  0  0  0  0  0
    0.8205   -1.2305   -3.6033 C   0  0  0  1  0  0  0  0  0  0  0  0
    1.2616   -1.2961   -2.2850 C   0  0  0  1  0  0  0  0  0  0  0  0
    0.7019   -0.3512   -5.6889 C   0  0  0  1  0  0  0  0  0  0  0  0
   -0.0690   -1.4009   -5.6538 N   0  0  0  1  0  0  0  0  0  0  0  0
   -0.0256   -1.9781   -4.3778 N   0  0  0  1  0  0  0  0  0  0  0  0
   -0.7942   -3.1326   -4.1267 C   0  0  0  1  0  0  0  0  0  0  0  0
   -2.0906   -2.9547   -3.6818 C   0  0  0  1  0  0  0  0  0  0  0  0
   -2.8921   -4.0559   -3.4245 C   0  0  0  1  0  0  0  0  0  0  0  0
   -2.3935   -5.3319   -3.6078 C   0  0  0  1  0  0  0  0  0  0  0  0
   -1.0932   -5.5101   -4.0540 C   0  0  0  1  0  0  0  0  0  0  0  0
   -0.2938   -4.4122   -4.3105 C   0  0  0  1  0  0  0  0  0  0  0  0
   -3.2653   -6.3272   -3.3197 O   0  0  0  1  0  0  0  0  0  0  0  0
   -2.8813   -7.6621   -3.6845 C   0  0  0  1  0  0  0  0  0  0  0  0
    3.3976    1.4989   -2.1526 N   0  0  0  1  0  0  0  0  0  0  0  0
    3.9296    2.6224   -2.9254 C   0  0  0  1  0  0  0  0  0  0  0  0
    4.5116    3.6753   -1.9954 C   0  0  0  1  0  0  0  0  0  0  0  0
    5.9568    3.9549   -2.4395 C   0  0  0  1  0  0  0  0  0  0  0  0
    6.0048    3.3807   -3.8446 C   0  0  0  1  0  0  0  0  0  0  0  0
    5.0959    2.1548   -3.8168 C   0  0  0  1  0  0  0  0  0  0  0  0
    6.2406    5.4279   -2.4504 N   0  0  0  1  0  0  0  0  0  0  0  0
    0.9319   -2.0528   -1.6523 H   0  0  0  1  0  0  0  0  0  0  0  0
    0.8527    0.2622   -6.5152 H   0  0  0  1  0  0  0  0  0  0  0  0
   -2.4646   -1.9947   -3.5399 H   0  0  0  1  0  0  0  0  0  0  0  0
   -3.8690   -3.9220   -3.0935 H   0  0  0  1  0  0  0  0  0  0  0  0
   -0.7191   -6.4701   -4.1957 H   0  0  0  1  0  0  0  0  0  0  0  0
    0.6830   -4.5460   -4.6415 H   0  0  0  1  0  0  0  0  0  0  0  0
   -3.6344   -8.3509   -3.3632 H   0  0  0  1  0  0  0  0  0  0  0  0
   -1.9513   -7.9062   -3.2150 H   0  0  0  1  0  0  0  0  0  0  0  0
   -2.7719   -7.7236   -4.7472 H   0  0  0  1  0  0  0  0  0  0  0  0
    3.6861    1.4026   -1.2209 H   0  0  0  1  0  0  0  0  0  0  0  0
    3.1499    3.0449   -3.5242 H   0  0  0  1  0  0  0  0  0  0  0  0
    4.5048    3.3138   -0.9883 H   0  0  0  1  0  0  0  0  0  0  0  0
    3.9329    4.5733   -2.0565 H   0  0  0  1  0  0  0  0  0  0  0  0
    6.6572    3.4608   -1.7991 H   0  0  0  1  0  0  0  0  0  0  0  0
    5.6447    4.0968   -4.5534 H   0  0  0  1  0  0  0  0  0  0  0  0
    7.0051    3.0984   -4.0989 H   0  0  0  1  0  0  0  0  0  0  0  0
    5.5966    1.3123   -3.3874 H   0  0  0  1  0  0  0  0  0  0  0  0
    4.7546    1.9046   -4.7996 H   0  0  0  1  0  0  0  0  0  0  0  0
    6.3401    5.7488   -1.5297 H   0  0  0  1  0  0  0  0  0  0  0  0
    5.4984    5.9003   -2.8822 H   0  0  0  1  0  0  0  0  0  0  0  0
  1  2  4  0  0  0  0
  1  6  4  0  0  0  0
  2  3  4  0  0  0  0
  2 18  1  0  0  0  0
  3  4  4  0  0  0  0
  4  5  4  0  0  0  0
  4  7  4  0  0  0  0
  5  6  4  0  0  0  0
  5  9  4  0  0  0  0
  6 25  1  0  0  0  0
  7  8  4  0  0  0  0
  7 26  1  0  0  0  0
  8  9  4  0  0  0  0
  9 10  1  0  0  0  0
 10 11  4  0  0  0  0
 10 15  4  0  0  0  0
 11 12  4  0  0  0  0
 11 27  1  0  0  0  0
 12 13  4  0  0  0  0
 12 28  1  0  0  0  0
 13 14  4  0  0  0  0
 13 16  1  0  0  0  0
 14 15  4  0  0  0  0
 14 29  1  0  0  0  0
 15 30  1  0  0  0  0
 16 17  1  0  0  0  0
 17 31  1  0  0  0  0
 17 32  1  0  0  0  0
 17 33  1  0  0  0  0
 18 19  1  0  0  0  0
 18 34  1  0  0  0  0
 19 20  1  0  0  0  0
 19 23  1  0  0  0  0
 19 35  1  0  0  0  0
 20 21  1  0  0  0  0
 20 36  1  0  0  0  0
 20 37  1  0  0  0  0
 21 22  1  0  0  0  0
 21 24  1  0  0  0  0
 21 38  1  0  0  0  0
 22 23  1  0  0  0  0
 22 39  1  0  0  0  0
 22 40  1  0  0  0  0
 23 41  1  0  0  0  0
 23 42  1  0  0  0  0
 24 43  1  0  0  0  0
 24 44  1  0  0  0  0
M  END
> <ConfClashScore>
0 

> <ConfOneFourInteractionScore>
-0.990106 

> <ConfScore>
-0.0780721 

> <ConfScorePBest>
0.00447289 

> <ConfTolerance>
0.318074 

$$$$
c13.sdf
 OpenBabel04162418043D

 44 47  0  0  0  0  0  0  0  0999 V2000
    2.1080   -0.3774   -1.8532 N   0  0  0  1  0  0  0  0  0  0  0  0
    2.5364    0.5908   -2.6454 C   0  0  0  1  0  0  0  0  0  0  0  0
    2.1526    0.6996   -3.8968 N   0  0  0  1  0  0  0  0  0  0  0  0
    1.2985   -0.1838   -4.4201 C   0  0  0  1  0  0  0  0  0  0  0  0
    0.8205   -1.2305   -3.6033 C   0  0  0  1  0  0  0  0  0  0  0  0
    1.2616   -1.2961   -2.2849 C   0  0  0  1  0  0  0  0  0  0  0  0
    0.7019   -0.3513   -5.6890 C   0  0  0  1  0  0  0  0  0  0  0  0
   -0.0689   -1.4010   -5.6537 N   0  0  0  1  0  0  0  0  0  0  0  0
   -0.0256   -1.9781   -4.3778 N   0  0  0  1  0  0  0  0  0  0  0  0
   -0.7583   -3.1315   -4.0321 C   0  0  0  1  0  0  0  0  0  0  0  0
   -2.1076   -3.0901   -3.7356 C   0  0  0  1  0  0  0  0  0  0  0  0
   -2.7809   -4.2563   -3.4069 C   0  0  0  1  0  0  0  0  0  0  0  0
   -2.1020   -5.4596   -3.3703 C   0  0  0  1  0  0  0  0  0  0  0  0
   -0.7487   -5.5010   -3.6676 C   0  0  0  1  0  0  0  0  0  0  0  0
   -0.0771   -4.3383   -3.9955 C   0  0  0  1  0  0  0  0  0  0  0  0
   -2.8618   -6.5282   -3.0319 O   0  0  0  1  0  0  0  0  0  0  0  0
   -2.2700   -7.8328   -3.1880 C   0  0  0  1  0  0  0  0  0  0  0  0
    3.3980    1.5174   -2.1891 N   0  0  0  1  0  0  0  0  0  0  0  0
    3.9544    2.5795   -3.0092 C   0  0  0  1  0  0  0  0  0  0  0  0
    4.5235    3.7078   -2.1457 C   0  0  0  1  0  0  0  0  0  0  0  0
    5.9324    3.2568   -1.7533 C   0  0  0  1  0  0  0  0  0  0  0  0
    6.3275    2.1519   -2.7413 C   0  0  0  1  0  0  0  0  0  0  0  0
    5.1920    2.1027   -3.7695 C   0  0  0  1  0  0  0  0  0  0  0  0
    6.8783    4.3920   -1.8507 N   0  0  0  1  0  0  0  0  0  0  0  0
    0.9318   -2.0527   -1.6523 H   0  0  0  1  0  0  0  0  0  0  0  0
    0.8529    0.2621   -6.5151 H   0  0  0  1  0  0  0  0  0  0  0  0
   -2.6177   -2.1840   -3.7593 H   0  0  0  1  0  0  0  0  0  0  0  0
   -3.7971   -4.2258   -3.1878 H   0  0  0  1  0  0  0  0  0  0  0  0
   -0.2386   -6.4070   -3.6440 H   0  0  0  1  0  0  0  0  0  0  0  0
    0.9390   -4.3686   -4.2146 H   0  0  0  1  0  0  0  0  0  0  0  0
   -2.9653   -8.5809   -2.8686 H   0  0  0  1  0  0  0  0  0  0  0  0
   -1.3821   -7.8948   -2.5941 H   0  0  0  1  0  0  0  0  0  0  0  0
   -2.0234   -7.9915   -4.2170 H   0  0  0  1  0  0  0  0  0  0  0  0
    3.6663    1.4735   -1.2475 H   0  0  0  1  0  0  0  0  0  0  0  0
    3.2037    2.9439   -3.6790 H   0  0  0  1  0  0  0  0  0  0  0  0
    3.9207    3.8503   -1.2732 H   0  0  0  1  0  0  0  0  0  0  0  0
    4.5655    4.6198   -2.7037 H   0  0  0  1  0  0  0  0  0  0  0  0
    5.9334    2.8759   -0.7534 H   0  0  0  1  0  0  0  0  0  0  0  0
    7.2549    2.3905   -3.2188 H   0  0  0  1  0  0  0  0  0  0  0  0
    6.4169    1.2127   -2.2368 H   0  0  0  1  0  0  0  0  0  0  0  0
    5.0521    1.1045   -4.1286 H   0  0  0  1  0  0  0  0  0  0  0  0
    5.4014    2.7526   -4.5934 H   0  0  0  1  0  0  0  0  0  0  0  0
    6.7000    5.0294   -1.1280 H   0  0  0  1  0  0  0  0  0  0  0  0
    6.7642    4.8387   -2.7155 H   0  0  0  1  0  0  0  0  0  0  0  0
  1  2  4  0  0  0  0
  1  6  4  0  0  0  0
  2  3  4  0  0  0  0
  2 18  1  0  0  0  0
  3  4  4  0  0  0  0
  4  5  4  0  0  0  0
  4  7  4  0  0  0  0
  5  6  4  0  0  0  0
  5  9  4  0  0  0  0
  6 25  1  0  0  0  0
  7  8  4  0  0  0  0
  7 26  1  0  0  0  0
  8  9  4  0  0  0  0
  9 10  1  0  0  0  0
 10 11  4  0  0  0  0
 10 15  4  0  0  0  0
 11 12  4  0  0  0  0
 11 27  1  0  0  0  0
 12 13  4  0  0  0  0
 12 28  1  0  0  0  0
 13 14  4  0  0  0  0
 13 16  1  0  0  0  0
 14 15  4  0  0  0  0
 14 29  1  0  0  0  0
 15 30  1  0  0  0  0
 16 17  1  0  0  0  0
 17 31  1  0  0  0  0
 17 32  1  0  0  0  0
 17 33  1  0  0  0  0
 18 19  1  0  0  0  0
 18 34  1  0  0  0  0
 19 20  1  0  0  0  0
 19 23  1  0  0  0  0
 19 35  1  0  0  0  0
 20 21  1  0  0  0  0
 20 36  1  0  0  0  0
 20 37  1  0  0  0  0
 21 22  1  0  0  0  0
 21 24  1  0  0  0  0
 21 38  1  0  0  0  0
 22 23  1  0  0  0  0
 22 39  1  0  0  0  0
 22 40  1  0  0  0  0
 23 41  1  0  0  0  0
 23 42  1  0  0  0  0
 24 43  1  0  0  0  0
 24 44  1  0  0  0  0
M  END
> <ConfClashScore>
0 

> <ConfOneFourInteractionScore>
-0.984337 

> <ConfScore>
-0.0780721 

> <ConfScorePBest>
0.00445956 

> <ConfTolerance>
0.323842 

$$$$
c13.sdf
 OpenBabel04162418043D

 44 47  0  0  0  0  0  0  0  0999 V2000
    2.1079   -0.3773   -1.8532 N   0  0  0  1  0  0  0  0  0  0  0  0
    2.5364    0.5907   -2.6455 C   0  0  0  1  0  0  0  0  0  0  0  0
    2.1526    0.6997   -3.8968 N   0  0  0  1  0  0  0  0  0  0  0  0
    1.2985   -0.1837   -4.4201 C   0  0  0  1  0  0  0  0  0  0  0  0
    0.8205   -1.2304   -3.6033 C   0  0  0  1  0  0  0  0  0  0  0  0
    1.2616   -1.2960   -2.2849 C   0  0  0  1  0  0  0  0  0  0  0  0
    0.7019   -0.3512   -5.6890 C   0  0  0  1  0  0  0  0  0  0  0  0
   -0.0689   -1.4010   -5.6537 N   0  0  0  1  0  0  0  0  0  0  0  0
   -0.0256   -1.9781   -4.3778 N   0  0  0  1  0  0  0  0  0  0  0  0
   -0.7906   -3.1272   -4.1278 C   0  0  0  1  0  0  0  0  0  0  0  0
   -0.7083   -3.8892   -2.9777 C   0  0  0  1  0  0  0  0  0  0  0  0
   -1.5152   -5.0062   -2.8274 C   0  0  0  1  0  0  0  0  0  0  0  0
   -2.3981   -5.3611   -3.8299 C   0  0  0  1  0  0  0  0  0  0  0  0
   -2.4805   -4.5967   -4.9833 C   0  0  0  1  0  0  0  0  0  0  0  0
   -1.6760   -3.4829   -5.1332 C   0  0  0  1  0  0  0  0  0  0  0  0
   -3.1271   -6.4693   -3.5741 O   0  0  0  1  0  0  0  0  0  0  0  0
   -3.9525   -7.0271   -4.6084 C   0  0  0  1  0  0  0  0  0  0  0  0
    3.3993    1.4778   -2.1056 N   0  0  0  1  0  0  0  0  0  0  0  0
    3.8400    1.4419   -0.7103 C   0  0  0  1  0  0  0  0  0  0  0  0
    5.2822    1.9296   -0.5713 C   0  0  0  1  0  0  0  0  0  0  0  0
    5.4101    2.3648    0.8927 C   0  0  0  1  0  0  0  0  0  0  0  0
    3.9990    2.7951    1.3126 C   0  0  0  1  0  0  0  0  0  0  0  0
    3.0745    2.4583    0.1403 C   0  0  0  1  0  0  0  0  0  0  0  0
    5.8831    1.2256    1.7379 N   0  0  0  1  0  0  0  0  0  0  0  0
    0.9318   -2.0526   -1.6522 H   0  0  0  1  0  0  0  0  0  0  0  0
    0.8528    0.2621   -6.5152 H   0  0  0  1  0  0  0  0  0  0  0  0
   -0.0412   -3.6244   -2.2250 H   0  0  0  1  0  0  0  0  0  0  0  0
   -1.4562   -5.5774   -1.9602 H   0  0  0  1  0  0  0  0  0  0  0  0
   -3.1476   -4.8614   -5.7360 H   0  0  0  1  0  0  0  0  0  0  0  0
   -1.7349   -2.9117   -6.0004 H   0  0  0  1  0  0  0  0  0  0  0  0
   -4.5224   -7.8407   -4.2108 H   0  0  0  1  0  0  0  0  0  0  0  0
   -3.3335   -7.3817   -5.4060 H   0  0  0  1  0  0  0  0  0  0  0  0
   -4.6165   -6.2744   -4.9793 H   0  0  0  1  0  0  0  0  0  0  0  0
    3.7515    2.1878   -2.6821 H   0  0  0  1  0  0  0  0  0  0  0  0
    3.7268    0.4499   -0.3254 H   0  0  0  1  0  0  0  0  0  0  0  0
    5.4654    2.7551   -1.2270 H   0  0  0  1  0  0  0  0  0  0  0  0
    5.9697    1.1396   -0.7908 H   0  0  0  1  0  0  0  0  0  0  0  0
    6.0934    3.1834    0.9817 H   0  0  0  1  0  0  0  0  0  0  0  0
    3.9769    3.8464    1.5104 H   0  0  0  1  0  0  0  0  0  0  0  0
    3.6950    2.2605    2.1882 H   0  0  0  1  0  0  0  0  0  0  0  0
    2.8609    3.3375   -0.4310 H   0  0  0  1  0  0  0  0  0  0  0  0
    2.1597    2.0331    0.4967 H   0  0  0  1  0  0  0  0  0  0  0  0
    5.8714    1.4912    2.6812 H   0  0  0  1  0  0  0  0  0  0  0  0
    6.7966    0.9837    1.4782 H   0  0  0  1  0  0  0  0  0  0  0  0
  1  2  4  0  0  0  0
  1  6  4  0  0  0  0
  2  3  4  0  0  0  0
  2 18  1  0  0  0  0
  3  4  4  0  0  0  0
  4  5  4  0  0  0  0
  4  7  4  0  0  0  0
  5  6  4  0  0  0  0
  5  9  4  0  0  0  0
  6 25  1  0  0  0  0
  7  8  4  0  0  0  0
  7 26  1  0  0  0  0
  8  9  4  0  0  0  0
  9 10  1  0  0  0  0
 10 11  4  0  0  0  0
 10 15  4  0  0  0  0
 11 12  4  0  0  0  0
 11 27  1  0  0  0  0
 12 13  4  0  0  0  0
 12 28  1  0  0  0  0
 13 14  4  0  0  0  0
 13 16  1  0  0  0  0
 14 15  4  0  0  0  0
 14 29  1  0  0  0  0
 15 30  1  0  0  0  0
 16 17  1  0  0  0  0
 17 31  1  0  0  0  0
 17 32  1  0  0  0  0
 17 33  1  0  0  0  0
 18 19  1  0  0  0  0
 18 34  1  0  0  0  0
 19 20  1  0  0  0  0
 19 23  1  0  0  0  0
 19 35  1  0  0  0  0
 20 21  1  0  0  0  0
 20 36  1  0  0  0  0
 20 37  1  0  0  0  0
 21 22  1  0  0  0  0
 21 24  1  0  0  0  0
 21 38  1  0  0  0  0
 22 23  1  0  0  0  0
 22 39  1  0  0  0  0
 22 40  1  0  0  0  0
 23 41  1  0  0  0  0
 23 42  1  0  0  0  0
 24 43  1  0  0  0  0
 24 44  1  0  0  0  0
M  END
> <ConfClashScore>
0 

> <ConfOneFourInteractionScore>
-0.984337 

> <ConfScore>
-0.0777275 

> <ConfScorePBest>
0.00444624 

> <ConfTolerance>
0.297235 

$$$$
c13.sdf
 OpenBabel04162418043D

 44 47  0  0  0  0  0  0  0  0999 V2000
    2.1079   -0.3773   -1.8532 N   0  0  0  1  0  0  0  0  0  0  0  0
    2.5363    0.5907   -2.6455 C   0  0  0  1  0  0  0  0  0  0  0  0
    2.1526    0.6996   -3.8968 N   0  0  0  1  0  0  0  0  0  0  0  0
    1.2986   -0.1837   -4.4201 C   0  0  0  1  0  0  0  0  0  0  0  0
    0.8204   -1.2305   -3.6033 C   0  0  0  1  0  0  0  0  0  0  0  0
    1.2615   -1.2960   -2.2850 C   0  0  0  1  0  0  0  0  0  0  0  0
    0.7019   -0.3513   -5.6890 C   0  0  0  1  0  0  0  0  0  0  0  0
   -0.0689   -1.4010   -5.6537 N   0  0  0  1  0  0  0  0  0  0  0  0
   -0.0256   -1.9781   -4.3778 N   0  0  0  1  0  0  0  0  0  0  0  0
   -0.7806   -3.1369   -4.0812 C   0  0  0  1  0  0  0  0  0  0  0  0
   -0.6708   -4.3007   -4.8186 C   0  0  0  1  0  0  0  0  0  0  0  0
   -1.4310   -5.4094   -4.4806 C   0  0  0  1  0  0  0  0  0  0  0  0
   -2.3028   -5.3495   -3.4097 C   0  0  0  1  0  0  0  0  0  0  0  0
   -2.4128   -4.1821   -2.6703 C   0  0  0  1  0  0  0  0  0  0  0  0
   -1.6547   -3.0765   -3.0071 C   0  0  0  1  0  0  0  0  0  0  0  0
   -2.9948   -6.4903   -3.1785 O   0  0  0  1  0  0  0  0  0  0  0  0
   -3.8983   -6.4950   -2.0622 C   0  0  0  1  0  0  0  0  0  0  0  0
    3.4041    1.4827   -2.1026 N   0  0  0  1  0  0  0  0  0  0  0  0
    3.6826    1.5083   -0.6632 C   0  0  0  1  0  0  0  0  0  0  0  0
    5.1152    1.9630   -0.3834 C   0  0  0  1  0  0  0  0  0  0  0  0
    5.0905    2.4712    1.0623 C   0  0  0  1  0  0  0  0  0  0  0  0
    3.6559    2.9616    1.2954 C   0  0  0  1  0  0  0  0  0  0  0  0
    2.8598    2.5889    0.0425 C   0  0  0  1  0  0  0  0  0  0  0  0
    5.4243    1.3730    2.0051 N   0  0  0  1  0  0  0  0  0  0  0  0
    0.9317   -2.0527   -1.6523 H   0  0  0  1  0  0  0  0  0  0  0  0
    0.8529    0.2621   -6.5152 H   0  0  0  1  0  0  0  0  0  0  0  0
   -0.0179   -4.3447   -5.6268 H   0  0  0  1  0  0  0  0  0  0  0  0
   -1.3455   -6.2865   -5.0329 H   0  0  0  1  0  0  0  0  0  0  0  0
   -3.0656   -4.1382   -1.8619 H   0  0  0  1  0  0  0  0  0  0  0  0
   -1.7402   -2.1995   -2.4548 H   0  0  0  1  0  0  0  0  0  0  0  0
   -3.3518   -6.3169   -1.1597 H   0  0  0  1  0  0  0  0  0  0  0  0
   -4.3856   -7.4457   -2.0021 H   0  0  0  1  0  0  0  0  0  0  0  0
   -4.6306   -5.7259   -2.1931 H   0  0  0  1  0  0  0  0  0  0  0  0
    3.8560    2.1259   -2.6878 H   0  0  0  1  0  0  0  0  0  0  0  0
    3.4936    0.5416   -0.2455 H   0  0  0  1  0  0  0  0  0  0  0  0
    5.7966    1.1441   -0.4833 H   0  0  0  1  0  0  0  0  0  0  0  0
    5.3990    2.7475   -1.0536 H   0  0  0  1  0  0  0  0  0  0  0  0
    5.7861    3.2744    1.1889 H   0  0  0  1  0  0  0  0  0  0  0  0
    3.6464    4.0221    1.4373 H   0  0  0  1  0  0  0  0  0  0  0  0
    3.2369    2.4824    2.1555 H   0  0  0  1  0  0  0  0  0  0  0  0
    1.8968    2.2082    0.3120 H   0  0  0  1  0  0  0  0  0  0  0  0
    2.7418    3.4422   -0.5922 H   0  0  0  1  0  0  0  0  0  0  0  0
    4.9424    0.5604    1.7445 H   0  0  0  1  0  0  0  0  0  0  0  0
    5.1615    1.6313    2.9132 H   0  0  0  1  0  0  0  0  0  0  0  0
  1  2  4  0  0  0  0
  1  6  4  0  0  0  0
  2  3  4  0  0  0  0
  2 18  1  0  0  0  0
  3  4  4  0  0  0  0
  4  5  4  0  0  0  0
  4  7  4  0  0  0  0
  5  6  4  0  0  0  0
  5  9  4  0  0  0  0
  6 25  1  0  0  0  0
  7  8  4  0  0  0  0
  7 26  1  0  0  0  0
  8  9  4  0  0  0  0
  9 10  1  0  0  0  0
 10 11  4  0  0  0  0
 10 15  4  0  0  0  0
 11 12  4  0  0  0  0
 11 27  1  0  0  0  0
 12 13  4  0  0  0  0
 12 28  1  0  0  0  0
 13 14  4  0  0  0  0
 13 16  1  0  0  0  0
 14 15  4  0  0  0  0
 14 29  1  0  0  0  0
 15 30  1  0  0  0  0
 16 17  1  0  0  0  0
 17 31  1  0  0  0  0
 17 32  1  0  0  0  0
 17 33  1  0  0  0  0
 18 19  1  0  0  0  0
 18 34  1  0  0  0  0
 19 20  1  0  0  0  0
 19 23  1  0  0  0  0
 19 35  1  0  0  0  0
 20 21  1  0  0  0  0
 20 36  1  0  0  0  0
 20 37  1  0  0  0  0
 21 22  1  0  0  0  0
 21 24  1  0  0  0  0
 21 38  1  0  0  0  0
 22 23  1  0  0  0  0
 22 39  1  0  0  0  0
 22 40  1  0  0  0  0
 23 41  1  0  0  0  0
 23 42  1  0  0  0  0
 24 43  1  0  0  0  0
 24 44  1  0  0  0  0
M  END
> <ConfClashScore>
0 

> <ConfOneFourInteractionScore>
-0.984337 

> <ConfScore>
-0.0762043 

> <ConfScorePBest>
0.00443291 

> <ConfTolerance>
0.264675 

$$$$
c13.sdf
 OpenBabel04162418043D

 44 47  0  0  0  0  0  0  0  0999 V2000
    2.1080   -0.3775   -1.8532 N   0  0  0  1  0  0  0  0  0  0  0  0
    2.5363    0.5907   -2.6455 C   0  0  0  1  0  0  0  0  0  0  0  0
    2.1525    0.6996   -3.8968 N   0  0  0  1  0  0  0  0  0  0  0  0
    1.2985   -0.1838   -4.4201 C   0  0  0  1  0  0  0  0  0  0  0  0
    0.8205   -1.2304   -3.6033 C   0  0  0  1  0  0  0  0  0  0  0  0
    1.2616   -1.2961   -2.2850 C   0  0  0  1  0  0  0  0  0  0  0  0
    0.7018   -0.3512   -5.6889 C   0  0  0  1  0  0  0  0  0  0  0  0
   -0.0690   -1.4010   -5.6537 N   0  0  0  1  0  0  0  0  0  0  0  0
   -0.0256   -1.9781   -4.3778 N   0  0  0  1  0  0  0  0  0  0  0  0
   -0.8028   -3.1454   -4.1238 C   0  0  0  1  0  0  0  0  0  0  0  0
   -0.4104   -4.3644   -4.6435 C   0  0  0  1  0  0  0  0  0  0  0  0
   -1.2119   -5.4820   -4.4700 C   0  0  0  1  0  0  0  0  0  0  0  0
   -2.4060   -5.3760   -3.7820 C   0  0  0  1  0  0  0  0  0  0  0  0
   -2.7994   -4.1532   -3.2610 C   0  0  0  1  0  0  0  0  0  0  0  0
   -2.0003   -3.0389   -3.4339 C   0  0  0  1  0  0  0  0  0  0  0  0
   -3.2711   -6.3929   -3.5548 O   0  0  0  1  0  0  0  0  0  0  0  0
   -2.9748   -7.6563   -4.1699 C   0  0  0  1  0  0  0  0  0  0  0  0
    3.3930    1.4938   -2.1553 N   0  0  0  1  0  0  0  0  0  0  0  0
    3.9526    2.6337   -2.8710 C   0  0  0  1  0  0  0  0  0  0  0  0
    4.4679    3.6982   -1.9022 C   0  0  0  1  0  0  0  0  0  0  0  0
    5.4828    4.5100   -2.7147 C   0  0  0  1  0  0  0  0  0  0  0  0
    6.0361    3.5357   -3.7623 C   0  0  0  1  0  0  0  0  0  0  0  0
    5.2257    2.2445   -3.6264 C   0  0  0  1  0  0  0  0  0  0  0  0
    4.8105    5.6735   -3.3827 N   0  0  0  1  0  0  0  0  0  0  0  0
    0.9318   -2.0527   -1.6523 H   0  0  0  1  0  0  0  0  0  0  0  0
    0.8527    0.2622   -6.5151 H   0  0  0  1  0  0  0  0  0  0  0  0
    0.4862   -4.4433   -5.1646 H   0  0  0  1  0  0  0  0  0  0  0  0
   -0.9148   -6.4001   -4.8576 H   0  0  0  1  0  0  0  0  0  0  0  0
   -3.6960   -4.0743   -2.7398 H   0  0  0  1  0  0  0  0  0  0  0  0
   -2.2974   -2.1206   -3.0464 H   0  0  0  1  0  0  0  0  0  0  0  0
   -3.4071   -8.4456   -3.5910 H   0  0  0  1  0  0  0  0  0  0  0  0
   -1.9141   -7.7894   -4.2180 H   0  0  0  1  0  0  0  0  0  0  0  0
   -3.3822   -7.6754   -5.1591 H   0  0  0  1  0  0  0  0  0  0  0  0
    3.6717    1.3775   -1.2231 H   0  0  0  1  0  0  0  0  0  0  0  0
    3.2155    3.0361   -3.5339 H   0  0  0  1  0  0  0  0  0  0  0  0
    4.9404    3.2418   -1.0577 H   0  0  0  1  0  0  0  0  0  0  0  0
    3.6663    4.3233   -1.5685 H   0  0  0  1  0  0  0  0  0  0  0  0
    6.2690    4.8666   -2.0826 H   0  0  0  1  0  0  0  0  0  0  0  0
    5.9190    3.9437   -4.7444 H   0  0  0  1  0  0  0  0  0  0  0  0
    7.0721    3.3429   -3.5767 H   0  0  0  1  0  0  0  0  0  0  0  0
    4.9819    1.8536   -4.5920 H   0  0  0  1  0  0  0  0  0  0  0  0
    5.7785    1.5134   -3.0742 H   0  0  0  1  0  0  0  0  0  0  0  0
    4.0284    5.3571   -3.8814 H   0  0  0  1  0  0  0  0  0  0  0  0
    5.4390    6.1035   -3.9995 H   0  0  0  1  0  0  0  0  0  0  0  0
  1  2  4  0  0  0  0
  1  6  4  0  0  0  0
  2  3  4  0  0  0  0
  2 18  1  0  0  0  0
  3  4  4  0  0  0  0
  4  5  4  0  0  0  0
  4  7  4  0  0  0  0
  5  6  4  0  0  0  0
  5  9  4  0  0  0  0
  6 25  1  0  0  0  0
  7  8  4  0  0  0  0
  7 26  1  0  0  0  0
  8  9  4  0  0  0  0
  9 10  1  0  0  0  0
 10 11  4  0  0  0  0
 10 15  4  0  0  0  0
 11 12  4  0  0  0  0
 11 27  1  0  0  0  0
 12 13  4  0  0  0  0
 12 28  1  0  0  0  0
 13 14  4  0  0  0  0
 13 16  1  0  0  0  0
 14 15  4  0  0  0  0
 14 29  1  0  0  0  0
 15 30  1  0  0  0  0
 16 17  1  0  0  0  0
 17 31  1  0  0  0  0
 17 32  1  0  0  0  0
 17 33  1  0  0  0  0
 18 19  1  0  0  0  0
 18 34  1  0  0  0  0
 19 20  1  0  0  0  0
 19 23  1  0  0  0  0
 19 35  1  0  0  0  0
 20 21  1  0  0  0  0
 20 36  1  0  0  0  0
 20 37  1  0  0  0  0
 21 22  1  0  0  0  0
 21 24  1  0  0  0  0
 21 38  1  0  0  0  0
 22 23  1  0  0  0  0
 22 39  1  0  0  0  0
 22 40  1  0  0  0  0
 23 41  1  0  0  0  0
 23 42  1  0  0  0  0
 24 43  1  0  0  0  0
 24 44  1  0  0  0  0
M  END
> <ConfClashScore>
0 

> <ConfOneFourInteractionScore>
-0.984337 

> <ConfScore>
-0.0759361 

> <ConfScorePBest>
0.00441958 

> <ConfTolerance>
0.313507 

$$$$
c13.sdf
 OpenBabel04162418043D

 44 47  0  0  0  0  0  0  0  0999 V2000
    2.1079   -0.3774   -1.8532 N   0  0  0  1  0  0  0  0  0  0  0  0
    2.5364    0.5907   -2.6455 C   0  0  0  1  0  0  0  0  0  0  0  0
    2.1526    0.6996   -3.8968 N   0  0  0  1  0  0  0  0  0  0  0  0
    1.2985   -0.1837   -4.4201 C   0  0  0  1  0  0  0  0  0  0  0  0
    0.8204   -1.2304   -3.6033 C   0  0  0  1  0  0  0  0  0  0  0  0
    1.2615   -1.2960   -2.2850 C   0  0  0  1  0  0  0  0  0  0  0  0
    0.7019   -0.3512   -5.6890 C   0  0  0  1  0  0  0  0  0  0  0  0
   -0.0689   -1.4010   -5.6538 N   0  0  0  1  0  0  0  0  0  0  0  0
   -0.0256   -1.9781   -4.3778 N   0  0  0  1  0  0  0  0  0  0  0  0
   -0.8581   -3.0731   -4.0702 C   0  0  0  1  0  0  0  0  0  0  0  0
   -0.3145   -4.1006   -3.3225 C   0  0  0  1  0  0  0  0  0  0  0  0
   -1.0904   -5.1990   -2.9870 C   0  0  0  1  0  0  0  0  0  0  0  0
   -2.4062   -5.2694   -3.4047 C   0  0  0  1  0  0  0  0  0  0  0  0
   -2.9511   -4.2388   -4.1546 C   0  0  0  1  0  0  0  0  0  0  0  0
   -2.1776   -3.1435   -4.4892 C   0  0  0  1  0  0  0  0  0  0  0  0
   -3.2565   -6.2905   -3.1435 O   0  0  0  1  0  0  0  0  0  0  0  0
   -2.7278   -7.4184   -2.4287 C   0  0  0  1  0  0  0  0  0  0  0  0
    3.4203    1.4993   -2.0924 N   0  0  0  1  0  0  0  0  0  0  0  0
    3.7928    1.3234   -0.6868 C   0  0  0  1  0  0  0  0  0  0  0  0
    4.5977   -0.0127   -0.4726 C   0  0  0  1  0  0  0  0  0  0  0  0
    5.3199    0.2804    0.8816 C   0  0  0  1  0  0  0  0  0  0  0  0
    5.5448    1.7926    0.9449 C   0  0  0  1  0  0  0  0  0  0  0  0
    4.7985    2.3781   -0.2461 C   0  0  0  1  0  0  0  0  0  0  0  0
    4.4596   -0.1640    2.0343 N   0  0  0  1  0  0  0  0  0  0  0  0
    0.9316   -2.0526   -1.6523 H   0  0  0  1  0  0  0  0  0  0  0  0
    0.8530    0.2621   -6.5152 H   0  0  0  1  0  0  0  0  0  0  0  0
    0.6766   -4.0495   -3.0116 H   0  0  0  1  0  0  0  0  0  0  0  0
   -0.6827   -5.9704   -2.4210 H   0  0  0  1  0  0  0  0  0  0  0  0
   -3.9423   -4.2898   -4.4655 H   0  0  0  1  0  0  0  0  0  0  0  0
   -2.5853   -2.3722   -5.0552 H   0  0  0  1  0  0  0  0  0  0  0  0
   -2.4161   -7.1087   -1.4531 H   0  0  0  1  0  0  0  0  0  0  0  0
   -1.8892   -7.8164   -2.9610 H   0  0  0  1  0  0  0  0  0  0  0  0
   -3.4839   -8.1702   -2.3395 H   0  0  0  1  0  0  0  0  0  0  0  0
    3.7857    2.2372   -2.6239 H   0  0  0  1  0  0  0  0  0  0  0  0
    2.9130    1.3480   -0.0784 H   0  0  0  1  0  0  0  0  0  0  0  0
    5.2995   -0.1783   -1.2631 H   0  0  0  1  0  0  0  0  0  0  0  0
    3.9436   -0.8558   -0.3934 H   0  0  0  1  0  0  0  0  0  0  0  0
    6.2580   -0.2331    0.9173 H   0  0  0  1  0  0  0  0  0  0  0  0
    5.1545    2.1884    1.8592 H   0  0  0  1  0  0  0  0  0  0  0  0
    6.5889    2.0163    0.8758 H   0  0  0  1  0  0  0  0  0  0  0  0
    4.2913    3.2756    0.0406 H   0  0  0  1  0  0  0  0  0  0  0  0
    5.4818    2.5925   -1.0412 H   0  0  0  1  0  0  0  0  0  0  0  0
    4.4543   -1.1429    2.0801 H   0  0  0  1  0  0  0  0  0  0  0  0
    3.5446    0.1617    1.9032 H   0  0  0  1  0  0  0  0  0  0  0  0
  1  2  4  0  0  0  0
  1  6  4  0  0  0  0
  2  3  4  0  0  0  0
  2 18  1  0  0  0  0
  3  4  4  0  0  0  0
  4  5  4  0  0  0  0
  4  7  4  0  0  0  0
  5  6  4  0  0  0  0
  5  9  4  0  0  0  0
  6 25  1  0  0  0  0
  7  8  4  0  0  0  0
  7 26  1  0  0  0  0
  8  9  4  0  0  0  0
  9 10  1  0  0  0  0
 10 11  4  0  0  0  0
 10 15  4  0  0  0  0
 11 12  4  0  0  0  0
 11 27  1  0  0  0  0
 12 13  4  0  0  0  0
 12 28  1  0  0  0  0
 13 14  4  0  0  0  0
 13 16  1  0  0  0  0
 14 15  4  0  0  0  0
 14 29  1  0  0  0  0
 15 30  1  0  0  0  0
 16 17  1  0  0  0  0
 17 31  1  0  0  0  0
 17 32  1  0  0  0  0
 17 33  1  0  0  0  0
 18 19  1  0  0  0  0
 18 34  1  0  0  0  0
 19 20  1  0  0  0  0
 19 23  1  0  0  0  0
 19 35  1  0  0  0  0
 20 21  1  0  0  0  0
 20 36  1  0  0  0  0
 20 37  1  0  0  0  0
 21 22  1  0  0  0  0
 21 24  1  0  0  0  0
 21 38  1  0  0  0  0
 22 23  1  0  0  0  0
 22 39  1  0  0  0  0
 22 40  1  0  0  0  0
 23 41  1  0  0  0  0
 23 42  1  0  0  0  0
 24 43  1  0  0  0  0
 24 44  1  0  0  0  0
M  END
> <ConfClashScore>
0 

> <ConfOneFourInteractionScore>
-0.981848 

> <ConfScore>
-0.0753642 

> <ConfScorePBest>
0.00440625 

> <ConfTolerance>
0.23075 

$$$$
c13.sdf
 OpenBabel04162418043D

 44 47  0  0  0  0  0  0  0  0999 V2000
    2.1080   -0.3774   -1.8533 N   0  0  0  1  0  0  0  0  0  0  0  0
    2.5364    0.5907   -2.6455 C   0  0  0  1  0  0  0  0  0  0  0  0
    2.1525    0.6996   -3.8968 N   0  0  0  1  0  0  0  0  0  0  0  0
    1.2985   -0.1838   -4.4201 C   0  0  0  1  0  0  0  0  0  0  0  0
    0.8204   -1.2305   -3.6033 C   0  0  0  1  0  0  0  0  0  0  0  0
    1.2616   -1.2961   -2.2850 C   0  0  0  1  0  0  0  0  0  0  0  0
    0.7019   -0.3512   -5.6889 C   0  0  0  1  0  0  0  0  0  0  0  0
   -0.0689   -1.4010   -5.6537 N   0  0  0  1  0  0  0  0  0  0  0  0
   -0.0256   -1.9781   -4.3778 N   0  0  0  1  0  0  0  0  0  0  0  0
   -0.8609   -3.0770   -4.0691 C   0  0  0  1  0  0  0  0  0  0  0  0
   -1.5113   -3.7565   -5.0818 C   0  0  0  1  0  0  0  0  0  0  0  0
   -2.3256   -4.8367   -4.7796 C   0  0  0  1  0  0  0  0  0  0  0  0
   -2.4915   -5.2312   -3.4653 C   0  0  0  1  0  0  0  0  0  0  0  0
   -1.8389   -4.5496   -2.4497 C   0  0  0  1  0  0  0  0  0  0  0  0
   -1.0269   -3.4724   -2.7509 C   0  0  0  1  0  0  0  0  0  0  0  0
   -3.2502   -6.2546   -3.0064 O   0  0  0  1  0  0  0  0  0  0  0  0
   -4.0510   -6.9601   -3.9673 C   0  0  0  1  0  0  0  0  0  0  0  0
    3.3977    1.4989   -2.1526 N   0  0  0  1  0  0  0  0  0  0  0  0
    3.8628    1.6653   -0.7826 C   0  0  0  1  0  0  0  0  0  0  0  0
    5.1681    0.9044   -0.5668 C   0  0  0  1  0  0  0  0  0  0  0  0
    5.7747    1.6192    0.6558 C   0  0  0  1  0  0  0  0  0  0  0  0
    5.2352    3.0405    0.6180 C   0  0  0  1  0  0  0  0  0  0  0  0
    4.1908    3.1224   -0.5073 C   0  0  0  1  0  0  0  0  0  0  0  0
    5.3549    0.9378    1.9167 N   0  0  0  1  0  0  0  0  0  0  0  0
    0.9318   -2.0527   -1.6523 H   0  0  0  1  0  0  0  0  0  0  0  0
    0.8527    0.2622   -6.5151 H   0  0  0  1  0  0  0  0  0  0  0  0
   -1.3898   -3.4572   -6.0702 H   0  0  0  1  0  0  0  0  0  0  0  0
   -2.8119   -5.3504   -5.5419 H   0  0  0  1  0  0  0  0  0  0  0  0
   -1.9604   -4.8488   -1.4612 H   0  0  0  1  0  0  0  0  0  0  0  0
   -0.5406   -2.9586   -1.9886 H   0  0  0  1  0  0  0  0  0  0  0  0
   -3.4144   -7.5172   -4.6226 H   0  0  0  1  0  0  0  0  0  0  0  0
   -4.6235   -6.2590   -4.5377 H   0  0  0  1  0  0  0  0  0  0  0  0
   -4.7116   -7.6300   -3.4577 H   0  0  0  1  0  0  0  0  0  0  0  0
    3.7615    2.1346   -2.8036 H   0  0  0  1  0  0  0  0  0  0  0  0
    3.1110    1.3172   -0.1054 H   0  0  0  1  0  0  0  0  0  0  0  0
    4.9830   -0.1286   -0.3577 H   0  0  0  1  0  0  0  0  0  0  0  0
    5.8089    0.9869   -1.4197 H   0  0  0  1  0  0  0  0  0  0  0  0
    6.8427    1.6249    0.5914 H   0  0  0  1  0  0  0  0  0  0  0  0
    4.7782    3.2803    1.5554 H   0  0  0  1  0  0  0  0  0  0  0  0
    6.0329    3.7264    0.4236 H   0  0  0  1  0  0  0  0  0  0  0  0
    3.3216    3.6572   -0.1858 H   0  0  0  1  0  0  0  0  0  0  0  0
    4.5995    3.5944   -1.3763 H   0  0  0  1  0  0  0  0  0  0  0  0
    5.7564    0.0446    1.9552 H   0  0  0  1  0  0  0  0  0  0  0  0
    4.3784    0.8579    1.9351 H   0  0  0  1  0  0  0  0  0  0  0  0
  1  2  4  0  0  0  0
  1  6  4  0  0  0  0
  2  3  4  0  0  0  0
  2 18  1  0  0  0  0
  3  4  4  0  0  0  0
  4  5  4  0  0  0  0
  4  7  4  0  0  0  0
  5  6  4  0  0  0  0
  5  9  4  0  0  0  0
  6 25  1  0  0  0  0
  7  8  4  0  0  0  0
  7 26  1  0  0  0  0
  8  9  4  0  0  0  0
  9 10  1  0  0  0  0
 10 11  4  0  0  0  0
 10 15  4  0  0  0  0
 11 12  4  0  0  0  0
 11 27  1  0  0  0  0
 12 13  4  0  0  0  0
 12 28  1  0  0  0  0
 13 14  4  0  0  0  0
 13 16  1  0  0  0  0
 14 15  4  0  0  0  0
 14 29  1  0  0  0  0
 15 30  1  0  0  0  0
 16 17  1  0  0  0  0
 17 31  1  0  0  0  0
 17 32  1  0  0  0  0
 17 33  1  0  0  0  0
 18 19  1  0  0  0  0
 18 34  1  0  0  0  0
 19 20  1  0  0  0  0
 19 23  1  0  0  0  0
 19 35  1  0  0  0  0
 20 21  1  0  0  0  0
 20 36  1  0  0  0  0
 20 37  1  0  0  0  0
 21 22  1  0  0  0  0
 21 24  1  0  0  0  0
 21 38  1  0  0  0  0
 22 23  1  0  0  0  0
 22 39  1  0  0  0  0
 22 40  1  0  0  0  0
 23 41  1  0  0  0  0
 23 42  1  0  0  0  0
 24 43  1  0  0  0  0
 24 44  1  0  0  0  0
M  END
> <ConfClashScore>
0 

> <ConfOneFourInteractionScore>
-0.984337 

> <ConfScore>
-0.0752448 

> <ConfScorePBest>
0.00439292 

> <ConfTolerance>
0.246507 

$$$$
c13.sdf
 OpenBabel04162418043D

 44 47  0  0  0  0  0  0  0  0999 V2000
    2.1080   -0.3774   -1.8532 N   0  0  0  1  0  0  0  0  0  0  0  0
    2.5364    0.5907   -2.6455 C   0  0  0  1  0  0  0  0  0  0  0  0
    2.1526    0.6996   -3.8968 N   0  0  0  1  0  0  0  0  0  0  0  0
    1.2986   -0.1837   -4.4201 C   0  0  0  1  0  0  0  0  0  0  0  0
    0.8204   -1.2305   -3.6034 C   0  0  0  1  0  0  0  0  0  0  0  0
    1.2615   -1.2960   -2.2850 C   0  0  0  1  0  0  0  0  0  0  0  0
    0.7018   -0.3512   -5.6890 C   0  0  0  1  0  0  0  0  0  0  0  0
   -0.0690   -1.4009   -5.6537 N   0  0  0  1  0  0  0  0  0  0  0  0
   -0.0256   -1.9781   -4.3778 N   0  0  0  1  0  0  0  0  0  0  0  0
   -0.7857   -3.1447   -4.0791 C   0  0  0  1  0  0  0  0  0  0  0  0
   -2.1195   -3.2103   -4.4353 C   0  0  0  1  0  0  0  0  0  0  0  0
   -2.8579   -4.3481   -4.1494 C   0  0  0  1  0  0  0  0  0  0  0  0
   -2.2619   -5.4147   -3.5033 C   0  0  0  1  0  0  0  0  0  0  0  0
   -0.9241   -5.3487   -3.1461 C   0  0  0  1  0  0  0  0  0  0  0  0
   -0.1877   -4.2144   -3.4312 C   0  0  0  1  0  0  0  0  0  0  0  0
   -3.0048   -6.4849   -3.1337 O   0  0  0  1  0  0  0  0  0  0  0  0
   -4.3159   -6.6032   -3.7076 C   0  0  0  1  0  0  0  0  0  0  0  0
    3.3929    1.5241   -2.2161 N   0  0  0  1  0  0  0  0  0  0  0  0
    3.9095    2.6558   -2.9929 C   0  0  0  1  0  0  0  0  0  0  0  0
    2.8575    3.7683   -3.0854 C   0  0  0  1  0  0  0  0  0  0  0  0
    3.5264    5.0437   -2.5676 C   0  0  0  1  0  0  0  0  0  0  0  0
    5.0320    4.7766   -2.6346 C   0  0  0  1  0  0  0  0  0  0  0  0
    5.1096    3.2911   -2.2822 C   0  0  0  1  0  0  0  0  0  0  0  0
    3.1680    6.1990   -3.4231 N   0  0  0  1  0  0  0  0  0  0  0  0
    0.9317   -2.0527   -1.6523 H   0  0  0  1  0  0  0  0  0  0  0  0
    0.8528    0.2621   -6.5152 H   0  0  0  1  0  0  0  0  0  0  0  0
   -2.5691   -2.4063   -4.9178 H   0  0  0  1  0  0  0  0  0  0  0  0
   -3.8605   -4.3991   -4.4210 H   0  0  0  1  0  0  0  0  0  0  0  0
   -0.4744   -6.1529   -2.6636 H   0  0  0  1  0  0  0  0  0  0  0  0
    0.8149   -4.1633   -3.1596 H   0  0  0  1  0  0  0  0  0  0  0  0
   -4.8600   -5.6962   -3.5458 H   0  0  0  1  0  0  0  0  0  0  0  0
   -4.8349   -7.4172   -3.2460 H   0  0  0  1  0  0  0  0  0  0  0  0
   -4.2299   -6.7846   -4.7586 H   0  0  0  1  0  0  0  0  0  0  0  0
    3.7064    1.4439   -1.2910 H   0  0  0  1  0  0  0  0  0  0  0  0
    4.1873    2.3209   -3.9704 H   0  0  0  1  0  0  0  0  0  0  0  0
    2.0085    3.5250   -2.4813 H   0  0  0  1  0  0  0  0  0  0  0  0
    2.5472    3.8999   -4.1009 H   0  0  0  1  0  0  0  0  0  0  0  0
    3.2267    5.2394   -1.5592 H   0  0  0  1  0  0  0  0  0  0  0  0
    5.5642    5.3727   -1.9230 H   0  0  0  1  0  0  0  0  0  0  0  0
    5.4163    4.9636   -3.6156 H   0  0  0  1  0  0  0  0  0  0  0  0
    6.0255    2.8670   -2.6377 H   0  0  0  1  0  0  0  0  0  0  0  0
    5.0381    3.1508   -1.2238 H   0  0  0  1  0  0  0  0  0  0  0  0
    3.3685    5.9878   -4.3588 H   0  0  0  1  0  0  0  0  0  0  0  0
    3.6871    6.9831   -3.1470 H   0  0  0  1  0  0  0  0  0  0  0  0
  1  2  4  0  0  0  0
  1  6  4  0  0  0  0
  2  3  4  0  0  0  0
  2 18  1  0  0  0  0
  3  4  4  0  0  0  0
  4  5  4  0  0  0  0
  4  7  4  0  0  0  0
  5  6  4  0  0  0  0
  5  9  4  0  0  0  0
  6 25  1  0  0  0  0
  7  8  4  0  0  0  0
  7 26  1  0  0  0  0
  8  9  4  0  0  0  0
  9 10  1  0  0  0  0
 10 11  4  0  0  0  0
 10 15  4  0  0  0  0
 11 12  4  0  0  0  0
 11 27  1  0  0  0  0
 12 13  4  0  0  0  0
 12 28  1  0  0  0  0
 13 14  4  0  0  0  0
 13 16  1  0  0  0  0
 14 15  4  0  0  0  0
 14 29  1  0  0  0  0
 15 30  1  0  0  0  0
 16 17  1  0  0  0  0
 17 31  1  0  0  0  0
 17 32  1  0  0  0  0
 17 33  1  0  0  0  0
 18 19  1  0  0  0  0
 18 34  1  0  0  0  0
 19 20  1  0  0  0  0
 19 23  1  0  0  0  0
 19 35  1  0  0  0  0
 20 21  1  0  0  0  0
 20 36  1  0  0  0  0
 20 37  1  0  0  0  0
 21 22  1  0  0  0  0
 21 24  1  0  0  0  0
 21 38  1  0  0  0  0
 22 23  1  0  0  0  0
 22 39  1  0  0  0  0
 22 40  1  0  0  0  0
 23 41  1  0  0  0  0
 23 42  1  0  0  0  0
 24 43  1  0  0  0  0
 24 44  1  0  0  0  0
M  END
> <ConfClashScore>
0 

> <ConfOneFourInteractionScore>
-0.984337 

> <ConfScore>
-0.0745091 

> <ConfScorePBest>
0.0043796 

> <ConfTolerance>
0.329814 

$$$$
c13.sdf
 OpenBabel04162418043D

 44 47  0  0  0  0  0  0  0  0999 V2000
    2.1079   -0.3773   -1.8532 N   0  0  0  1  0  0  0  0  0  0  0  0
    2.5364    0.5907   -2.6455 C   0  0  0  1  0  0  0  0  0  0  0  0
    2.1526    0.6996   -3.8968 N   0  0  0  1  0  0  0  0  0  0  0  0
    1.2985   -0.1838   -4.4201 C   0  0  0  1  0  0  0  0  0  0  0  0
    0.8205   -1.2305   -3.6033 C   0  0  0  1  0  0  0  0  0  0  0  0
    1.2615   -1.2960   -2.2849 C   0  0  0  1  0  0  0  0  0  0  0  0
    0.7019   -0.3514   -5.6890 C   0  0  0  1  0  0  0  0  0  0  0  0
   -0.0688   -1.4010   -5.6538 N   0  0  0  1  0  0  0  0  0  0  0  0
   -0.0256   -1.9781   -4.3778 N   0  0  0  1  0  0  0  0  0  0  0  0
   -0.7857   -3.1447   -4.0792 C   0  0  0  1  0  0  0  0  0  0  0  0
   -0.1889   -4.3551   -3.7812 C   0  0  0  1  0  0  0  0  0  0  0  0
   -0.9676   -5.4361   -3.3983 C   0  0  0  1  0  0  0  0  0  0  0  0
   -2.3413   -5.3051   -3.3197 C   0  0  0  1  0  0  0  0  0  0  0  0
   -2.9397   -4.0910   -3.6186 C   0  0  0  1  0  0  0  0  0  0  0  0
   -2.1634   -3.0130   -4.0004 C   0  0  0  1  0  0  0  0  0  0  0  0
   -2.9963   -6.4281   -2.9409 O   0  0  0  1  0  0  0  0  0  0  0  0
   -4.4317   -6.3836   -2.9452 C   0  0  0  1  0  0  0  0  0  0  0  0
    3.3993    1.4777   -2.1056 N   0  0  0  1  0  0  0  0  0  0  0  0
    3.7948    1.4778   -0.6934 C   0  0  0  1  0  0  0  0  0  0  0  0
    4.9571    0.5072   -0.4569 C   0  0  0  1  0  0  0  0  0  0  0  0
    6.1471    1.3150   -0.9480 C   0  0  0  1  0  0  0  0  0  0  0  0
    5.8687    2.7421   -0.4641 C   0  0  0  1  0  0  0  0  0  0  0  0
    4.3480    2.8465   -0.2868 C   0  0  0  1  0  0  0  0  0  0  0  0
    7.4069    0.8001   -0.3623 N   0  0  0  1  0  0  0  0  0  0  0  0
    0.9316   -2.0526   -1.6522 H   0  0  0  1  0  0  0  0  0  0  0  0
    0.8529    0.2620   -6.5152 H   0  0  0  1  0  0  0  0  0  0  0  0
    0.8444   -4.4550   -3.8442 H   0  0  0  1  0  0  0  0  0  0  0  0
   -0.5182   -6.3459   -3.1703 H   0  0  0  1  0  0  0  0  0  0  0  0
   -3.9731   -3.9911   -3.5555 H   0  0  0  1  0  0  0  0  0  0  0  0
   -2.6127   -2.1033   -4.2284 H   0  0  0  1  0  0  0  0  0  0  0  0
   -4.8192   -7.3247   -2.6149 H   0  0  0  1  0  0  0  0  0  0  0  0
   -4.7792   -6.1836   -3.9373 H   0  0  0  1  0  0  0  0  0  0  0  0
   -4.7663   -5.6095   -2.2866 H   0  0  0  1  0  0  0  0  0  0  0  0
    3.7841    2.1620   -2.6922 H   0  0  0  1  0  0  0  0  0  0  0  0
    2.9535    1.2149   -0.0869 H   0  0  0  1  0  0  0  0  0  0  0  0
    5.0546    0.2629    0.5803 H   0  0  0  1  0  0  0  0  0  0  0  0
    4.8354   -0.3909   -1.0255 H   0  0  0  1  0  0  0  0  0  0  0  0
    6.2106    1.2835   -2.0157 H   0  0  0  1  0  0  0  0  0  0  0  0
    6.2068    3.4519   -1.1898 H   0  0  0  1  0  0  0  0  0  0  0  0
    6.3635    2.9204    0.4677 H   0  0  0  1  0  0  0  0  0  0  0  0
    4.1042    3.0605    0.7328 H   0  0  0  1  0  0  0  0  0  0  0  0
    3.9497    3.6134   -0.9180 H   0  0  0  1  0  0  0  0  0  0  0  0
    7.3607    0.8574    0.6149 H   0  0  0  1  0  0  0  0  0  0  0  0
    8.1605    1.3367   -0.6856 H   0  0  0  1  0  0  0  0  0  0  0  0
  1  2  4  0  0  0  0
  1  6  4  0  0  0  0
  2  3  4  0  0  0  0
  2 18  1  0  0  0  0
  3  4  4  0  0  0  0
  4  5  4  0  0  0  0
  4  7  4  0  0  0  0
  5  6  4  0  0  0  0
  5  9  4  0  0  0  0
  6 25  1  0  0  0  0
  7  8  4  0  0  0  0
  7 26  1  0  0  0  0
  8  9  4  0  0  0  0
  9 10  1  0  0  0  0
 10 11  4  0  0  0  0
 10 15  4  0  0  0  0
 11 12  4  0  0  0  0
 11 27  1  0  0  0  0
 12 13  4  0  0  0  0
 12 28  1  0  0  0  0
 13 14  4  0  0  0  0
 13 16  1  0  0  0  0
 14 15  4  0  0  0  0
 14 29  1  0  0  0  0
 15 30  1  0  0  0  0
 16 17  1  0  0  0  0
 17 31  1  0  0  0  0
 17 32  1  0  0  0  0
 17 33  1  0  0  0  0
 18 19  1  0  0  0  0
 18 34  1  0  0  0  0
 19 20  1  0  0  0  0
 19 23  1  0  0  0  0
 19 35  1  0  0  0  0
 20 21  1  0  0  0  0
 20 36  1  0  0  0  0
 20 37  1  0  0  0  0
 21 22  1  0  0  0  0
 21 24  1  0  0  0  0
 21 38  1  0  0  0  0
 22 23  1  0  0  0  0
 22 39  1  0  0  0  0
 22 40  1  0  0  0  0
 23 41  1  0  0  0  0
 23 42  1  0  0  0  0
 24 43  1  0  0  0  0
 24 44  1  0  0  0  0
M  END
> <ConfClashScore>
0 

> <ConfOneFourInteractionScore>
-0.984337 

> <ConfScore>
-0.0739295 

> <ConfScorePBest>
0.00436627 

> <ConfTolerance>
0.280983 

$$$$
c13.sdf
 OpenBabel04162418043D

 44 47  0  0  0  0  0  0  0  0999 V2000
    2.1079   -0.3773   -1.8532 N   0  0  0  1  0  0  0  0  0  0  0  0
    2.5363    0.5907   -2.6455 C   0  0  0  1  0  0  0  0  0  0  0  0
    2.1526    0.6997   -3.8969 N   0  0  0  1  0  0  0  0  0  0  0  0
    1.2985   -0.1838   -4.4201 C   0  0  0  1  0  0  0  0  0  0  0  0
    0.8204   -1.2305   -3.6033 C   0  0  0  1  0  0  0  0  0  0  0  0
    1.2615   -1.2960   -2.2849 C   0  0  0  1  0  0  0  0  0  0  0  0
    0.7019   -0.3513   -5.6890 C   0  0  0  1  0  0  0  0  0  0  0  0
   -0.0690   -1.4010   -5.6538 N   0  0  0  1  0  0  0  0  0  0  0  0
   -0.0256   -1.9781   -4.3778 N   0  0  0  1  0  0  0  0  0  0  0  0
   -0.8609   -3.0770   -4.0690 C   0  0  0  1  0  0  0  0  0  0  0  0
   -0.3192   -4.2240   -3.5205 C   0  0  0  1  0  0  0  0  0  0  0  0
   -1.1387   -5.2989   -3.2130 C   0  0  0  1  0  0  0  0  0  0  0  0
   -2.4966   -5.2256   -3.4598 C   0  0  0  1  0  0  0  0  0  0  0  0
   -3.0398   -4.0751   -4.0099 C   0  0  0  1  0  0  0  0  0  0  0  0
   -2.2229   -3.0033   -4.3167 C   0  0  0  1  0  0  0  0  0  0  0  0
   -3.3503   -6.2411   -3.1875 O   0  0  0  1  0  0  0  0  0  0  0  0
   -4.6703   -6.1630   -3.7605 C   0  0  0  1  0  0  0  0  0  0  0  0
    3.3930    1.5242   -2.2161 N   0  0  0  1  0  0  0  0  0  0  0  0
    3.9184    1.6599   -0.8647 C   0  0  0  1  0  0  0  0  0  0  0  0
    5.2535    0.9194   -0.7313 C   0  0  0  1  0  0  0  0  0  0  0  0
    6.3164    1.9636   -1.0734 C   0  0  0  1  0  0  0  0  0  0  0  0
    5.7567    3.2216   -0.4049 C   0  0  0  1  0  0  0  0  0  0  0  0
    4.2367    3.1287   -0.5575 C   0  0  0  1  0  0  0  0  0  0  0  0
    7.6468    1.5912   -0.5013 N   0  0  0  1  0  0  0  0  0  0  0  0
    0.9317   -2.0526   -1.6523 H   0  0  0  1  0  0  0  0  0  0  0  0
    0.8529    0.2620   -6.5152 H   0  0  0  1  0  0  0  0  0  0  0  0
    0.7032   -4.2807   -3.3385 H   0  0  0  1  0  0  0  0  0  0  0  0
   -0.7316   -6.1605   -2.7965 H   0  0  0  1  0  0  0  0  0  0  0  0
   -4.0622   -4.0184   -4.1920 H   0  0  0  1  0  0  0  0  0  0  0  0
   -2.6299   -2.1416   -4.7331 H   0  0  0  1  0  0  0  0  0  0  0  0
   -4.5947   -6.1187   -4.8269 H   0  0  0  1  0  0  0  0  0  0  0  0
   -5.1634   -5.2840   -3.4012 H   0  0  0  1  0  0  0  0  0  0  0  0
   -5.2328   -7.0285   -3.4788 H   0  0  0  1  0  0  0  0  0  0  0  0
    3.6970    2.1816   -2.8762 H   0  0  0  1  0  0  0  0  0  0  0  0
    3.2059    1.2767   -0.1644 H   0  0  0  1  0  0  0  0  0  0  0  0
    5.2986    0.0980   -1.4155 H   0  0  0  1  0  0  0  0  0  0  0  0
    5.3866    0.5599    0.2677 H   0  0  0  1  0  0  0  0  0  0  0  0
    6.4065    2.0936   -2.1317 H   0  0  0  1  0  0  0  0  0  0  0  0
    6.0271    3.2459    0.6301 H   0  0  0  1  0  0  0  0  0  0  0  0
    6.1277    4.0993   -0.8917 H   0  0  0  1  0  0  0  0  0  0  0  0
    3.9071    3.7540   -1.3607 H   0  0  0  1  0  0  0  0  0  0  0  0
    3.7554    3.4291    0.3497 H   0  0  0  1  0  0  0  0  0  0  0  0
    7.5954    1.5977    0.4773 H   0  0  0  1  0  0  0  0  0  0  0  0
    8.3217    2.2373   -0.7971 H   0  0  0  1  0  0  0  0  0  0  0  0
  1  2  4  0  0  0  0
  1  6  4  0  0  0  0
  2  3  4  0  0  0  0
  2 18  1  0  0  0  0
  3  4  4  0  0  0  0
  4  5  4  0  0  0  0
  4  7  4  0  0  0  0
  5  6  4  0  0  0  0
  5  9  4  0  0  0  0
  6 25  1  0  0  0  0
  7  8  4  0  0  0  0
  7 26  1  0  0  0  0
  8  9  4  0  0  0  0
  9 10  1  0  0  0  0
 10 11  4  0  0  0  0
 10 15  4  0  0  0  0
 11 12  4  0  0  0  0
 11 27  1  0  0  0  0
 12 13  4  0  0  0  0
 12 28  1  0  0  0  0
 13 14  4  0  0  0  0
 13 16  1  0  0  0  0
 14 15  4  0  0  0  0
 14 29  1  0  0  0  0
 15 30  1  0  0  0  0
 16 17  1  0  0  0  0
 17 31  1  0  0  0  0
 17 32  1  0  0  0  0
 17 33  1  0  0  0  0
 18 19  1  0  0  0  0
 18 34  1  0  0  0  0
 19 20  1  0  0  0  0
 19 23  1  0  0  0  0
 19 35  1  0  0  0  0
 20 21  1  0  0  0  0
 20 36  1  0  0  0  0
 20 37  1  0  0  0  0
 21 22  1  0  0  0  0
 21 24  1  0  0  0  0
 21 38  1  0  0  0  0
 22 23  1  0  0  0  0
 22 39  1  0  0  0  0
 22 40  1  0  0  0  0
 23 41  1  0  0  0  0
 23 42  1  0  0  0  0
 24 43  1  0  0  0  0
 24 44  1  0  0  0  0
M  END
> <ConfClashScore>
0 

> <ConfOneFourInteractionScore>
-0.984337 

> <ConfScore>
-0.0739295 

> <ConfScorePBest>
0.00435294 

> <ConfTolerance>
0.356808 

$$$$
c13.sdf
 OpenBabel04162418043D

 44 47  0  0  0  0  0  0  0  0999 V2000
    2.1079   -0.3773   -1.8532 N   0  0  0  1  0  0  0  0  0  0  0  0
    2.5363    0.5907   -2.6455 C   0  0  0  1  0  0  0  0  0  0  0  0
    2.1526    0.6996   -3.8968 N   0  0  0  1  0  0  0  0  0  0  0  0
    1.2985   -0.1837   -4.4201 C   0  0  0  1  0  0  0  0  0  0  0  0
    0.8204   -1.2304   -3.6033 C   0  0  0  1  0  0  0  0  0  0  0  0
    1.2615   -1.2960   -2.2849 C   0  0  0  1  0  0  0  0  0  0  0  0
    0.7019   -0.3513   -5.6890 C   0  0  0  1  0  0  0  0  0  0  0  0
   -0.0689   -1.4010   -5.6537 N   0  0  0  1  0  0  0  0  0  0  0  0
   -0.0256   -1.9781   -4.3778 N   0  0  0  1  0  0  0  0  0  0  0  0
   -0.8676   -3.0764   -4.1100 C   0  0  0  1  0  0  0  0  0  0  0  0
   -0.7959   -4.1612   -4.9633 C   0  0  0  1  0  0  0  0  0  0  0  0
   -1.5979   -5.2702   -4.7430 C   0  0  0  1  0  0  0  0  0  0  0  0
   -2.4730   -5.2889   -3.6733 C   0  0  0  1  0  0  0  0  0  0  0  0
   -2.5447   -4.2007   -2.8175 C   0  0  0  1  0  0  0  0  0  0  0  0
   -1.7451   -3.0950   -3.0371 C   0  0  0  1  0  0  0  0  0  0  0  0
   -3.2963   -6.2978   -3.3655 O   0  0  0  1  0  0  0  0  0  0  0  0
   -3.3385   -7.5291   -4.1623 C   0  0  0  1  0  0  0  0  0  0  0  0
    3.4098    1.5117   -2.1457 N   0  0  0  1  0  0  0  0  0  0  0  0
    3.8676    1.4633   -0.7531 C   0  0  0  1  0  0  0  0  0  0  0  0
    5.3881    1.2809   -0.6944 C   0  0  0  1  0  0  0  0  0  0  0  0
    5.9520    2.7015   -0.6584 C   0  0  0  1  0  0  0  0  0  0  0  0
    4.9570    3.4181    0.2578 C   0  0  0  1  0  0  0  0  0  0  0  0
    3.5918    2.7988   -0.0506 C   0  0  0  1  0  0  0  0  0  0  0  0
    7.3095    2.7228   -0.0926 N   0  0  0  1  0  0  0  0  0  0  0  0
    0.9317   -2.0526   -1.6522 H   0  0  0  1  0  0  0  0  0  0  0  0
    0.8529    0.2621   -6.5152 H   0  0  0  1  0  0  0  0  0  0  0  0
   -0.1405   -4.1456   -5.7705 H   0  0  0  1  0  0  0  0  0  0  0  0
   -1.5412   -6.0882   -5.3828 H   0  0  0  1  0  0  0  0  0  0  0  0
   -3.2002   -4.2164   -2.0103 H   0  0  0  1  0  0  0  0  0  0  0  0
   -1.8018   -2.2770   -2.3974 H   0  0  0  1  0  0  0  0  0  0  0  0
   -3.9183   -8.2672   -3.6487 H   0  0  0  1  0  0  0  0  0  0  0  0
   -2.3433   -7.8945   -4.3066 H   0  0  0  1  0  0  0  0  0  0  0  0
   -3.7846   -7.3233   -5.1128 H   0  0  0  1  0  0  0  0  0  0  0  0
    3.7399    2.2241   -2.7322 H   0  0  0  1  0  0  0  0  0  0  0  0
    3.3743    0.6627   -0.2426 H   0  0  0  1  0  0  0  0  0  0  0  0
    5.6690    0.7419    0.1862 H   0  0  0  1  0  0  0  0  0  0  0  0
    5.7385    0.7585   -1.5599 H   0  0  0  1  0  0  0  0  0  0  0  0
    5.9650    3.1389   -1.6348 H   0  0  0  1  0  0  0  0  0  0  0  0
    4.9465    4.4675    0.0491 H   0  0  0  1  0  0  0  0  0  0  0  0
    5.2149    3.2606    1.2844 H   0  0  0  1  0  0  0  0  0  0  0  0
    3.0476    2.6339    0.8558 H   0  0  0  1  0  0  0  0  0  0  0  0
    3.0296    3.4447   -0.6923 H   0  0  0  1  0  0  0  0  0  0  0  0
    7.2967    2.3265    0.8036 H   0  0  0  1  0  0  0  0  0  0  0  0
    7.6249    3.6490   -0.0355 H   0  0  0  1  0  0  0  0  0  0  0  0
  1  2  4  0  0  0  0
  1  6  4  0  0  0  0
  2  3  4  0  0  0  0
  2 18  1  0  0  0  0
  3  4  4  0  0  0  0
  4  5  4  0  0  0  0
  4  7  4  0  0  0  0
  5  6  4  0  0  0  0
  5  9  4  0  0  0  0
  6 25  1  0  0  0  0
  7  8  4  0  0  0  0
  7 26  1  0  0  0  0
  8  9  4  0  0  0  0
  9 10  1  0  0  0  0
 10 11  4  0  0  0  0
 10 15  4  0  0  0  0
 11 12  4  0  0  0  0
 11 27  1  0  0  0  0
 12 13  4  0  0  0  0
 12 28  1  0  0  0  0
 13 14  4  0  0  0  0
 13 16  1  0  0  0  0
 14 15  4  0  0  0  0
 14 29  1  0  0  0  0
 15 30  1  0  0  0  0
 16 17  1  0  0  0  0
 17 31  1  0  0  0  0
 17 32  1  0  0  0  0
 17 33  1  0  0  0  0
 18 19  1  0  0  0  0
 18 34  1  0  0  0  0
 19 20  1  0  0  0  0
 19 23  1  0  0  0  0
 19 35  1  0  0  0  0
 20 21  1  0  0  0  0
 20 36  1  0  0  0  0
 20 37  1  0  0  0  0
 21 22  1  0  0  0  0
 21 24  1  0  0  0  0
 21 38  1  0  0  0  0
 22 23  1  0  0  0  0
 22 39  1  0  0  0  0
 22 40  1  0  0  0  0
 23 41  1  0  0  0  0
 23 42  1  0  0  0  0
 24 43  1  0  0  0  0
 24 44  1  0  0  0  0
M  END
> <ConfClashScore>
0 

> <ConfOneFourInteractionScore>
-0.984337 

> <ConfScore>
-0.0736929 

> <ConfScorePBest>
0.00433961 

> <ConfTolerance>
0.236272 

$$$$
c13.sdf
 OpenBabel04162418043D

 44 47  0  0  0  0  0  0  0  0999 V2000
    2.1079   -0.3773   -1.8533 N   0  0  0  1  0  0  0  0  0  0  0  0
    2.5364    0.5907   -2.6454 C   0  0  0  1  0  0  0  0  0  0  0  0
    2.1526    0.6995   -3.8969 N   0  0  0  1  0  0  0  0  0  0  0  0
    1.2985   -0.1838   -4.4202 C   0  0  0  1  0  0  0  0  0  0  0  0
    0.8204   -1.2305   -3.6033 C   0  0  0  1  0  0  0  0  0  0  0  0
    1.2615   -1.2960   -2.2850 C   0  0  0  1  0  0  0  0  0  0  0  0
    0.7019   -0.3513   -5.6891 C   0  0  0  1  0  0  0  0  0  0  0  0
   -0.0689   -1.4010   -5.6538 N   0  0  0  1  0  0  0  0  0  0  0  0
   -0.0256   -1.9781   -4.3778 N   0  0  0  1  0  0  0  0  0  0  0  0
   -0.8650   -3.0823   -4.0676 C   0  0  0  1  0  0  0  0  0  0  0  0
   -1.8944   -2.9333   -3.1575 C   0  0  0  1  0  0  0  0  0  0  0  0
   -2.7163   -4.0088   -2.8589 C   0  0  0  1  0  0  0  0  0  0  0  0
   -2.5033   -5.2315   -3.4672 C   0  0  0  1  0  0  0  0  0  0  0  0
   -1.4706   -5.3807   -4.3800 C   0  0  0  1  0  0  0  0  0  0  0  0
   -0.6510   -4.3084   -4.6778 C   0  0  0  1  0  0  0  0  0  0  0  0
   -3.2347   -6.3506   -3.2521 O   0  0  0  1  0  0  0  0  0  0  0  0
   -4.4344   -6.2111   -2.4751 C   0  0  0  1  0  0  0  0  0  0  0  0
    3.3889    1.4465   -2.0708 N   0  0  0  1  0  0  0  0  0  0  0  0
    3.9361    1.3519   -0.7105 C   0  0  0  1  0  0  0  0  0  0  0  0
    5.3494    1.9591   -0.6378 C   0  0  0  1  0  0  0  0  0  0  0  0
    5.1848    3.4764   -0.2764 C   0  0  0  1  0  0  0  0  0  0  0  0
    3.6955    3.6404    0.0096 C   0  0  0  1  0  0  0  0  0  0  0  0
    3.1243    2.2445    0.2872 C   0  0  0  1  0  0  0  0  0  0  0  0
    5.9866    3.8193    0.9164 N   0  0  0  1  0  0  0  0  0  0  0  0
    0.9316   -2.0526   -1.6522 H   0  0  0  1  0  0  0  0  0  0  0  0
    0.8529    0.2619   -6.5152 H   0  0  0  1  0  0  0  0  0  0  0  0
   -2.0524   -2.0144   -2.6967 H   0  0  0  1  0  0  0  0  0  0  0  0
   -3.4935   -3.8957   -2.1772 H   0  0  0  1  0  0  0  0  0  0  0  0
   -1.3126   -6.2996   -4.8408 H   0  0  0  1  0  0  0  0  0  0  0  0
    0.1261   -4.4214   -5.3595 H   0  0  0  1  0  0  0  0  0  0  0  0
   -5.0877   -5.5092   -2.9498 H   0  0  0  1  0  0  0  0  0  0  0  0
   -4.1857   -5.8604   -1.4953 H   0  0  0  1  0  0  0  0  0  0  0  0
   -4.9236   -7.1600   -2.4014 H   0  0  0  1  0  0  0  0  0  0  0  0
    3.6770    2.2121   -2.6105 H   0  0  0  1  0  0  0  0  0  0  0  0
    3.9396    0.3289   -0.3971 H   0  0  0  1  0  0  0  0  0  0  0  0
    5.8405    1.8588   -1.5832 H   0  0  0  1  0  0  0  0  0  0  0  0
    5.9230    1.4628    0.1170 H   0  0  0  1  0  0  0  0  0  0  0  0
    5.4827    4.0950   -1.0970 H   0  0  0  1  0  0  0  0  0  0  0  0
    3.2062    4.0737   -0.8377 H   0  0  0  1  0  0  0  0  0  0  0  0
    3.5545    4.2694    0.8636 H   0  0  0  1  0  0  0  0  0  0  0  0
    2.0758    2.2056    0.0777 H   0  0  0  1  0  0  0  0  0  0  0  0
    3.2972    1.9492    1.3009 H   0  0  0  1  0  0  0  0  0  0  0  0
    6.8949    3.4663    0.8125 H   0  0  0  1  0  0  0  0  0  0  0  0
    5.5724    3.4253    1.7124 H   0  0  0  1  0  0  0  0  0  0  0  0
  1  2  4  0  0  0  0
  1  6  4  0  0  0  0
  2  3  4  0  0  0  0
  2 18  1  0  0  0  0
  3  4  4  0  0  0  0
  4  5  4  0  0  0  0
  4  7  4  0  0  0  0
  5  6  4  0  0  0  0
  5  9  4  0  0  0  0
  6 25  1  0  0  0  0
  7  8  4  0  0  0  0
  7 26  1  0  0  0  0
  8  9  4  0  0  0  0
  9 10  1  0  0  0  0
 10 11  4  0  0  0  0
 10 15  4  0  0  0  0
 11 12  4  0  0  0  0
 11 27  1  0  0  0  0
 12 13  4  0  0  0  0
 12 28  1  0  0  0  0
 13 14  4  0  0  0  0
 13 16  1  0  0  0  0
 14 15  4  0  0  0  0
 14 29  1  0  0  0  0
 15 30  1  0  0  0  0
 16 17  1  0  0  0  0
 17 31  1  0  0  0  0
 17 32  1  0  0  0  0
 17 33  1  0  0  0  0
 18 19  1  0  0  0  0
 18 34  1  0  0  0  0
 19 20  1  0  0  0  0
 19 23  1  0  0  0  0
 19 35  1  0  0  0  0
 20 21  1  0  0  0  0
 20 36  1  0  0  0  0
 20 37  1  0  0  0  0
 21 22  1  0  0  0  0
 21 24  1  0  0  0  0
 21 38  1  0  0  0  0
 22 23  1  0  0  0  0
 22 39  1  0  0  0  0
 22 40  1  0  0  0  0
 23 41  1  0  0  0  0
 23 42  1  0  0  0  0
 24 43  1  0  0  0  0
 24 44  1  0  0  0  0
M  END
> <ConfClashScore>
0 

> <ConfOneFourInteractionScore>
-0.984337 

> <ConfScore>
-0.0731468 

> <ConfScorePBest>
0.00432628 

> <ConfTolerance>
0.255364 

$$$$
c13.sdf
 OpenBabel04162418043D

 44 47  0  0  0  0  0  0  0  0999 V2000
    2.1079   -0.3773   -1.8532 N   0  0  0  1  0  0  0  0  0  0  0  0
    2.5364    0.5907   -2.6454 C   0  0  0  1  0  0  0  0  0  0  0  0
    2.1526    0.6996   -3.8968 N   0  0  0  1  0  0  0  0  0  0  0  0
    1.2986   -0.1837   -4.4201 C   0  0  0  1  0  0  0  0  0  0  0  0
    0.8204   -1.2304   -3.6033 C   0  0  0  1  0  0  0  0  0  0  0  0
    1.2615   -1.2960   -2.2849 C   0  0  0  1  0  0  0  0  0  0  0  0
    0.7019   -0.3513   -5.6890 C   0  0  0  1  0  0  0  0  0  0  0  0
   -0.0689   -1.4010   -5.6538 N   0  0  0  1  0  0  0  0  0  0  0  0
   -0.0256   -1.9781   -4.3778 N   0  0  0  1  0  0  0  0  0  0  0  0
   -0.6839   -3.1865   -4.0726 C   0  0  0  1  0  0  0  0  0  0  0  0
   -0.1820   -4.0921   -3.1571 C   0  0  0  1  0  0  0  0  0  0  0  0
   -0.8735   -5.2635   -2.8906 C   0  0  0  1  0  0  0  0  0  0  0  0
   -2.0621   -5.5286   -3.5444 C   0  0  0  1  0  0  0  0  0  0  0  0
   -2.5653   -4.6201   -4.4626 C   0  0  0  1  0  0  0  0  0  0  0  0
   -1.8759   -3.4521   -4.7283 C   0  0  0  1  0  0  0  0  0  0  0  0
   -2.8202   -6.6372   -3.3709 O   0  0  0  1  0  0  0  0  0  0  0  0
   -2.3730   -7.5921   -2.3960 C   0  0  0  1  0  0  0  0  0  0  0  0
    3.4098    1.5117   -2.1456 N   0  0  0  1  0  0  0  0  0  0  0  0
    3.8572    1.4706   -0.7526 C   0  0  0  1  0  0  0  0  0  0  0  0
    4.5948    2.7983   -0.3853 C   0  0  0  1  0  0  0  0  0  0  0  0
    3.3977    3.6824    0.1287 C   0  0  0  1  0  0  0  0  0  0  0  0
    2.5834    2.6816    0.9371 C   0  0  0  1  0  0  0  0  0  0  0  0
    2.6525    1.3600    0.1842 C   0  0  0  1  0  0  0  0  0  0  0  0
    3.8808    4.7998    0.9829 N   0  0  0  1  0  0  0  0  0  0  0  0
    0.9317   -2.0526   -1.6522 H   0  0  0  1  0  0  0  0  0  0  0  0
    0.8529    0.2620   -6.5152 H   0  0  0  1  0  0  0  0  0  0  0  0
    0.7144   -3.8946   -2.6681 H   0  0  0  1  0  0  0  0  0  0  0  0
   -0.4979   -5.9432   -2.1988 H   0  0  0  1  0  0  0  0  0  0  0  0
   -3.4617   -4.8176   -4.9515 H   0  0  0  1  0  0  0  0  0  0  0  0
   -2.2515   -2.7725   -5.4201 H   0  0  0  1  0  0  0  0  0  0  0  0
   -3.1163   -8.3518   -2.2730 H   0  0  0  1  0  0  0  0  0  0  0  0
   -2.2106   -7.0976   -1.4611 H   0  0  0  1  0  0  0  0  0  0  0  0
   -1.4587   -8.0383   -2.7276 H   0  0  0  1  0  0  0  0  0  0  0  0
    3.7465    2.2191   -2.7345 H   0  0  0  1  0  0  0  0  0  0  0  0
    4.5109    0.6352   -0.6119 H   0  0  0  1  0  0  0  0  0  0  0  0
    5.0650    3.2349   -1.2416 H   0  0  0  1  0  0  0  0  0  0  0  0
    5.3241    2.6420    0.3819 H   0  0  0  1  0  0  0  0  0  0  0  0
    2.8286    4.0768   -0.6871 H   0  0  0  1  0  0  0  0  0  0  0  0
    3.0004    2.5713    1.9163 H   0  0  0  1  0  0  0  0  0  0  0  0
    1.5680    3.0094    1.0160 H   0  0  0  1  0  0  0  0  0  0  0  0
    1.7562    1.2062   -0.3796 H   0  0  0  1  0  0  0  0  0  0  0  0
    2.7873    0.5489    0.8689 H   0  0  0  1  0  0  0  0  0  0  0  0
    4.4189    4.4401    1.7187 H   0  0  0  1  0  0  0  0  0  0  0  0
    3.1129    5.2870    1.3480 H   0  0  0  1  0  0  0  0  0  0  0  0
  1  2  4  0  0  0  0
  1  6  4  0  0  0  0
  2  3  4  0  0  0  0
  2 18  1  0  0  0  0
  3  4  4  0  0  0  0
  4  5  4  0  0  0  0
  4  7  4  0  0  0  0
  5  6  4  0  0  0  0
  5  9  4  0  0  0  0
  6 25  1  0  0  0  0
  7  8  4  0  0  0  0
  7 26  1  0  0  0  0
  8  9  4  0  0  0  0
  9 10  1  0  0  0  0
 10 11  4  0  0  0  0
 10 15  4  0  0  0  0
 11 12  4  0  0  0  0
 11 27  1  0  0  0  0
 12 13  4  0  0  0  0
 12 28  1  0  0  0  0
 13 14  4  0  0  0  0
 13 16  1  0  0  0  0
 14 15  4  0  0  0  0
 14 29  1  0  0  0  0
 15 30  1  0  0  0  0
 16 17  1  0  0  0  0
 17 31  1  0  0  0  0
 17 32  1  0  0  0  0
 17 33  1  0  0  0  0
 18 19  1  0  0  0  0
 18 34  1  0  0  0  0
 19 20  1  0  0  0  0
 19 23  1  0  0  0  0
 19 35  1  0  0  0  0
 20 21  1  0  0  0  0
 20 36  1  0  0  0  0
 20 37  1  0  0  0  0
 21 22  1  0  0  0  0
 21 24  1  0  0  0  0
 21 38  1  0  0  0  0
 22 23  1  0  0  0  0
 22 39  1  0  0  0  0
 22 40  1  0  0  0  0
 23 41  1  0  0  0  0
 23 42  1  0  0  0  0
 24 43  1  0  0  0  0
 24 44  1  0  0  0  0
M  END
> <ConfClashScore>
0 

> <ConfOneFourInteractionScore>
-0.985399 

> <ConfScore>
-0.0725916 

> <ConfScorePBest>
0.00431295 

> <ConfTolerance>
0.235765 

$$$$
c13.sdf
 OpenBabel04162418043D

 44 47  0  0  0  0  0  0  0  0999 V2000
    2.1079   -0.3774   -1.8532 N   0  0  0  1  0  0  0  0  0  0  0  0
    2.5364    0.5907   -2.6455 C   0  0  0  1  0  0  0  0  0  0  0  0
    2.1525    0.6996   -3.8968 N   0  0  0  1  0  0  0  0  0  0  0  0
    1.2985   -0.1838   -4.4201 C   0  0  0  1  0  0  0  0  0  0  0  0
    0.8204   -1.2305   -3.6033 C   0  0  0  1  0  0  0  0  0  0  0  0
    1.2615   -1.2960   -2.2849 C   0  0  0  1  0  0  0  0  0  0  0  0
    0.7019   -0.3512   -5.6889 C   0  0  0  1  0  0  0  0  0  0  0  0
   -0.0689   -1.4010   -5.6537 N   0  0  0  1  0  0  0  0  0  0  0  0
   -0.0256   -1.9781   -4.3778 N   0  0  0  1  0  0  0  0  0  0  0  0
   -0.7906   -3.1270   -4.1278 C   0  0  0  1  0  0  0  0  0  0  0  0
   -0.4347   -3.8426   -3.0002 C   0  0  0  1  0  0  0  0  0  0  0  0
   -1.1315   -4.9918   -2.6603 C   0  0  0  1  0  0  0  0  0  0  0  0
   -2.1783   -5.4250   -3.4519 C   0  0  0  1  0  0  0  0  0  0  0  0
   -2.5350   -4.7071   -4.5829 C   0  0  0  1  0  0  0  0  0  0  0  0
   -1.8405   -3.5614   -4.9218 C   0  0  0  1  0  0  0  0  0  0  0  0
   -2.9259   -6.5310   -3.2244 O   0  0  0  1  0  0  0  0  0  0  0  0
   -2.6767   -7.2525   -2.0078 C   0  0  0  1  0  0  0  0  0  0  0  0
    3.4219    1.5558   -2.2015 N   0  0  0  1  0  0  0  0  0  0  0  0
    3.6873    2.7174   -3.0911 C   0  0  0  1  0  0  0  0  0  0  0  0
    3.5009    4.0473   -2.3374 C   0  0  0  1  0  0  0  0  0  0  0  0
    4.8907    4.4285   -1.7184 C   0  0  0  1  0  0  0  0  0  0  0  0
    5.8565    3.3915   -2.2824 C   0  0  0  1  0  0  0  0  0  0  0  0
    5.1929    2.7692   -3.5171 C   0  0  0  1  0  0  0  0  0  0  0  0
    5.2867    5.7832   -2.1265 N   0  0  0  1  0  0  0  0  0  0  0  0
    0.9317   -2.0526   -1.6522 H   0  0  0  1  0  0  0  0  0  0  0  0
    0.8529    0.2620   -6.5152 H   0  0  0  1  0  0  0  0  0  0  0  0
    0.3555   -3.5189   -2.4067 H   0  0  0  1  0  0  0  0  0  0  0  0
   -0.8663   -5.5280   -1.8096 H   0  0  0  1  0  0  0  0  0  0  0  0
   -3.3254   -5.0309   -5.1764 H   0  0  0  1  0  0  0  0  0  0  0  0
   -2.1056   -3.0251   -5.7726 H   0  0  0  1  0  0  0  0  0  0  0  0
   -1.6223   -7.3788   -1.8770 H   0  0  0  1  0  0  0  0  0  0  0  0
   -3.1469   -8.2122   -2.0600 H   0  0  0  1  0  0  0  0  0  0  0  0
   -3.0754   -6.7040   -1.1801 H   0  0  0  1  0  0  0  0  0  0  0  0
    3.8606    1.4767   -1.3287 H   0  0  0  1  0  0  0  0  0  0  0  0
    3.0464    2.6661   -3.9463 H   0  0  0  1  0  0  0  0  0  0  0  0
    2.7739    3.9297   -1.5611 H   0  0  0  1  0  0  0  0  0  0  0  0
    3.1797    4.8106   -3.0149 H   0  0  0  1  0  0  0  0  0  0  0  0
    4.8572    4.3728   -0.6505 H   0  0  0  1  0  0  0  0  0  0  0  0
    6.0488    2.6350   -1.5506 H   0  0  0  1  0  0  0  0  0  0  0  0
    6.7765    3.8619   -2.5602 H   0  0  0  1  0  0  0  0  0  0  0  0
    5.3304    3.3833   -4.3824 H   0  0  0  1  0  0  0  0  0  0  0  0
    5.5753    1.7888   -3.7105 H   0  0  0  1  0  0  0  0  0  0  0  0
    4.6084    6.4256   -1.8305 H   0  0  0  1  0  0  0  0  0  0  0  0
    5.3671    5.8197   -3.1025 H   0  0  0  1  0  0  0  0  0  0  0  0
  1  2  4  0  0  0  0
  1  6  4  0  0  0  0
  2  3  4  0  0  0  0
  2 18  1  0  0  0  0
  3  4  4  0  0  0  0
  4  5  4  0  0  0  0
  4  7  4  0  0  0  0
  5  6  4  0  0  0  0
  5  9  4  0  0  0  0
  6 25  1  0  0  0  0
  7  8  4  0  0  0  0
  7 26  1  0  0  0  0
  8  9  4  0  0  0  0
  9 10  1  0  0  0  0
 10 11  4  0  0  0  0
 10 15  4  0  0  0  0
 11 12  4  0  0  0  0
 11 27  1  0  0  0  0
 12 13  4  0  0  0  0
 12 28  1  0  0  0  0
 13 14  4  0  0  0  0
 13 16  1  0  0  0  0
 14 15  4  0  0  0  0
 14 29  1  0  0  0  0
 15 30  1  0  0  0  0
 16 17  1  0  0  0  0
 17 31  1  0  0  0  0
 17 32  1  0  0  0  0
 17 33  1  0  0  0  0
 18 19  1  0  0  0  0
 18 34  1  0  0  0  0
 19 20  1  0  0  0  0
 19 23  1  0  0  0  0
 19 35  1  0  0  0  0
 20 21  1  0  0  0  0
 20 36  1  0  0  0  0
 20 37  1  0  0  0  0
 21 22  1  0  0  0  0
 21 24  1  0  0  0  0
 21 38  1  0  0  0  0
 22 23  1  0  0  0  0
 22 39  1  0  0  0  0
 22 40  1  0  0  0  0
 23 41  1  0  0  0  0
 23 42  1  0  0  0  0
 24 43  1  0  0  0  0
 24 44  1  0  0  0  0
M  END
> <ConfClashScore>
0 

> <ConfOneFourInteractionScore>
-0.984337 

> <ConfScore>
-0.0720383 

> <ConfScorePBest>
0.00429963 

> <ConfTolerance>
0.33207 

$$$$
c13.sdf
 OpenBabel04162418043D

 44 47  0  0  0  0  0  0  0  0999 V2000
    2.1080   -0.3774   -1.8532 N   0  0  0  1  0  0  0  0  0  0  0  0
    2.5363    0.5907   -2.6455 C   0  0  0  1  0  0  0  0  0  0  0  0
    2.1526    0.6997   -3.8968 N   0  0  0  1  0  0  0  0  0  0  0  0
    1.2986   -0.1837   -4.4201 C   0  0  0  1  0  0  0  0  0  0  0  0
    0.8205   -1.2305   -3.6033 C   0  0  0  1  0  0  0  0  0  0  0  0
    1.2616   -1.2959   -2.2849 C   0  0  0  1  0  0  0  0  0  0  0  0
    0.7019   -0.3513   -5.6890 C   0  0  0  1  0  0  0  0  0  0  0  0
   -0.0689   -1.4010   -5.6537 N   0  0  0  1  0  0  0  0  0  0  0  0
   -0.0256   -1.9781   -4.3778 N   0  0  0  1  0  0  0  0  0  0  0  0
   -0.7779   -3.1328   -4.0821 C   0  0  0  1  0  0  0  0  0  0  0  0
   -2.0587   -3.0700   -3.5667 C   0  0  0  1  0  0  0  0  0  0  0  0
   -2.7560   -4.2377   -3.2990 C   0  0  0  1  0  0  0  0  0  0  0  0
   -2.1686   -5.4649   -3.5425 C   0  0  0  1  0  0  0  0  0  0  0  0
   -0.8839   -5.5277   -4.0594 C   0  0  0  1  0  0  0  0  0  0  0  0
   -0.1885   -4.3635   -4.3263 C   0  0  0  1  0  0  0  0  0  0  0  0
   -2.7392   -6.6507   -3.3201 O   0  0  0  1  0  0  0  0  0  0  0  0
   -4.0700   -6.6478   -2.7805 C   0  0  0  1  0  0  0  0  0  0  0  0
    3.4010    1.5330   -2.2121 N   0  0  0  1  0  0  0  0  0  0  0  0
    3.8647    1.6364   -0.8395 C   0  0  0  1  0  0  0  0  0  0  0  0
    5.3190    2.1038   -0.7789 C   0  0  0  1  0  0  0  0  0  0  0  0
    5.4846    2.6907    0.6271 C   0  0  0  1  0  0  0  0  0  0  0  0
    4.0911    3.1953    1.0227 C   0  0  0  1  0  0  0  0  0  0  0  0
    3.1370    2.7553   -0.0903 C   0  0  0  1  0  0  0  0  0  0  0  0
    5.9441    1.6538    1.5681 N   0  0  0  1  0  0  0  0  0  0  0  0
    0.9318   -2.0526   -1.6522 H   0  0  0  1  0  0  0  0  0  0  0  0
    0.8528    0.2620   -6.5151 H   0  0  0  1  0  0  0  0  0  0  0  0
   -2.4994   -2.1466   -3.3798 H   0  0  0  1  0  0  0  0  0  0  0  0
   -3.7214   -4.1904   -2.9150 H   0  0  0  1  0  0  0  0  0  0  0  0
   -0.4433   -6.4511   -4.2464 H   0  0  0  1  0  0  0  0  0  0  0  0
    0.7768   -4.4108   -4.7103 H   0  0  0  1  0  0  0  0  0  0  0  0
   -4.0389   -6.3451   -1.7547 H   0  0  0  1  0  0  0  0  0  0  0  0
   -4.4848   -7.6318   -2.8492 H   0  0  0  1  0  0  0  0  0  0  0  0
   -4.6781   -5.9643   -3.3355 H   0  0  0  1  0  0  0  0  0  0  0  0
    3.7354    2.1856   -2.8621 H   0  0  0  1  0  0  0  0  0  0  0  0
    3.7389    0.6943   -0.3480 H   0  0  0  1  0  0  0  0  0  0  0  0
    5.5061    2.8497   -1.5229 H   0  0  0  1  0  0  0  0  0  0  0  0
    5.9858    1.2796   -0.9239 H   0  0  0  1  0  0  0  0  0  0  0  0
    6.1860    3.4986    0.6155 H   0  0  0  1  0  0  0  0  0  0  0  0
    3.7934    2.7648    1.9560 H   0  0  0  1  0  0  0  0  0  0  0  0
    4.0943    4.2619    1.1063 H   0  0  0  1  0  0  0  0  0  0  0  0
    2.9302    3.5726   -0.7492 H   0  0  0  1  0  0  0  0  0  0  0  0
    2.2209    2.3914    0.3258 H   0  0  0  1  0  0  0  0  0  0  0  0
    6.7844    1.2674    1.2443 H   0  0  0  1  0  0  0  0  0  0  0  0
    5.2655    0.9499    1.6351 H   0  0  0  1  0  0  0  0  0  0  0  0
  1  2  4  0  0  0  0
  1  6  4  0  0  0  0
  2  3  4  0  0  0  0
  2 18  1  0  0  0  0
  3  4  4  0  0  0  0
  4  5  4  0  0  0  0
  4  7  4  0  0  0  0
  5  6  4  0  0  0  0
  5  9  4  0  0  0  0
  6 25  1  0  0  0  0
  7  8  4  0  0  0  0
  7 26  1  0  0  0  0
  8  9  4  0  0  0  0
  9 10  1  0  0  0  0
 10 11  4  0  0  0  0
 10 15  4  0  0  0  0
 11 12  4  0  0  0  0
 11 27  1  0  0  0  0
 12 13  4  0  0  0  0
 12 28  1  0  0  0  0
 13 14  4  0  0  0  0
 13 16  1  0  0  0  0
 14 15  4  0  0  0  0
 14 29  1  0  0  0  0
 15 30  1  0  0  0  0
 16 17  1  0  0  0  0
 17 31  1  0  0  0  0
 17 32  1  0  0  0  0
 17 33  1  0  0  0  0
 18 19  1  0  0  0  0
 18 34  1  0  0  0  0
 19 20  1  0  0  0  0
 19 23  1  0  0  0  0
 19 35  1  0  0  0  0
 20 21  1  0  0  0  0
 20 36  1  0  0  0  0
 20 37  1  0  0  0  0
 21 22  1  0  0  0  0
 21 24  1  0  0  0  0
 21 38  1  0  0  0  0
 22 23  1  0  0  0  0
 22 39  1  0  0  0  0
 22 40  1  0  0  0  0
 23 41  1  0  0  0  0
 23 42  1  0  0  0  0
 24 43  1  0  0  0  0
 24 44  1  0  0  0  0
M  END
> <ConfClashScore>
0 

> <ConfOneFourInteractionScore>
-0.990106 

> <ConfScore>
-0.0699762 

> <ConfScorePBest>
0.0042863 

> <ConfTolerance>
0.262408 

$$$$
c13.sdf
 OpenBabel04162418043D

 44 47  0  0  0  0  0  0  0  0999 V2000
    2.1079   -0.3773   -1.8532 N   0  0  0  1  0  0  0  0  0  0  0  0
    2.5363    0.5907   -2.6455 C   0  0  0  1  0  0  0  0  0  0  0  0
    2.1526    0.6996   -3.8968 N   0  0  0  1  0  0  0  0  0  0  0  0
    1.2985   -0.1837   -4.4201 C   0  0  0  1  0  0  0  0  0  0  0  0
    0.8204   -1.2305   -3.6033 C   0  0  0  1  0  0  0  0  0  0  0  0
    1.2615   -1.2960   -2.2849 C   0  0  0  1  0  0  0  0  0  0  0  0
    0.7020   -0.3513   -5.6890 C   0  0  0  1  0  0  0  0  0  0  0  0
   -0.0689   -1.4010   -5.6538 N   0  0  0  1  0  0  0  0  0  0  0  0
   -0.0256   -1.9781   -4.3778 N   0  0  0  1  0  0  0  0  0  0  0  0
   -0.7779   -3.1328   -4.0822 C   0  0  0  1  0  0  0  0  0  0  0  0
   -1.9601   -3.4326   -4.7325 C   0  0  0  1  0  0  0  0  0  0  0  0
   -2.6575   -4.5853   -4.4058 C   0  0  0  1  0  0  0  0  0  0  0  0
   -2.1737   -5.4318   -3.4263 C   0  0  0  1  0  0  0  0  0  0  0  0
   -0.9880   -5.1309   -2.7742 C   0  0  0  1  0  0  0  0  0  0  0  0
   -0.2925   -3.9817   -3.0997 C   0  0  0  1  0  0  0  0  0  0  0  0
   -2.9419   -6.5217   -3.1901 O   0  0  0  1  0  0  0  0  0  0  0  0
   -2.4749   -7.4517   -2.2003 C   0  0  0  1  0  0  0  0  0  0  0  0
    3.3976    1.4988   -2.1526 N   0  0  0  1  0  0  0  0  0  0  0  0
    4.0490    2.5750   -2.9011 C   0  0  0  1  0  0  0  0  0  0  0  0
    3.6829    3.9379   -2.3069 C   0  0  0  1  0  0  0  0  0  0  0  0
    4.9521    4.7816   -2.4684 C   0  0  0  1  0  0  0  0  0  0  0  0
    6.0426    3.7788   -2.1288 C   0  0  0  1  0  0  0  0  0  0  0  0
    5.5746    2.4697   -2.7735 C   0  0  0  1  0  0  0  0  0  0  0  0
    5.0934    5.2810   -3.8556 N   0  0  0  1  0  0  0  0  0  0  0  0
    0.9317   -2.0527   -1.6523 H   0  0  0  1  0  0  0  0  0  0  0  0
    0.8529    0.2620   -6.5152 H   0  0  0  1  0  0  0  0  0  0  0  0
   -2.3263   -2.7937   -5.4668 H   0  0  0  1  0  0  0  0  0  0  0  0
   -3.5449   -4.8129   -4.8979 H   0  0  0  1  0  0  0  0  0  0  0  0
   -0.6218   -5.7699   -2.0399 H   0  0  0  1  0  0  0  0  0  0  0  0
    0.5950   -3.7539   -2.6077 H   0  0  0  1  0  0  0  0  0  0  0  0
   -2.4264   -6.9657   -1.2483 H   0  0  0  1  0  0  0  0  0  0  0  0
   -1.5009   -7.8018   -2.4717 H   0  0  0  1  0  0  0  0  0  0  0  0
   -3.1494   -8.2804   -2.1435 H   0  0  0  1  0  0  0  0  0  0  0  0
    3.6100    1.4335   -1.1982 H   0  0  0  1  0  0  0  0  0  0  0  0
    3.7552    2.5239   -3.9287 H   0  0  0  1  0  0  0  0  0  0  0  0
    2.8668    4.3766   -2.8420 H   0  0  0  1  0  0  0  0  0  0  0  0
    3.4220    3.8418   -1.2736 H   0  0  0  1  0  0  0  0  0  0  0  0
    4.9587    5.6081   -1.7888 H   0  0  0  1  0  0  0  0  0  0  0  0
    6.9812    4.0878   -2.5389 H   0  0  0  1  0  0  0  0  0  0  0  0
    6.1356    3.6660   -1.0688 H   0  0  0  1  0  0  0  0  0  0  0  0
    6.0200    2.3525   -3.7393 H   0  0  0  1  0  0  0  0  0  0  0  0
    5.8383    1.6372   -2.1552 H   0  0  0  1  0  0  0  0  0  0  0  0
    5.1859    4.5220   -4.4688 H   0  0  0  1  0  0  0  0  0  0  0  0
    5.8887    5.8501   -3.9183 H   0  0  0  1  0  0  0  0  0  0  0  0
  1  2  4  0  0  0  0
  1  6  4  0  0  0  0
  2  3  4  0  0  0  0
  2 18  1  0  0  0  0
  3  4  4  0  0  0  0
  4  5  4  0  0  0  0
  4  7  4  0  0  0  0
  5  6  4  0  0  0  0
  5  9  4  0  0  0  0
  6 25  1  0  0  0  0
  7  8  4  0  0  0  0
  7 26  1  0  0  0  0
  8  9  4  0  0  0  0
  9 10  1  0  0  0  0
 10 11  4  0  0  0  0
 10 15  4  0  0  0  0
 11 12  4  0  0  0  0
 11 27  1  0  0  0  0
 12 13  4  0  0  0  0
 12 28  1  0  0  0  0
 13 14  4  0  0  0  0
 13 16  1  0  0  0  0
 14 15  4  0  0  0  0
 14 29  1  0  0  0  0
 15 30  1  0  0  0  0
 16 17  1  0  0  0  0
 17 31  1  0  0  0  0
 17 32  1  0  0  0  0
 17 33  1  0  0  0  0
 18 19  1  0  0  0  0
 18 34  1  0  0  0  0
 19 20  1  0  0  0  0
 19 23  1  0  0  0  0
 19 35  1  0  0  0  0
 20 21  1  0  0  0  0
 20 36  1  0  0  0  0
 20 37  1  0  0  0  0
 21 22  1  0  0  0  0
 21 24  1  0  0  0  0
 21 38  1  0  0  0  0
 22 23  1  0  0  0  0
 22 39  1  0  0  0  0
 22 40  1  0  0  0  0
 23 41  1  0  0  0  0
 23 42  1  0  0  0  0
 24 43  1  0  0  0  0
 24 44  1  0  0  0  0
M  END
> <ConfClashScore>
0 

> <ConfOneFourInteractionScore>
-0.984337 

> <ConfScore>
-0.0690358 

> <ConfScorePBest>
0.00427297 

> <ConfTolerance>
0.322153 

$$$$
c13.sdf
 OpenBabel04162418043D

 44 47  0  0  0  0  0  0  0  0999 V2000
    2.1079   -0.3774   -1.8532 N   0  0  0  1  0  0  0  0  0  0  0  0
    2.5363    0.5907   -2.6455 C   0  0  0  1  0  0  0  0  0  0  0  0
    2.1526    0.6996   -3.8968 N   0  0  0  1  0  0  0  0  0  0  0  0
    1.2986   -0.1837   -4.4201 C   0  0  0  1  0  0  0  0  0  0  0  0
    0.8204   -1.2305   -3.6033 C   0  0  0  1  0  0  0  0  0  0  0  0
    1.2615   -1.2960   -2.2850 C   0  0  0  1  0  0  0  0  0  0  0  0
    0.7019   -0.3513   -5.6890 C   0  0  0  1  0  0  0  0  0  0  0  0
   -0.0689   -1.4010   -5.6538 N   0  0  0  1  0  0  0  0  0  0  0  0
   -0.0256   -1.9781   -4.3778 N   0  0  0  1  0  0  0  0  0  0  0  0
   -0.9045   -3.0423   -4.0686 C   0  0  0  1  0  0  0  0  0  0  0  0
   -1.8968   -2.8053   -3.1361 C   0  0  0  1  0  0  0  0  0  0  0  0
   -2.7296   -3.8374   -2.7330 C   0  0  0  1  0  0  0  0  0  0  0  0
   -2.5645   -5.1047   -3.2595 C   0  0  0  1  0  0  0  0  0  0  0  0
   -1.5693   -5.3422   -4.1947 C   0  0  0  1  0  0  0  0  0  0  0  0
   -0.7386   -4.3132   -4.5967 C   0  0  0  1  0  0  0  0  0  0  0  0
   -3.4319   -6.0312   -2.7872 O   0  0  0  1  0  0  0  0  0  0  0  0
   -3.3018   -7.3694   -3.2920 C   0  0  0  1  0  0  0  0  0  0  0  0
    3.3976    1.4989   -2.1526 N   0  0  0  1  0  0  0  0  0  0  0  0
    3.9499    1.5270   -0.7986 C   0  0  0  1  0  0  0  0  0  0  0  0
    4.6530    0.2127   -0.4588 C   0  0  0  1  0  0  0  0  0  0  0  0
    5.6187    0.5664    0.6776 C   0  0  0  1  0  0  0  0  0  0  0  0
    5.9707    2.0443    0.4653 C   0  0  0  1  0  0  0  0  0  0  0  0
    5.0918    2.5399   -0.6854 C   0  0  0  1  0  0  0  0  0  0  0  0
    4.9707    0.3744    1.9815 N   0  0  0  1  0  0  0  0  0  0  0  0
    0.9318   -2.0526   -1.6523 H   0  0  0  1  0  0  0  0  0  0  0  0
    0.8529    0.2620   -6.5152 H   0  0  0  1  0  0  0  0  0  0  0  0
   -2.0185   -1.8526   -2.7369 H   0  0  0  1  0  0  0  0  0  0  0  0
   -3.4790   -3.6582   -2.0344 H   0  0  0  1  0  0  0  0  0  0  0  0
   -1.4476   -6.2949   -4.5938 H   0  0  0  1  0  0  0  0  0  0  0  0
    0.0106   -4.4924   -5.2952 H   0  0  0  1  0  0  0  0  0  0  0  0
   -2.4379   -7.8311   -2.8615 H   0  0  0  1  0  0  0  0  0  0  0  0
   -3.1970   -7.3401   -4.3565 H   0  0  0  1  0  0  0  0  0  0  0  0
   -4.1735   -7.9339   -3.0343 H   0  0  0  1  0  0  0  0  0  0  0  0
    3.6834    2.2121   -2.7610 H   0  0  0  1  0  0  0  0  0  0  0  0
    3.1695    1.7420   -0.0989 H   0  0  0  1  0  0  0  0  0  0  0  0
    5.1893   -0.1577   -1.3072 H   0  0  0  1  0  0  0  0  0  0  0  0
    3.9442   -0.5211   -0.1360 H   0  0  0  1  0  0  0  0  0  0  0  0
    6.4988   -0.0398    0.6234 H   0  0  0  1  0  0  0  0  0  0  0  0
    7.0050    2.1446    0.2099 H   0  0  0  1  0  0  0  0  0  0  0  0
    5.7664    2.6040    1.3539 H   0  0  0  1  0  0  0  0  0  0  0  0
    4.7063    3.5141   -0.4677 H   0  0  0  1  0  0  0  0  0  0  0  0
    5.6528    2.5732   -1.5960 H   0  0  0  1  0  0  0  0  0  0  0  0
    4.7248   -0.5681    2.0891 H   0  0  0  1  0  0  0  0  0  0  0  0
    4.1646    0.9297    2.0304 H   0  0  0  1  0  0  0  0  0  0  0  0
  1  2  4  0  0  0  0
  1  6  4  0  0  0  0
  2  3  4  0  0  0  0
  2 18  1  0  0  0  0
  3  4  4  0  0  0  0
  4  5  4  0  0  0  0
  4  7  4  0  0  0  0
  5  6  4  0  0  0  0
  5  9  4  0  0  0  0
  6 25  1  0  0  0  0
  7  8  4  0  0  0  0
  7 26  1  0  0  0  0
  8  9  4  0  0  0  0
  9 10  1  0  0  0  0
 10 11  4  0  0  0  0
 10 15  4  0  0  0  0
 11 12  4  0  0  0  0
 11 27  1  0  0  0  0
 12 13  4  0  0  0  0
 12 28  1  0  0  0  0
 13 14  4  0  0  0  0
 13 16  1  0  0  0  0
 14 15  4  0  0  0  0
 14 29  1  0  0  0  0
 15 30  1  0  0  0  0
 16 17  1  0  0  0  0
 17 31  1  0  0  0  0
 17 32  1  0  0  0  0
 17 33  1  0  0  0  0
 18 19  1  0  0  0  0
 18 34  1  0  0  0  0
 19 20  1  0  0  0  0
 19 23  1  0  0  0  0
 19 35  1  0  0  0  0
 20 21  1  0  0  0  0
 20 36  1  0  0  0  0
 20 37  1  0  0  0  0
 21 22  1  0  0  0  0
 21 24  1  0  0  0  0
 21 38  1  0  0  0  0
 22 23  1  0  0  0  0
 22 39  1  0  0  0  0
 22 40  1  0  0  0  0
 23 41  1  0  0  0  0
 23 42  1  0  0  0  0
 24 43  1  0  0  0  0
 24 44  1  0  0  0  0
M  END
> <ConfClashScore>
0 

> <ConfOneFourInteractionScore>
-0.985399 

> <ConfScore>
-0.068938 

> <ConfScorePBest>
0.00425964 

> <ConfTolerance>
0.224238 

$$$$
c13.sdf
 OpenBabel04162418043D

 44 47  0  0  0  0  0  0  0  0999 V2000
    2.1079   -0.3774   -1.8532 N   0  0  0  1  0  0  0  0  0  0  0  0
    2.5363    0.5907   -2.6455 C   0  0  0  1  0  0  0  0  0  0  0  0
    2.1525    0.6996   -3.8968 N   0  0  0  1  0  0  0  0  0  0  0  0
    1.2985   -0.1837   -4.4201 C   0  0  0  1  0  0  0  0  0  0  0  0
    0.8204   -1.2304   -3.6034 C   0  0  0  1  0  0  0  0  0  0  0  0
    1.2614   -1.2960   -2.2849 C   0  0  0  1  0  0  0  0  0  0  0  0
    0.7019   -0.3512   -5.6890 C   0  0  0  1  0  0  0  0  0  0  0  0
   -0.0689   -1.4010   -5.6538 N   0  0  0  1  0  0  0  0  0  0  0  0
   -0.0256   -1.9781   -4.3778 N   0  0  0  1  0  0  0  0  0  0  0  0
   -0.8705   -3.0802   -4.1091 C   0  0  0  1  0  0  0  0  0  0  0  0
   -1.7023   -3.0602   -3.0056 C   0  0  0  1  0  0  0  0  0  0  0  0
   -2.5341   -4.1380   -2.7453 C   0  0  0  1  0  0  0  0  0  0  0  0
   -2.5280   -5.2349   -3.5862 C   0  0  0  1  0  0  0  0  0  0  0  0
   -1.6937   -5.2547   -4.6930 C   0  0  0  1  0  0  0  0  0  0  0  0
   -0.8642   -4.1801   -4.9528 C   0  0  0  1  0  0  0  0  0  0  0  0
   -3.3773   -6.2273   -3.2285 O   0  0  0  1  0  0  0  0  0  0  0  0
   -3.3825   -7.4112   -4.0413 C   0  0  0  1  0  0  0  0  0  0  0  0
    3.3977    1.4989   -2.1526 N   0  0  0  1  0  0  0  0  0  0  0  0
    3.8743    1.5044   -0.7686 C   0  0  0  1  0  0  0  0  0  0  0  0
    4.5091    0.1216   -0.4132 C   0  0  0  1  0  0  0  0  0  0  0  0
    6.0099    0.3573   -0.8267 C   0  0  0  1  0  0  0  0  0  0  0  0
    6.2582    1.7777   -0.3376 C   0  0  0  1  0  0  0  0  0  0  0  0
    4.9739    2.5540   -0.5947 C   0  0  0  1  0  0  0  0  0  0  0  0
    6.9080   -0.6052   -0.1557 N   0  0  0  1  0  0  0  0  0  0  0  0
    0.9317   -2.0526   -1.6523 H   0  0  0  1  0  0  0  0  0  0  0  0
    0.8530    0.2620   -6.5152 H   0  0  0  1  0  0  0  0  0  0  0  0
   -1.7040   -2.2367   -2.3705 H   0  0  0  1  0  0  0  0  0  0  0  0
   -3.1629   -4.1213   -1.9171 H   0  0  0  1  0  0  0  0  0  0  0  0
   -1.6919   -6.0783   -5.3282 H   0  0  0  1  0  0  0  0  0  0  0  0
   -0.2353   -4.1967   -5.7810 H   0  0  0  1  0  0  0  0  0  0  0  0
   -3.5478   -7.1418   -5.0636 H   0  0  0  1  0  0  0  0  0  0  0  0
   -4.1640   -8.0647   -3.7141 H   0  0  0  1  0  0  0  0  0  0  0  0
   -2.4397   -7.9091   -3.9519 H   0  0  0  1  0  0  0  0  0  0  0  0
    3.7255    2.1982   -2.7558 H   0  0  0  1  0  0  0  0  0  0  0  0
    3.0573    1.7145   -0.1103 H   0  0  0  1  0  0  0  0  0  0  0  0
    4.0661   -0.6703   -0.9802 H   0  0  0  1  0  0  0  0  0  0  0  0
    4.4197   -0.0937    0.6312 H   0  0  0  1  0  0  0  0  0  0  0  0
    6.1362    0.2844   -1.8868 H   0  0  0  1  0  0  0  0  0  0  0  0
    7.0705    2.2177   -0.8776 H   0  0  0  1  0  0  0  0  0  0  0  0
    6.4849    1.7741    0.7080 H   0  0  0  1  0  0  0  0  0  0  0  0
    4.7519    3.1907    0.2361 H   0  0  0  1  0  0  0  0  0  0  0  0
    5.0679    3.1444   -1.4821 H   0  0  0  1  0  0  0  0  0  0  0  0
    6.5925   -1.5180   -0.3221 H   0  0  0  1  0  0  0  0  0  0  0  0
    6.9106   -0.4315    0.8089 H   0  0  0  1  0  0  0  0  0  0  0  0
  1  2  4  0  0  0  0
  1  6  4  0  0  0  0
  2  3  4  0  0  0  0
  2 18  1  0  0  0  0
  3  4  4  0  0  0  0
  4  5  4  0  0  0  0
  4  7  4  0  0  0  0
  5  6  4  0  0  0  0
  5  9  4  0  0  0  0
  6 25  1  0  0  0  0
  7  8  4  0  0  0  0
  7 26  1  0  0  0  0
  8  9  4  0  0  0  0
  9 10  1  0  0  0  0
 10 11  4  0  0  0  0
 10 15  4  0  0  0  0
 11 12  4  0  0  0  0
 11 27  1  0  0  0  0
 12 13  4  0  0  0  0
 12 28  1  0  0  0  0
 13 14  4  0  0  0  0
 13 16  1  0  0  0  0
 14 15  4  0  0  0  0
 14 29  1  0  0  0  0
 15 30  1  0  0  0  0
 16 17  1  0  0  0  0
 17 31  1  0  0  0  0
 17 32  1  0  0  0  0
 17 33  1  0  0  0  0
 18 19  1  0  0  0  0
 18 34  1  0  0  0  0
 19 20  1  0  0  0  0
 19 23  1  0  0  0  0
 19 35  1  0  0  0  0
 20 21  1  0  0  0  0
 20 36  1  0  0  0  0
 20 37  1  0  0  0  0
 21 22  1  0  0  0  0
 21 24  1  0  0  0  0
 21 38  1  0  0  0  0
 22 23  1  0  0  0  0
 22 39  1  0  0  0  0
 22 40  1  0  0  0  0
 23 41  1  0  0  0  0
 23 42  1  0  0  0  0
 24 43  1  0  0  0  0
 24 44  1  0  0  0  0
M  END
> <ConfClashScore>
0 

> <ConfOneFourInteractionScore>
-0.985399 

> <ConfScore>
-0.068938 

> <ConfScorePBest>
0.00424631 

> <ConfTolerance>
0.226051 

$$$$
c13.sdf
 OpenBabel04162418043D

 44 47  0  0  0  0  0  0  0  0999 V2000
    2.1080   -0.3773   -1.8533 N   0  0  0  1  0  0  0  0  0  0  0  0
    2.5363    0.5907   -2.6455 C   0  0  0  1  0  0  0  0  0  0  0  0
    2.1526    0.6996   -3.8968 N   0  0  0  1  0  0  0  0  0  0  0  0
    1.2986   -0.1837   -4.4201 C   0  0  0  1  0  0  0  0  0  0  0  0
    0.8205   -1.2305   -3.6033 C   0  0  0  1  0  0  0  0  0  0  0  0
    1.2616   -1.2960   -2.2850 C   0  0  0  1  0  0  0  0  0  0  0  0
    0.7018   -0.3513   -5.6890 C   0  0  0  1  0  0  0  0  0  0  0  0
   -0.0689   -1.4010   -5.6537 N   0  0  0  1  0  0  0  0  0  0  0  0
   -0.0256   -1.9781   -4.3778 N   0  0  0  1  0  0  0  0  0  0  0  0
   -0.8027   -3.1453   -4.1238 C   0  0  0  1  0  0  0  0  0  0  0  0
   -1.6746   -3.1701   -3.0517 C   0  0  0  1  0  0  0  0  0  0  0  0
   -2.5033   -4.2641   -2.8577 C   0  0  0  1  0  0  0  0  0  0  0  0
   -2.4542   -5.3326   -3.7332 C   0  0  0  1  0  0  0  0  0  0  0  0
   -1.5795   -5.3075   -4.8084 C   0  0  0  1  0  0  0  0  0  0  0  0
   -0.7531   -4.2168   -5.0020 C   0  0  0  1  0  0  0  0  0  0  0  0
   -3.3027   -6.3421   -3.4404 O   0  0  0  1  0  0  0  0  0  0  0  0
   -3.3169   -7.5161   -4.2673 C   0  0  0  1  0  0  0  0  0  0  0  0
    3.4100    1.5426   -2.2076 N   0  0  0  1  0  0  0  0  0  0  0  0
    3.9298    2.5806   -3.1022 C   0  0  0  1  0  0  0  0  0  0  0  0
    2.7511    3.4181   -3.7032 C   0  0  0  1  0  0  0  0  0  0  0  0
    2.6154    4.6104   -2.6965 C   0  0  0  1  0  0  0  0  0  0  0  0
    4.0737    4.9291   -2.3141 C   0  0  0  1  0  0  0  0  0  0  0  0
    4.8160    3.5811   -2.3078 C   0  0  0  1  0  0  0  0  0  0  0  0
    1.9717    5.7764   -3.3421 N   0  0  0  1  0  0  0  0  0  0  0  0
    0.9319   -2.0527   -1.6522 H   0  0  0  1  0  0  0  0  0  0  0  0
    0.8528    0.2620   -6.5152 H   0  0  0  1  0  0  0  0  0  0  0  0
   -1.7089   -2.3679   -2.3907 H   0  0  0  1  0  0  0  0  0  0  0  0
   -3.1623   -4.2810   -2.0532 H   0  0  0  1  0  0  0  0  0  0  0  0
   -1.5452   -6.1097   -5.4695 H   0  0  0  1  0  0  0  0  0  0  0  0
   -0.0940   -4.1998   -5.8064 H   0  0  0  1  0  0  0  0  0  0  0  0
   -2.3416   -7.9560   -4.2798 H   0  0  0  1  0  0  0  0  0  0  0  0
   -3.5992   -7.2469   -5.2637 H   0  0  0  1  0  0  0  0  0  0  0  0
   -4.0205   -8.2202   -3.8746 H   0  0  0  1  0  0  0  0  0  0  0  0
    3.6973    1.5322   -1.2708 H   0  0  0  1  0  0  0  0  0  0  0  0
    4.4976    2.1248   -3.8863 H   0  0  0  1  0  0  0  0  0  0  0  0
    1.8502    2.8420   -3.7403 H   0  0  0  1  0  0  0  0  0  0  0  0
    2.9910    3.7696   -4.6849 H   0  0  0  1  0  0  0  0  0  0  0  0
    2.0493    4.3211   -1.8358 H   0  0  0  1  0  0  0  0  0  0  0  0
    4.1134    5.3795   -1.3443 H   0  0  0  1  0  0  0  0  0  0  0  0
    4.5103    5.5902   -3.0332 H   0  0  0  1  0  0  0  0  0  0  0  0
    5.7707    3.6836   -2.7800 H   0  0  0  1  0  0  0  0  0  0  0  0
    4.9495    3.2382   -1.3031 H   0  0  0  1  0  0  0  0  0  0  0  0
    1.0455    5.5532   -3.5715 H   0  0  0  1  0  0  0  0  0  0  0  0
    2.4627    6.0102   -4.1574 H   0  0  0  1  0  0  0  0  0  0  0  0
  1  2  4  0  0  0  0
  1  6  4  0  0  0  0
  2  3  4  0  0  0  0
  2 18  1  0  0  0  0
  3  4  4  0  0  0  0
  4  5  4  0  0  0  0
  4  7  4  0  0  0  0
  5  6  4  0  0  0  0
  5  9  4  0  0  0  0
  6 25  1  0  0  0  0
  7  8  4  0  0  0  0
  7 26  1  0  0  0  0
  8  9  4  0  0  0  0
  9 10  1  0  0  0  0
 10 11  4  0  0  0  0
 10 15  4  0  0  0  0
 11 12  4  0  0  0  0
 11 27  1  0  0  0  0
 12 13  4  0  0  0  0
 12 28  1  0  0  0  0
 13 14  4  0  0  0  0
 13 16  1  0  0  0  0
 14 15  4  0  0  0  0
 14 29  1  0  0  0  0
 15 30  1  0  0  0  0
 16 17  1  0  0  0  0
 17 31  1  0  0  0  0
 17 32  1  0  0  0  0
 17 33  1  0  0  0  0
 18 19  1  0  0  0  0
 18 34  1  0  0  0  0
 19 20  1  0  0  0  0
 19 23  1  0  0  0  0
 19 35  1  0  0  0  0
 20 21  1  0  0  0  0
 20 36  1  0  0  0  0
 20 37  1  0  0  0  0
 21 22  1  0  0  0  0
 21 24  1  0  0  0  0
 21 38  1  0  0  0  0
 22 23  1  0  0  0  0
 22 39  1  0  0  0  0
 22 40  1  0  0  0  0
 23 41  1  0  0  0  0
 23 42  1  0  0  0  0
 24 43  1  0  0  0  0
 24 44  1  0  0  0  0
M  END
> <ConfClashScore>
0 

> <ConfOneFourInteractionScore>
-0.981848 

> <ConfScore>
-0.068938 

> <ConfScorePBest>
0.00423299 

> <ConfTolerance>
0.212768 

$$$$
c13.sdf
 OpenBabel04162418043D

 44 47  0  0  0  0  0  0  0  0999 V2000
    2.1079   -0.3773   -1.8532 N   0  0  0  1  0  0  0  0  0  0  0  0
    2.5363    0.5907   -2.6455 C   0  0  0  1  0  0  0  0  0  0  0  0
    2.1526    0.6996   -3.8968 N   0  0  0  1  0  0  0  0  0  0  0  0
    1.2985   -0.1837   -4.4202 C   0  0  0  1  0  0  0  0  0  0  0  0
    0.8204   -1.2305   -3.6033 C   0  0  0  1  0  0  0  0  0  0  0  0
    1.2615   -1.2959   -2.2849 C   0  0  0  1  0  0  0  0  0  0  0  0
    0.7019   -0.3513   -5.6890 C   0  0  0  1  0  0  0  0  0  0  0  0
   -0.0688   -1.4010   -5.6537 N   0  0  0  1  0  0  0  0  0  0  0  0
   -0.0256   -1.9781   -4.3778 N   0  0  0  1  0  0  0  0  0  0  0  0
   -0.7857   -3.1447   -4.0790 C   0  0  0  1  0  0  0  0  0  0  0  0
   -1.6780   -3.1377   -3.0236 C   0  0  0  1  0  0  0  0  0  0  0  0
   -2.3526   -4.2986   -2.6788 C   0  0  0  1  0  0  0  0  0  0  0  0
   -2.1290   -5.4643   -3.3871 C   0  0  0  1  0  0  0  0  0  0  0  0
   -1.2340   -5.4710   -4.4457 C   0  0  0  1  0  0  0  0  0  0  0  0
   -0.5613   -4.3136   -4.7895 C   0  0  0  1  0  0  0  0  0  0  0  0
   -2.8379   -6.5309   -2.9574 O   0  0  0  1  0  0  0  0  0  0  0  0
   -2.6797   -7.7971   -3.6164 C   0  0  0  1  0  0  0  0  0  0  0  0
    3.4220    1.5245   -2.1388 N   0  0  0  1  0  0  0  0  0  0  0  0
    3.8737    1.3593   -0.7547 C   0  0  0  1  0  0  0  0  0  0  0  0
    5.3627    1.6769   -0.6155 C   0  0  0  1  0  0  0  0  0  0  0  0
    5.5561    2.0096    0.8679 C   0  0  0  1  0  0  0  0  0  0  0  0
    4.2066    2.5672    1.3379 C   0  0  0  1  0  0  0  0  0  0  0  0
    3.2360    2.4026    0.1660 C   0  0  0  1  0  0  0  0  0  0  0  0
    5.9105    0.7783    1.6386 N   0  0  0  1  0  0  0  0  0  0  0  0
    0.9316   -2.0525   -1.6522 H   0  0  0  1  0  0  0  0  0  0  0  0
    0.8530    0.2620   -6.5153 H   0  0  0  1  0  0  0  0  0  0  0  0
   -1.8433   -2.2617   -2.4880 H   0  0  0  1  0  0  0  0  0  0  0  0
   -3.0270   -4.2925   -1.8872 H   0  0  0  1  0  0  0  0  0  0  0  0
   -1.0688   -6.3471   -4.9813 H   0  0  0  1  0  0  0  0  0  0  0  0
    0.1131   -4.3197   -5.5811 H   0  0  0  1  0  0  0  0  0  0  0  0
   -1.6569   -7.9249   -3.9036 H   0  0  0  1  0  0  0  0  0  0  0  0
   -3.3007   -7.8257   -4.4872 H   0  0  0  1  0  0  0  0  0  0  0  0
   -2.9636   -8.5840   -2.9493 H   0  0  0  1  0  0  0  0  0  0  0  0
    3.7372    2.2727   -2.6878 H   0  0  0  1  0  0  0  0  0  0  0  0
    3.6562    0.3651   -0.4243 H   0  0  0  1  0  0  0  0  0  0  0  0
    5.9557    0.8303   -0.8920 H   0  0  0  1  0  0  0  0  0  0  0  0
    5.6280    2.5138   -1.2269 H   0  0  0  1  0  0  0  0  0  0  0  0
    6.3268    2.7417    0.9902 H   0  0  0  1  0  0  0  0  0  0  0  0
    3.8562    2.0193    2.1875 H   0  0  0  1  0  0  0  0  0  0  0  0
    4.3034    3.6014    1.5949 H   0  0  0  1  0  0  0  0  0  0  0  0
    2.2842    2.0604    0.5150 H   0  0  0  1  0  0  0  0  0  0  0  0
    3.1140    3.3315   -0.3508 H   0  0  0  1  0  0  0  0  0  0  0  0
    5.2653    0.0689    1.4369 H   0  0  0  1  0  0  0  0  0  0  0  0
    5.8887    0.9762    2.5982 H   0  0  0  1  0  0  0  0  0  0  0  0
  1  2  4  0  0  0  0
  1  6  4  0  0  0  0
  2  3  4  0  0  0  0
  2 18  1  0  0  0  0
  3  4  4  0  0  0  0
  4  5  4  0  0  0  0
  4  7  4  0  0  0  0
  5  6  4  0  0  0  0
  5  9  4  0  0  0  0
  6 25  1  0  0  0  0
  7  8  4  0  0  0  0
  7 26  1  0  0  0  0
  8  9  4  0  0  0  0
  9 10  1  0  0  0  0
 10 11  4  0  0  0  0
 10 15  4  0  0  0  0
 11 12  4  0  0  0  0
 11 27  1  0  0  0  0
 12 13  4  0  0  0  0
 12 28  1  0  0  0  0
 13 14  4  0  0  0  0
 13 16  1  0  0  0  0
 14 15  4  0  0  0  0
 14 29  1  0  0  0  0
 15 30  1  0  0  0  0
 16 17  1  0  0  0  0
 17 31  1  0  0  0  0
 17 32  1  0  0  0  0
 17 33  1  0  0  0  0
 18 19  1  0  0  0  0
 18 34  1  0  0  0  0
 19 20  1  0  0  0  0
 19 23  1  0  0  0  0
 19 35  1  0  0  0  0
 20 21  1  0  0  0  0
 20 36  1  0  0  0  0
 20 37  1  0  0  0  0
 21 22  1  0  0  0  0
 21 24  1  0  0  0  0
 21 38  1  0  0  0  0
 22 23  1  0  0  0  0
 22 39  1  0  0  0  0
 22 40  1  0  0  0  0
 23 41  1  0  0  0  0
 23 42  1  0  0  0  0
 24 43  1  0  0  0  0
 24 44  1  0  0  0  0
M  END
> <ConfClashScore>
0 

> <ConfOneFourInteractionScore>
-0.984337 

> <ConfScore>
-0.0682219 

> <ConfScorePBest>
0.00421966 

> <ConfTolerance>
0.305638 

$$$$
c13.sdf
 OpenBabel04162418043D

 44 47  0  0  0  0  0  0  0  0999 V2000
    2.1080   -0.3774   -1.8533 N   0  0  0  1  0  0  0  0  0  0  0  0
    2.5363    0.5907   -2.6455 C   0  0  0  1  0  0  0  0  0  0  0  0
    2.1525    0.6996   -3.8969 N   0  0  0  1  0  0  0  0  0  0  0  0
    1.2986   -0.1837   -4.4201 C   0  0  0  1  0  0  0  0  0  0  0  0
    0.8205   -1.2305   -3.6034 C   0  0  0  1  0  0  0  0  0  0  0  0
    1.2616   -1.2961   -2.2850 C   0  0  0  1  0  0  0  0  0  0  0  0
    0.7018   -0.3512   -5.6890 C   0  0  0  1  0  0  0  0  0  0  0  0
   -0.0690   -1.4010   -5.6537 N   0  0  0  1  0  0  0  0  0  0  0  0
   -0.0256   -1.9781   -4.3778 N   0  0  0  1  0  0  0  0  0  0  0  0
   -0.7742   -3.1273   -4.0836 C   0  0  0  1  0  0  0  0  0  0  0  0
   -0.0363   -4.2432   -3.7367 C   0  0  0  1  0  0  0  0  0  0  0  0
   -0.6804   -5.4295   -3.4220 C   0  0  0  1  0  0  0  0  0  0  0  0
   -2.0603   -5.4982   -3.4603 C   0  0  0  1  0  0  0  0  0  0  0  0
   -2.8004   -4.3789   -3.8083 C   0  0  0  1  0  0  0  0  0  0  0  0
   -2.1582   -3.1959   -4.1221 C   0  0  0  1  0  0  0  0  0  0  0  0
   -2.7883   -6.5859   -3.1826 O   0  0  0  1  0  0  0  0  0  0  0  0
   -4.2231   -6.6506   -3.4828 C   0  0  0  1  0  0  0  0  0  0  0  0
    3.3970    1.4544   -2.0655 N   0  0  0  1  0  0  0  0  0  0  0  0
    3.9913    2.6068   -2.7568 C   0  0  0  1  0  0  0  0  0  0  0  0
    4.6724    3.5565   -1.7684 C   0  0  0  1  0  0  0  0  0  0  0  0
    6.0648    2.9696   -1.5247 C   0  0  0  1  0  0  0  0  0  0  0  0
    6.3407    2.0054   -2.6854 C   0  0  0  1  0  0  0  0  0  0  0  0
    5.1590    2.1786   -3.6458 C   0  0  0  1  0  0  0  0  0  0  0  0
    7.0871    4.0583   -1.5047 N   0  0  0  1  0  0  0  0  0  0  0  0
    0.9318   -2.0527   -1.6523 H   0  0  0  1  0  0  0  0  0  0  0  0
    0.8527    0.2621   -6.5152 H   0  0  0  1  0  0  0  0  0  0  0  0
    1.0022   -4.1927   -3.7118 H   0  0  0  1  0  0  0  0  0  0  0  0
   -0.1252   -6.2681   -3.1571 H   0  0  0  1  0  0  0  0  0  0  0  0
   -3.8388   -4.4294   -3.8332 H   0  0  0  1  0  0  0  0  0  0  0  0
   -2.7133   -2.3573   -4.3871 H   0  0  0  1  0  0  0  0  0  0  0  0
   -4.6604   -7.4760   -2.9609 H   0  0  0  1  0  0  0  0  0  0  0  0
   -4.3614   -6.7811   -4.5358 H   0  0  0  1  0  0  0  0  0  0  0  0
   -4.6938   -5.7417   -3.1706 H   0  0  0  1  0  0  0  0  0  0  0  0
    3.6395    1.3039   -1.1280 H   0  0  0  1  0  0  0  0  0  0  0  0
    3.2368    3.1117   -3.3231 H   0  0  0  1  0  0  0  0  0  0  0  0
    4.7493    4.5382   -2.1868 H   0  0  0  1  0  0  0  0  0  0  0  0
    4.1207    3.6007   -0.8527 H   0  0  0  1  0  0  0  0  0  0  0  0
    6.0859    2.4427   -0.5937 H   0  0  0  1  0  0  0  0  0  0  0  0
    6.3905    0.9971   -2.3308 H   0  0  0  1  0  0  0  0  0  0  0  0
    7.2592    2.2586   -3.1723 H   0  0  0  1  0  0  0  0  0  0  0  0
    4.9372    1.2560   -4.1403 H   0  0  0  1  0  0  0  0  0  0  0  0
    5.3733    2.9320   -4.3747 H   0  0  0  1  0  0  0  0  0  0  0  0
    7.9785    3.6679   -1.3899 H   0  0  0  1  0  0  0  0  0  0  0  0
    6.8996    4.6684   -0.7610 H   0  0  0  1  0  0  0  0  0  0  0  0
  1  2  4  0  0  0  0
  1  6  4  0  0  0  0
  2  3  4  0  0  0  0
  2 18  1  0  0  0  0
  3  4  4  0  0  0  0
  4  5  4  0  0  0  0
  4  7  4  0  0  0  0
  5  6  4  0  0  0  0
  5  9  4  0  0  0  0
  6 25  1  0  0  0  0
  7  8  4  0  0  0  0
  7 26  1  0  0  0  0
  8  9  4  0  0  0  0
  9 10  1  0  0  0  0
 10 11  4  0  0  0  0
 10 15  4  0  0  0  0
 11 12  4  0  0  0  0
 11 27  1  0  0  0  0
 12 13  4  0  0  0  0
 12 28  1  0  0  0  0
 13 14  4  0  0  0  0
 13 16  1  0  0  0  0
 14 15  4  0  0  0  0
 14 29  1  0  0  0  0
 15 30  1  0  0  0  0
 16 17  1  0  0  0  0
 17 31  1  0  0  0  0
 17 32  1  0  0  0  0
 17 33  1  0  0  0  0
 18 19  1  0  0  0  0
 18 34  1  0  0  0  0
 19 20  1  0  0  0  0
 19 23  1  0  0  0  0
 19 35  1  0  0  0  0
 20 21  1  0  0  0  0
 20 36  1  0  0  0  0
 20 37  1  0  0  0  0
 21 22  1  0  0  0  0
 21 24  1  0  0  0  0
 21 38  1  0  0  0  0
 22 23  1  0  0  0  0
 22 39  1  0  0  0  0
 22 40  1  0  0  0  0
 23 41  1  0  0  0  0
 23 42  1  0  0  0  0
 24 43  1  0  0  0  0
 24 44  1  0  0  0  0
M  END
> <ConfClashScore>
0 

> <ConfOneFourInteractionScore>
-0.984337 

> <ConfScore>
-0.0672726 

> <ConfScorePBest>
0.00420633 

> <ConfTolerance>
0.326026 

$$$$
c13.sdf
 OpenBabel04162418043D

 44 47  0  0  0  0  0  0  0  0999 V2000
    2.1080   -0.3774   -1.8532 N   0  0  0  1  0  0  0  0  0  0  0  0
    2.5363    0.5907   -2.6455 C   0  0  0  1  0  0  0  0  0  0  0  0
    2.1526    0.6996   -3.8967 N   0  0  0  1  0  0  0  0  0  0  0  0
    1.2985   -0.1837   -4.4201 C   0  0  0  1  0  0  0  0  0  0  0  0
    0.8204   -1.2305   -3.6033 C   0  0  0  1  0  0  0  0  0  0  0  0
    1.2616   -1.2961   -2.2850 C   0  0  0  1  0  0  0  0  0  0  0  0
    0.7019   -0.3512   -5.6890 C   0  0  0  1  0  0  0  0  0  0  0  0
   -0.0689   -1.4010   -5.6537 N   0  0  0  1  0  0  0  0  0  0  0  0
   -0.0256   -1.9781   -4.3778 N   0  0  0  1  0  0  0  0  0  0  0  0
   -0.7806   -3.1368   -4.0812 C   0  0  0  1  0  0  0  0  0  0  0  0
   -0.6302   -4.2751   -4.8504 C   0  0  0  1  0  0  0  0  0  0  0  0
   -1.3661   -5.4124   -4.5564 C   0  0  0  1  0  0  0  0  0  0  0  0
   -2.2542   -5.4064   -3.4973 C   0  0  0  1  0  0  0  0  0  0  0  0
   -2.4049   -4.2647   -2.7259 C   0  0  0  1  0  0  0  0  0  0  0  0
   -1.6712   -3.1306   -3.0190 C   0  0  0  1  0  0  0  0  0  0  0  0
   -2.9752   -6.5132   -3.2141 O   0  0  0  1  0  0  0  0  0  0  0  0
   -2.6912   -7.7386   -3.9071 C   0  0  0  1  0  0  0  0  0  0  0  0
    3.4009    1.5022   -2.1507 N   0  0  0  1  0  0  0  0  0  0  0  0
    3.9911    2.5843   -2.9452 C   0  0  0  1  0  0  0  0  0  0  0  0
    3.2034    3.8896   -2.7791 C   0  0  0  1  0  0  0  0  0  0  0  0
    3.6833    4.5526   -1.4919 C   0  0  0  1  0  0  0  0  0  0  0  0
    5.0668    3.8760   -1.1950 C   0  0  0  1  0  0  0  0  0  0  0  0
    5.4049    2.9813   -2.4019 C   0  0  0  1  0  0  0  0  0  0  0  0
    3.8474    6.0361   -1.6866 N   0  0  0  1  0  0  0  0  0  0  0  0
    0.9317   -2.0527   -1.6523 H   0  0  0  1  0  0  0  0  0  0  0  0
    0.8528    0.2621   -6.5151 H   0  0  0  1  0  0  0  0  0  0  0  0
    0.0351   -4.2784   -5.6498 H   0  0  0  1  0  0  0  0  0  0  0  0
   -1.2500   -6.2703   -5.1328 H   0  0  0  1  0  0  0  0  0  0  0  0
   -3.0702   -4.2614   -1.9265 H   0  0  0  1  0  0  0  0  0  0  0  0
   -1.7873   -2.2727   -2.4427 H   0  0  0  1  0  0  0  0  0  0  0  0
   -2.7732   -8.5607   -3.2270 H   0  0  0  1  0  0  0  0  0  0  0  0
   -1.6982   -7.7019   -4.3037 H   0  0  0  1  0  0  0  0  0  0  0  0
   -3.3908   -7.8663   -4.7065 H   0  0  0  1  0  0  0  0  0  0  0  0
    3.6486    1.4368   -1.2048 H   0  0  0  1  0  0  0  0  0  0  0  0
    4.0393    2.2882   -3.9723 H   0  0  0  1  0  0  0  0  0  0  0  0
    2.1564    3.6787   -2.7132 H   0  0  0  1  0  0  0  0  0  0  0  0
    3.3859    4.5352   -3.6127 H   0  0  0  1  0  0  0  0  0  0  0  0
    2.9945    4.3711   -0.6935 H   0  0  0  1  0  0  0  0  0  0  0  0
    5.0019    3.2834   -0.3065 H   0  0  0  1  0  0  0  0  0  0  0  0
    5.8216    4.6243   -1.0709 H   0  0  0  1  0  0  0  0  0  0  0  0
    5.9627    3.5216   -3.1379 H   0  0  0  1  0  0  0  0  0  0  0  0
    5.9576    2.1170   -2.0982 H   0  0  0  1  0  0  0  0  0  0  0  0
    3.0219    6.4105   -2.0592 H   0  0  0  1  0  0  0  0  0  0  0  0
    4.5897    6.2043   -2.3040 H   0  0  0  1  0  0  0  0  0  0  0  0
  1  2  4  0  0  0  0
  1  6  4  0  0  0  0
  2  3  4  0  0  0  0
  2 18  1  0  0  0  0
  3  4  4  0  0  0  0
  4  5  4  0  0  0  0
  4  7  4  0  0  0  0
  5  6  4  0  0  0  0
  5  9  4  0  0  0  0
  6 25  1  0  0  0  0
  7  8  4  0  0  0  0
  7 26  1  0  0  0  0
  8  9  4  0  0  0  0
  9 10  1  0  0  0  0
 10 11  4  0  0  0  0
 10 15  4  0  0  0  0
 11 12  4  0  0  0  0
 11 27  1  0  0  0  0
 12 13  4  0  0  0  0
 12 28  1  0  0  0  0
 13 14  4  0  0  0  0
 13 16  1  0  0  0  0
 14 15  4  0  0  0  0
 14 29  1  0  0  0  0
 15 30  1  0  0  0  0
 16 17  1  0  0  0  0
 17 31  1  0  0  0  0
 17 32  1  0  0  0  0
 17 33  1  0  0  0  0
 18 19  1  0  0  0  0
 18 34  1  0  0  0  0
 19 20  1  0  0  0  0
 19 23  1  0  0  0  0
 19 35  1  0  0  0  0
 20 21  1  0  0  0  0
 20 36  1  0  0  0  0
 20 37  1  0  0  0  0
 21 22  1  0  0  0  0
 21 24  1  0  0  0  0
 21 38  1  0  0  0  0
 22 23  1  0  0  0  0
 22 39  1  0  0  0  0
 22 40  1  0  0  0  0
 23 41  1  0  0  0  0
 23 42  1  0  0  0  0
 24 43  1  0  0  0  0
 24 44  1  0  0  0  0
M  END
> <ConfClashScore>
0 

> <ConfOneFourInteractionScore>
-0.984337 

> <ConfScore>
-0.0668842 

> <ConfScorePBest>
0.004193 

> <ConfTolerance>
0.288992 

$$$$
c13.sdf
 OpenBabel04162418043D

 44 47  0  0  0  0  0  0  0  0999 V2000
    2.1080   -0.3774   -1.8532 N   0  0  0  1  0  0  0  0  0  0  0  0
    2.5364    0.5908   -2.6454 C   0  0  0  1  0  0  0  0  0  0  0  0
    2.1526    0.6996   -3.8968 N   0  0  0  1  0  0  0  0  0  0  0  0
    1.2985   -0.1838   -4.4201 C   0  0  0  1  0  0  0  0  0  0  0  0
    0.8205   -1.2304   -3.6034 C   0  0  0  1  0  0  0  0  0  0  0  0
    1.2616   -1.2961   -2.2850 C   0  0  0  1  0  0  0  0  0  0  0  0
    0.7019   -0.3513   -5.6889 C   0  0  0  1  0  0  0  0  0  0  0  0
   -0.0689   -1.4011   -5.6537 N   0  0  0  1  0  0  0  0  0  0  0  0
   -0.0256   -1.9781   -4.3778 N   0  0  0  1  0  0  0  0  0  0  0  0
   -0.7805   -3.1369   -4.0812 C   0  0  0  1  0  0  0  0  0  0  0  0
   -1.6790   -3.1261   -3.0312 C   0  0  0  1  0  0  0  0  0  0  0  0
   -2.4227   -4.2600   -2.7438 C   0  0  0  1  0  0  0  0  0  0  0  0
   -2.2618   -5.4032   -3.5039 C   0  0  0  1  0  0  0  0  0  0  0  0
   -1.3605   -5.4138   -4.5570 C   0  0  0  1  0  0  0  0  0  0  0  0
   -0.6189   -4.2832   -4.8437 C   0  0  0  1  0  0  0  0  0  0  0  0
   -3.0368   -6.4476   -3.1265 O   0  0  0  1  0  0  0  0  0  0  0  0
   -3.0033   -7.6218   -3.9528 C   0  0  0  1  0  0  0  0  0  0  0  0
    3.4009    1.5023   -2.1508 N   0  0  0  1  0  0  0  0  0  0  0  0
    3.7751    1.5864   -0.7498 C   0  0  0  1  0  0  0  0  0  0  0  0
    4.8388    0.5351   -0.4147 C   0  0  0  1  0  0  0  0  0  0  0  0
    6.1746    1.2423   -0.6447 C   0  0  0  1  0  0  0  0  0  0  0  0
    5.8933    2.6441   -0.0982 C   0  0  0  1  0  0  0  0  0  0  0  0
    4.4333    2.9392   -0.4502 C   0  0  0  1  0  0  0  0  0  0  0  0
    7.2826    0.5739    0.1151 N   0  0  0  1  0  0  0  0  0  0  0  0
    0.9318   -2.0527   -1.6522 H   0  0  0  1  0  0  0  0  0  0  0  0
    0.8529    0.2621   -6.5152 H   0  0  0  1  0  0  0  0  0  0  0  0
   -1.7972   -2.2672   -2.4566 H   0  0  0  1  0  0  0  0  0  0  0  0
   -3.1018   -4.2507   -1.9561 H   0  0  0  1  0  0  0  0  0  0  0  0
   -1.2423   -6.2726   -5.1316 H   0  0  0  1  0  0  0  0  0  0  0  0
    0.0602   -4.2925   -5.6313 H   0  0  0  1  0  0  0  0  0  0  0  0
   -3.8515   -7.6237   -4.6052 H   0  0  0  1  0  0  0  0  0  0  0  0
   -3.0280   -8.4941   -3.3337 H   0  0  0  1  0  0  0  0  0  0  0  0
   -2.1057   -7.6223   -4.5351 H   0  0  0  1  0  0  0  0  0  0  0  0
    3.7994    2.1453   -2.7738 H   0  0  0  1  0  0  0  0  0  0  0  0
    2.9073    1.4488   -0.1393 H   0  0  0  1  0  0  0  0  0  0  0  0
    4.7461   -0.3135   -1.0597 H   0  0  0  1  0  0  0  0  0  0  0  0
    4.7498    0.2207    0.6042 H   0  0  0  1  0  0  0  0  0  0  0  0
    6.4231    1.2738   -1.6849 H   0  0  0  1  0  0  0  0  0  0  0  0
    6.0333    2.6662    0.9624 H   0  0  0  1  0  0  0  0  0  0  0  0
    6.5404    3.3610   -0.5590 H   0  0  0  1  0  0  0  0  0  0  0  0
    4.3816    3.5737   -1.3102 H   0  0  0  1  0  0  0  0  0  0  0  0
    3.9433    3.4140    0.3740 H   0  0  0  1  0  0  0  0  0  0  0  0
    7.4605   -0.3078   -0.2740 H   0  0  0  1  0  0  0  0  0  0  0  0
    7.0185    0.4695    1.0531 H   0  0  0  1  0  0  0  0  0  0  0  0
  1  2  4  0  0  0  0
  1  6  4  0  0  0  0
  2  3  4  0  0  0  0
  2 18  1  0  0  0  0
  3  4  4  0  0  0  0
  4  5  4  0  0  0  0
  4  7  4  0  0  0  0
  5  6  4  0  0  0  0
  5  9  4  0  0  0  0
  6 25  1  0  0  0  0
  7  8  4  0  0  0  0
  7 26  1  0  0  0  0
  8  9  4  0  0  0  0
  9 10  1  0  0  0  0
 10 11  4  0  0  0  0
 10 15  4  0  0  0  0
 11 12  4  0  0  0  0
 11 27  1  0  0  0  0
 12 13  4  0  0  0  0
 12 28  1  0  0  0  0
 13 14  4  0  0  0  0
 13 16  1  0  0  0  0
 14 15  4  0  0  0  0
 14 29  1  0  0  0  0
 15 30  1  0  0  0  0
 16 17  1  0  0  0  0
 17 31  1  0  0  0  0
 17 32  1  0  0  0  0
 17 33  1  0  0  0  0
 18 19  1  0  0  0  0
 18 34  1  0  0  0  0
 19 20  1  0  0  0  0
 19 23  1  0  0  0  0
 19 35  1  0  0  0  0
 20 21  1  0  0  0  0
 20 36  1  0  0  0  0
 20 37  1  0  0  0  0
 21 22  1  0  0  0  0
 21 24  1  0  0  0  0
 21 38  1  0  0  0  0
 22 23  1  0  0  0  0
 22 39  1  0  0  0  0
 22 40  1  0  0  0  0
 23 41  1  0  0  0  0
 23 42  1  0  0  0  0
 24 43  1  0  0  0  0
 24 44  1  0  0  0  0
M  END
> <ConfClashScore>
0 

> <ConfOneFourInteractionScore>
-0.984337 

> <ConfScore>
-0.0668842 

> <ConfScorePBest>
0.00417967 

> <ConfTolerance>
0.318689 

$$$$
c13.sdf
 OpenBabel04162418043D

 44 47  0  0  0  0  0  0  0  0999 V2000
    2.1079   -0.3773   -1.8532 N   0  0  0  1  0  0  0  0  0  0  0  0
    2.5364    0.5907   -2.6454 C   0  0  0  1  0  0  0  0  0  0  0  0
    2.1526    0.6996   -3.8967 N   0  0  0  1  0  0  0  0  0  0  0  0
    1.2986   -0.1837   -4.4201 C   0  0  0  1  0  0  0  0  0  0  0  0
    0.8204   -1.2305   -3.6033 C   0  0  0  1  0  0  0  0  0  0  0  0
    1.2615   -1.2960   -2.2849 C   0  0  0  1  0  0  0  0  0  0  0  0
    0.7020   -0.3513   -5.6889 C   0  0  0  1  0  0  0  0  0  0  0  0
   -0.0689   -1.4011   -5.6538 N   0  0  0  1  0  0  0  0  0  0  0  0
   -0.0256   -1.9781   -4.3778 N   0  0  0  1  0  0  0  0  0  0  0  0
   -0.7779   -3.1328   -4.0822 C   0  0  0  1  0  0  0  0  0  0  0  0
   -1.8079   -3.1294   -3.1607 C   0  0  0  1  0  0  0  0  0  0  0  0
   -2.5192   -4.2930   -2.9121 C   0  0  0  1  0  0  0  0  0  0  0  0
   -2.1950   -5.4577   -3.5817 C   0  0  0  1  0  0  0  0  0  0  0  0
   -1.1618   -5.4610   -4.5059 C   0  0  0  1  0  0  0  0  0  0  0  0
   -0.4525   -4.3009   -4.7538 C   0  0  0  1  0  0  0  0  0  0  0  0
   -2.9247   -6.5603   -3.2892 O   0  0  0  1  0  0  0  0  0  0  0  0
   -2.7072   -7.7254   -4.1003 C   0  0  0  1  0  0  0  0  0  0  0  0
    3.4117    1.5446   -2.2066 N   0  0  0  1  0  0  0  0  0  0  0  0
    4.0972    2.4633   -3.1457 C   0  0  0  1  0  0  0  0  0  0  0  0
    3.0889    3.4164   -3.7916 C   0  0  0  1  0  0  0  0  0  0  0  0
    3.7483    4.8014   -3.8103 C   0  0  0  1  0  0  0  0  0  0  0  0
    5.1793    4.5755   -3.3103 C   0  0  0  1  0  0  0  0  0  0  0  0
    5.0859    3.3566   -2.3925 C   0  0  0  1  0  0  0  0  0  0  0  0
    3.7604    5.3567   -5.1985 N   0  0  0  1  0  0  0  0  0  0  0  0
    0.9317   -2.0526   -1.6522 H   0  0  0  1  0  0  0  0  0  0  0  0
    0.8529    0.2620   -6.5152 H   0  0  0  1  0  0  0  0  0  0  0  0
   -2.0494   -2.2539   -2.6539 H   0  0  0  1  0  0  0  0  0  0  0  0
   -3.2970   -4.2893   -2.2216 H   0  0  0  1  0  0  0  0  0  0  0  0
   -0.9203   -6.3365   -5.0128 H   0  0  0  1  0  0  0  0  0  0  0  0
    0.3252   -4.3044   -5.4443 H   0  0  0  1  0  0  0  0  0  0  0  0
   -3.0997   -7.5562   -5.0811 H   0  0  0  1  0  0  0  0  0  0  0  0
   -3.2021   -8.5648   -3.6582 H   0  0  0  1  0  0  0  0  0  0  0  0
   -1.6577   -7.9233   -4.1655 H   0  0  0  1  0  0  0  0  0  0  0  0
    3.5904    1.6229   -1.2463 H   0  0  0  1  0  0  0  0  0  0  0  0
    4.6055    1.8937   -3.8955 H   0  0  0  1  0  0  0  0  0  0  0  0
    2.8674    3.0994   -4.7893 H   0  0  0  1  0  0  0  0  0  0  0  0
    2.1867    3.4445   -3.2171 H   0  0  0  1  0  0  0  0  0  0  0  0
    3.2265    5.4733   -3.1613 H   0  0  0  1  0  0  0  0  0  0  0  0
    5.5279    5.4295   -2.7680 H   0  0  0  1  0  0  0  0  0  0  0  0
    5.8382    4.3799   -4.1304 H   0  0  0  1  0  0  0  0  0  0  0  0
    4.7092    3.6250   -1.4276 H   0  0  0  1  0  0  0  0  0  0  0  0
    6.0368    2.8782   -2.2843 H   0  0  0  1  0  0  0  0  0  0  0  0
    4.1769    4.7101   -5.8058 H   0  0  0  1  0  0  0  0  0  0  0  0
    4.2713    6.1927   -5.2112 H   0  0  0  1  0  0  0  0  0  0  0  0
  1  2  4  0  0  0  0
  1  6  4  0  0  0  0
  2  3  4  0  0  0  0
  2 18  1  0  0  0  0
  3  4  4  0  0  0  0
  4  5  4  0  0  0  0
  4  7  4  0  0  0  0
  5  6  4  0  0  0  0
  5  9  4  0  0  0  0
  6 25  1  0  0  0  0
  7  8  4  0  0  0  0
  7 26  1  0  0  0  0
  8  9  4  0  0  0  0
  9 10  1  0  0  0  0
 10 11  4  0  0  0  0
 10 15  4  0  0  0  0
 11 12  4  0  0  0  0
 11 27  1  0  0  0  0
 12 13  4  0  0  0  0
 12 28  1  0  0  0  0
 13 14  4  0  0  0  0
 13 16  1  0  0  0  0
 14 15  4  0  0  0  0
 14 29  1  0  0  0  0
 15 30  1  0  0  0  0
 16 17  1  0  0  0  0
 17 31  1  0  0  0  0
 17 32  1  0  0  0  0
 17 33  1  0  0  0  0
 18 19  1  0  0  0  0
 18 34  1  0  0  0  0
 19 20  1  0  0  0  0
 19 23  1  0  0  0  0
 19 35  1  0  0  0  0
 20 21  1  0  0  0  0
 20 36  1  0  0  0  0
 20 37  1  0  0  0  0
 21 22  1  0  0  0  0
 21 24  1  0  0  0  0
 21 38  1  0  0  0  0
 22 23  1  0  0  0  0
 22 39  1  0  0  0  0
 22 40  1  0  0  0  0
 23 41  1  0  0  0  0
 23 42  1  0  0  0  0
 24 43  1  0  0  0  0
 24 44  1  0  0  0  0
M  END
> <ConfClashScore>
0 

> <ConfOneFourInteractionScore>
-0.978154 

> <ConfScore>
-0.0659356 

> <ConfScorePBest>
0.00416634 

> <ConfTolerance>
0.300346 

$$$$
c13.sdf
 OpenBabel04162418043D

 44 47  0  0  0  0  0  0  0  0999 V2000
    2.1078   -0.3773   -1.8532 N   0  0  0  1  0  0  0  0  0  0  0  0
    2.5364    0.5907   -2.6455 C   0  0  0  1  0  0  0  0  0  0  0  0
    2.1526    0.6996   -3.8968 N   0  0  0  1  0  0  0  0  0  0  0  0
    1.2985   -0.1838   -4.4201 C   0  0  0  1  0  0  0  0  0  0  0  0
    0.8204   -1.2304   -3.6034 C   0  0  0  1  0  0  0  0  0  0  0  0
    1.2614   -1.2959   -2.2849 C   0  0  0  1  0  0  0  0  0  0  0  0
    0.7020   -0.3513   -5.6890 C   0  0  0  1  0  0  0  0  0  0  0  0
   -0.0688   -1.4010   -5.6537 N   0  0  0  1  0  0  0  0  0  0  0  0
   -0.0256   -1.9781   -4.3778 N   0  0  0  1  0  0  0  0  0  0  0  0
   -0.7140   -3.1954   -4.1130 C   0  0  0  1  0  0  0  0  0  0  0  0
   -1.4961   -3.3681   -2.9868 C   0  0  0  1  0  0  0  0  0  0  0  0
   -2.2274   -4.5342   -2.8232 C   0  0  0  1  0  0  0  0  0  0  0  0
   -2.1702   -5.5265   -3.7837 C   0  0  0  1  0  0  0  0  0  0  0  0
   -1.3857   -5.3530   -4.9133 C   0  0  0  1  0  0  0  0  0  0  0  0
   -0.6564   -4.1904   -5.0765 C   0  0  0  1  0  0  0  0  0  0  0  0
   -2.8769   -6.6620   -3.6222 O   0  0  0  1  0  0  0  0  0  0  0  0
   -3.6594   -6.7284   -2.4072 C   0  0  0  1  0  0  0  0  0  0  0  0
    3.3977    1.4989   -2.1526 N   0  0  0  1  0  0  0  0  0  0  0  0
    4.1308    2.4600   -2.9780 C   0  0  0  1  0  0  0  0  0  0  0  0
    3.2731    3.7016   -3.2455 C   0  0  0  1  0  0  0  0  0  0  0  0
    3.6144    4.6657   -2.1093 C   0  0  0  1  0  0  0  0  0  0  0  0
    5.1235    4.4606   -1.9574 C   0  0  0  1  0  0  0  0  0  0  0  0
    5.3681    2.9749   -2.2314 C   0  0  0  1  0  0  0  0  0  0  0  0
    3.2933    6.0780   -2.4811 N   0  0  0  1  0  0  0  0  0  0  0  0
    0.9316   -2.0526   -1.6522 H   0  0  0  1  0  0  0  0  0  0  0  0
    0.8530    0.2620   -6.5152 H   0  0  0  1  0  0  0  0  0  0  0  0
   -1.5360   -2.6233   -2.2620 H   0  0  0  1  0  0  0  0  0  0  0  0
   -2.8191   -4.6626   -1.9776 H   0  0  0  1  0  0  0  0  0  0  0  0
   -1.3458   -6.0979   -5.6380 H   0  0  0  1  0  0  0  0  0  0  0  0
   -0.0647   -4.0619   -5.9221 H   0  0  0  1  0  0  0  0  0  0  0  0
   -4.1949   -7.6543   -2.3775 H   0  0  0  1  0  0  0  0  0  0  0  0
   -4.3534   -5.9144   -2.3854 H   0  0  0  1  0  0  0  0  0  0  0  0
   -3.0085   -6.6658   -1.5602 H   0  0  0  1  0  0  0  0  0  0  0  0
    3.5428    1.5182   -1.1836 H   0  0  0  1  0  0  0  0  0  0  0  0
    4.4155    1.9957   -3.8990 H   0  0  0  1  0  0  0  0  0  0  0  0
    3.5206    4.1332   -4.1929 H   0  0  0  1  0  0  0  0  0  0  0  0
    2.2328    3.4516   -3.2278 H   0  0  0  1  0  0  0  0  0  0  0  0
    3.0949    4.4060   -1.2106 H   0  0  0  1  0  0  0  0  0  0  0  0
    5.4366    4.7137   -0.9660 H   0  0  0  1  0  0  0  0  0  0  0  0
    5.6551    5.0629   -2.6643 H   0  0  0  1  0  0  0  0  0  0  0  0
    5.4909    2.4446   -1.3102 H   0  0  0  1  0  0  0  0  0  0  0  0
    6.2425    2.8495   -2.8351 H   0  0  0  1  0  0  0  0  0  0  0  0
    3.4635    6.6646   -1.7149 H   0  0  0  1  0  0  0  0  0  0  0  0
    2.3496    6.1414   -2.7377 H   0  0  0  1  0  0  0  0  0  0  0  0
  1  2  4  0  0  0  0
  1  6  4  0  0  0  0
  2  3  4  0  0  0  0
  2 18  1  0  0  0  0
  3  4  4  0  0  0  0
  4  5  4  0  0  0  0
  4  7  4  0  0  0  0
  5  6  4  0  0  0  0
  5  9  4  0  0  0  0
  6 25  1  0  0  0  0
  7  8  4  0  0  0  0
  7 26  1  0  0  0  0
  8  9  4  0  0  0  0
  9 10  1  0  0  0  0
 10 11  4  0  0  0  0
 10 15  4  0  0  0  0
 11 12  4  0  0  0  0
 11 27  1  0  0  0  0
 12 13  4  0  0  0  0
 12 28  1  0  0  0  0
 13 14  4  0  0  0  0
 13 16  1  0  0  0  0
 14 15  4  0  0  0  0
 14 29  1  0  0  0  0
 15 30  1  0  0  0  0
 16 17  1  0  0  0  0
 17 31  1  0  0  0  0
 17 32  1  0  0  0  0
 17 33  1  0  0  0  0
 18 19  1  0  0  0  0
 18 34  1  0  0  0  0
 19 20  1  0  0  0  0
 19 23  1  0  0  0  0
 19 35  1  0  0  0  0
 20 21  1  0  0  0  0
 20 36  1  0  0  0  0
 20 37  1  0  0  0  0
 21 22  1  0  0  0  0
 21 24  1  0  0  0  0
 21 38  1  0  0  0  0
 22 23  1  0  0  0  0
 22 39  1  0  0  0  0
 22 40  1  0  0  0  0
 23 41  1  0  0  0  0
 23 42  1  0  0  0  0
 24 43  1  0  0  0  0
 24 44  1  0  0  0  0
M  END
> <ConfClashScore>
0 

> <ConfOneFourInteractionScore>
-0.984337 

> <ConfScore>
-0.0646705 

> <ConfScorePBest>
0.00415302 

> <ConfTolerance>
0.307421 

$$$$
c13.sdf
 OpenBabel04162418043D

 44 47  0  0  0  0  0  0  0  0999 V2000
    2.1079   -0.3774   -1.8533 N   0  0  0  1  0  0  0  0  0  0  0  0
    2.5364    0.5907   -2.6454 C   0  0  0  1  0  0  0  0  0  0  0  0
    2.1525    0.6996   -3.8969 N   0  0  0  1  0  0  0  0  0  0  0  0
    1.2985   -0.1837   -4.4201 C   0  0  0  1  0  0  0  0  0  0  0  0
    0.8204   -1.2305   -3.6034 C   0  0  0  1  0  0  0  0  0  0  0  0
    1.2615   -1.2960   -2.2849 C   0  0  0  1  0  0  0  0  0  0  0  0
    0.7019   -0.3514   -5.6890 C   0  0  0  1  0  0  0  0  0  0  0  0
   -0.0690   -1.4010   -5.6537 N   0  0  0  1  0  0  0  0  0  0  0  0
   -0.0256   -1.9781   -4.3778 N   0  0  0  1  0  0  0  0  0  0  0  0
   -0.7858   -3.1448   -4.0791 C   0  0  0  1  0  0  0  0  0  0  0  0
   -1.8190   -3.5239   -4.9150 C   0  0  0  1  0  0  0  0  0  0  0  0
   -2.4977   -4.7101   -4.6836 C   0  0  0  1  0  0  0  0  0  0  0  0
   -2.1448   -5.5112   -3.6140 C   0  0  0  1  0  0  0  0  0  0  0  0
   -1.1084   -5.1308   -2.7757 C   0  0  0  1  0  0  0  0  0  0  0  0
   -0.4315   -3.9480   -3.0062 C   0  0  0  1  0  0  0  0  0  0  0  0
   -2.7491   -6.7111   -3.4441 O   0  0  0  1  0  0  0  0  0  0  0  0
   -3.8789   -7.0014   -4.2818 C   0  0  0  1  0  0  0  0  0  0  0  0
    3.3977    1.4989   -2.1527 N   0  0  0  1  0  0  0  0  0  0  0  0
    4.0060    2.6978   -2.7354 C   0  0  0  1  0  0  0  0  0  0  0  0
    4.3393    3.7583   -1.6330 C   0  0  0  1  0  0  0  0  0  0  0  0
    5.4267    4.6172   -2.3046 C   0  0  0  1  0  0  0  0  0  0  0  0
    6.1832    3.6949   -3.3231 C   0  0  0  1  0  0  0  0  0  0  0  0
    5.3911    2.3914   -3.3179 C   0  0  0  1  0  0  0  0  0  0  0  0
    4.8098    5.7473   -3.0115 N   0  0  0  1  0  0  0  0  0  0  0  0
    0.9317   -2.0526   -1.6522 H   0  0  0  1  0  0  0  0  0  0  0  0
    0.8529    0.2620   -6.5152 H   0  0  0  1  0  0  0  0  0  0  0  0
   -2.0873   -2.9192   -5.7175 H   0  0  0  1  0  0  0  0  0  0  0  0
   -3.2726   -4.9974   -5.3149 H   0  0  0  1  0  0  0  0  0  0  0  0
   -0.8401   -5.7354   -1.9732 H   0  0  0  1  0  0  0  0  0  0  0  0
    0.3433   -3.6606   -2.3750 H   0  0  0  1  0  0  0  0  0  0  0  0
   -4.7480   -6.5152   -3.8904 H   0  0  0  1  0  0  0  0  0  0  0  0
   -4.0424   -8.0586   -4.3060 H   0  0  0  1  0  0  0  0  0  0  0  0
   -3.6881   -6.6467   -5.2731 H   0  0  0  1  0  0  0  0  0  0  0  0
    3.6704    1.3256   -1.2274 H   0  0  0  1  0  0  0  0  0  0  0  0
    3.3532    3.1038   -3.4795 H   0  0  0  1  0  0  0  0  0  0  0  0
    3.4787    4.3461   -1.3910 H   0  0  0  1  0  0  0  0  0  0  0  0
    4.7119    3.2887   -0.7466 H   0  0  0  1  0  0  0  0  0  0  0  0
    6.1091    4.9864   -1.5678 H   0  0  0  1  0  0  0  0  0  0  0  0
    7.1907    3.5265   -3.0046 H   0  0  0  1  0  0  0  0  0  0  0  0
    6.1857    4.1322   -4.2996 H   0  0  0  1  0  0  0  0  0  0  0  0
    5.8894    1.6634   -2.7126 H   0  0  0  1  0  0  0  0  0  0  0  0
    5.2935    2.0193   -4.3164 H   0  0  0  1  0  0  0  0  0  0  0  0
    4.0801    5.4198   -3.5778 H   0  0  0  1  0  0  0  0  0  0  0  0
    5.4829    6.1898   -3.5697 H   0  0  0  1  0  0  0  0  0  0  0  0
  1  2  4  0  0  0  0
  1  6  4  0  0  0  0
  2  3  4  0  0  0  0
  2 18  1  0  0  0  0
  3  4  4  0  0  0  0
  4  5  4  0  0  0  0
  4  7  4  0  0  0  0
  5  6  4  0  0  0  0
  5  9  4  0  0  0  0
  6 25  1  0  0  0  0
  7  8  4  0  0  0  0
  7 26  1  0  0  0  0
  8  9  4  0  0  0  0
  9 10  1  0  0  0  0
 10 11  4  0  0  0  0
 10 15  4  0  0  0  0
 11 12  4  0  0  0  0
 11 27  1  0  0  0  0
 12 13  4  0  0  0  0
 12 28  1  0  0  0  0
 13 14  4  0  0  0  0
 13 16  1  0  0  0  0
 14 15  4  0  0  0  0
 14 29  1  0  0  0  0
 15 30  1  0  0  0  0
 16 17  1  0  0  0  0
 17 31  1  0  0  0  0
 17 32  1  0  0  0  0
 17 33  1  0  0  0  0
 18 19  1  0  0  0  0
 18 34  1  0  0  0  0
 19 20  1  0  0  0  0
 19 23  1  0  0  0  0
 19 35  1  0  0  0  0
 20 21  1  0  0  0  0
 20 36  1  0  0  0  0
 20 37  1  0  0  0  0
 21 22  1  0  0  0  0
 21 24  1  0  0  0  0
 21 38  1  0  0  0  0
 22 23  1  0  0  0  0
 22 39  1  0  0  0  0
 22 40  1  0  0  0  0
 23 41  1  0  0  0  0
 23 42  1  0  0  0  0
 24 43  1  0  0  0  0
 24 44  1  0  0  0  0
M  END
> <ConfClashScore>
0 

> <ConfOneFourInteractionScore>
-0.984337 

> <ConfScore>
-0.0643592 

> <ConfScorePBest>
0.00413969 

> <ConfTolerance>
0.293472 

$$$$
c13.sdf
 OpenBabel04162418043D

 44 47  0  0  0  0  0  0  0  0999 V2000
    2.1079   -0.3773   -1.8532 N   0  0  0  1  0  0  0  0  0  0  0  0
    2.5363    0.5907   -2.6455 C   0  0  0  1  0  0  0  0  0  0  0  0
    2.1526    0.6996   -3.8968 N   0  0  0  1  0  0  0  0  0  0  0  0
    1.2986   -0.1837   -4.4201 C   0  0  0  1  0  0  0  0  0  0  0  0
    0.8203   -1.2304   -3.6033 C   0  0  0  1  0  0  0  0  0  0  0  0
    1.2614   -1.2960   -2.2849 C   0  0  0  1  0  0  0  0  0  0  0  0
    0.7020   -0.3513   -5.6890 C   0  0  0  1  0  0  0  0  0  0  0  0
   -0.0689   -1.4011   -5.6538 N   0  0  0  1  0  0  0  0  0  0  0  0
   -0.0256   -1.9781   -4.3778 N   0  0  0  1  0  0  0  0  0  0  0  0
   -0.7097   -3.1879   -4.1147 C   0  0  0  1  0  0  0  0  0  0  0  0
   -0.3708   -3.9472   -3.0108 C   0  0  0  1  0  0  0  0  0  0  0  0
   -1.0448   -5.1301   -2.7500 C   0  0  0  1  0  0  0  0  0  0  0  0
   -2.0521   -5.5528   -3.5967 C   0  0  0  1  0  0  0  0  0  0  0  0
   -2.3919   -4.7911   -4.7038 C   0  0  0  1  0  0  0  0  0  0  0  0
   -1.7199   -3.6116   -4.9640 C   0  0  0  1  0  0  0  0  0  0  0  0
   -2.6339   -6.7237   -3.2439 O   0  0  0  1  0  0  0  0  0  0  0  0
   -3.5111   -7.3356   -4.2026 C   0  0  0  1  0  0  0  0  0  0  0  0
    3.4010    1.5328   -2.2120 N   0  0  0  1  0  0  0  0  0  0  0  0
    4.0226    1.5274   -0.8669 C   0  0  0  1  0  0  0  0  0  0  0  0
    5.4206    2.1536   -0.9142 C   0  0  0  1  0  0  0  0  0  0  0  0
    5.1002    3.6391   -0.9275 C   0  0  0  1  0  0  0  0  0  0  0  0
    3.9265    3.7876    0.0463 C   0  0  0  1  0  0  0  0  0  0  0  0
    3.2344    2.4189    0.0968 C   0  0  0  1  0  0  0  0  0  0  0  0
    6.2642    4.4292   -0.4677 N   0  0  0  1  0  0  0  0  0  0  0  0
    0.9315   -2.0526   -1.6522 H   0  0  0  1  0  0  0  0  0  0  0  0
    0.8530    0.2620   -6.5152 H   0  0  0  1  0  0  0  0  0  0  0  0
    0.3899   -3.6313   -2.3758 H   0  0  0  1  0  0  0  0  0  0  0  0
   -0.7926   -5.6995   -1.9171 H   0  0  0  1  0  0  0  0  0  0  0  0
   -3.1525   -5.1070   -5.3388 H   0  0  0  1  0  0  0  0  0  0  0  0
   -1.9722   -3.0422   -5.7969 H   0  0  0  1  0  0  0  0  0  0  0  0
   -3.5226   -8.3947   -4.0510 H   0  0  0  1  0  0  0  0  0  0  0  0
   -3.1636   -7.1208   -5.1915 H   0  0  0  1  0  0  0  0  0  0  0  0
   -4.5003   -6.9471   -4.0792 H   0  0  0  1  0  0  0  0  0  0  0  0
    3.6310    2.2635   -2.8232 H   0  0  0  1  0  0  0  0  0  0  0  0
    4.0705    0.5235   -0.4997 H   0  0  0  1  0  0  0  0  0  0  0  0
    5.9477    1.8615   -1.7984 H   0  0  0  1  0  0  0  0  0  0  0  0
    5.9952    1.8875   -0.0517 H   0  0  0  1  0  0  0  0  0  0  0  0
    4.8188    3.9564   -1.9099 H   0  0  0  1  0  0  0  0  0  0  0  0
    3.2455    4.5344   -0.3052 H   0  0  0  1  0  0  0  0  0  0  0  0
    4.2832    4.0585    1.0180 H   0  0  0  1  0  0  0  0  0  0  0  0
    3.2683    2.0190    1.0886 H   0  0  0  1  0  0  0  0  0  0  0  0
    2.2158    2.5029   -0.2198 H   0  0  0  1  0  0  0  0  0  0  0  0
    6.6187    4.0390    0.3584 H   0  0  0  1  0  0  0  0  0  0  0  0
    5.9852    5.3534   -0.2988 H   0  0  0  1  0  0  0  0  0  0  0  0
  1  2  4  0  0  0  0
  1  6  4  0  0  0  0
  2  3  4  0  0  0  0
  2 18  1  0  0  0  0
  3  4  4  0  0  0  0
  4  5  4  0  0  0  0
  4  7  4  0  0  0  0
  5  6  4  0  0  0  0
  5  9  4  0  0  0  0
  6 25  1  0  0  0  0
  7  8  4  0  0  0  0
  7 26  1  0  0  0  0
  8  9  4  0  0  0  0
  9 10  1  0  0  0  0
 10 11  4  0  0  0  0
 10 15  4  0  0  0  0
 11 12  4  0  0  0  0
 11 27  1  0  0  0  0
 12 13  4  0  0  0  0
 12 28  1  0  0  0  0
 13 14  4  0  0  0  0
 13 16  1  0  0  0  0
 14 15  4  0  0  0  0
 14 29  1  0  0  0  0
 15 30  1  0  0  0  0
 16 17  1  0  0  0  0
 17 31  1  0  0  0  0
 17 32  1  0  0  0  0
 17 33  1  0  0  0  0
 18 19  1  0  0  0  0
 18 34  1  0  0  0  0
 19 20  1  0  0  0  0
 19 23  1  0  0  0  0
 19 35  1  0  0  0  0
 20 21  1  0  0  0  0
 20 36  1  0  0  0  0
 20 37  1  0  0  0  0
 21 22  1  0  0  0  0
 21 24  1  0  0  0  0
 21 38  1  0  0  0  0
 22 23  1  0  0  0  0
 22 39  1  0  0  0  0
 22 40  1  0  0  0  0
 23 41  1  0  0  0  0
 23 42  1  0  0  0  0
 24 43  1  0  0  0  0
 24 44  1  0  0  0  0
M  END
> <ConfClashScore>
0 

> <ConfOneFourInteractionScore>
-0.984337 

> <ConfScore>
-0.0641324 

> <ConfScorePBest>
0.00412636 

> <ConfTolerance>
0.37606 

$$$$
c13.sdf
 OpenBabel04162418043D

 44 47  0  0  0  0  0  0  0  0999 V2000
    2.1078   -0.3773   -1.8531 N   0  0  0  1  0  0  0  0  0  0  0  0
    2.5364    0.5907   -2.6455 C   0  0  0  1  0  0  0  0  0  0  0  0
    2.1526    0.6996   -3.8968 N   0  0  0  1  0  0  0  0  0  0  0  0
    1.2985   -0.1837   -4.4201 C   0  0  0  1  0  0  0  0  0  0  0  0
    0.8204   -1.2304   -3.6033 C   0  0  0  1  0  0  0  0  0  0  0  0
    1.2615   -1.2960   -2.2849 C   0  0  0  1  0  0  0  0  0  0  0  0
    0.7020   -0.3513   -5.6890 C   0  0  0  1  0  0  0  0  0  0  0  0
   -0.0688   -1.4010   -5.6537 N   0  0  0  1  0  0  0  0  0  0  0  0
   -0.0256   -1.9781   -4.3778 N   0  0  0  1  0  0  0  0  0  0  0  0
   -0.7659   -3.1434   -4.0284 C   0  0  0  1  0  0  0  0  0  0  0  0
   -1.6858   -3.0946   -2.9981 C   0  0  0  1  0  0  0  0  0  0  0  0
   -2.4103   -4.2274   -2.6617 C   0  0  0  1  0  0  0  0  0  0  0  0
   -2.2088   -5.4073   -3.3529 C   0  0  0  1  0  0  0  0  0  0  0  0
   -1.2861   -5.4560   -4.3863 C   0  0  0  1  0  0  0  0  0  0  0  0
   -0.5637   -4.3266   -4.7219 C   0  0  0  1  0  0  0  0  0  0  0  0
   -2.9128   -6.5153   -3.0207 O   0  0  0  1  0  0  0  0  0  0  0  0
   -2.6489   -7.7103   -3.7723 C   0  0  0  1  0  0  0  0  0  0  0  0
    3.4021    1.5037   -2.1501 N   0  0  0  1  0  0  0  0  0  0  0  0
    4.0764    2.5086   -2.9626 C   0  0  0  1  0  0  0  0  0  0  0  0
    3.2196    3.8196   -3.0467 C   0  0  0  1  0  0  0  0  0  0  0  0
    4.1211    4.9829   -2.5936 C   0  0  0  1  0  0  0  0  0  0  0  0
    5.1148    4.2858   -1.6048 C   0  0  0  1  0  0  0  0  0  0  0  0
    5.3807    2.9473   -2.3046 C   0  0  0  1  0  0  0  0  0  0  0  0
    4.8484    5.5840   -3.7535 N   0  0  0  1  0  0  0  0  0  0  0  0
    0.9316   -2.0526   -1.6522 H   0  0  0  1  0  0  0  0  0  0  0  0
    0.8530    0.2620   -6.5152 H   0  0  0  1  0  0  0  0  0  0  0  0
   -1.8346   -2.2078   -2.4754 H   0  0  0  1  0  0  0  0  0  0  0  0
   -3.1054   -4.1896   -1.8891 H   0  0  0  1  0  0  0  0  0  0  0  0
   -1.1374   -6.3428   -4.9090 H   0  0  0  1  0  0  0  0  0  0  0  0
    0.1314   -4.3643   -5.4945 H   0  0  0  1  0  0  0  0  0  0  0  0
   -3.2585   -7.7212   -4.6515 H   0  0  0  1  0  0  0  0  0  0  0  0
   -2.8745   -8.5664   -3.1715 H   0  0  0  1  0  0  0  0  0  0  0  0
   -1.6168   -7.7336   -4.0539 H   0  0  0  1  0  0  0  0  0  0  0  0
    3.5872    1.4888   -1.1879 H   0  0  0  1  0  0  0  0  0  0  0  0
    4.2600    2.1133   -3.9397 H   0  0  0  1  0  0  0  0  0  0  0  0
    2.8928    3.9797   -4.0529 H   0  0  0  1  0  0  0  0  0  0  0  0
    2.3685    3.7431   -2.4026 H   0  0  0  1  0  0  0  0  0  0  0  0
    3.5518    5.7408   -2.0973 H   0  0  0  1  0  0  0  0  0  0  0  0
    6.0159    4.8526   -1.4964 H   0  0  0  1  0  0  0  0  0  0  0  0
    4.6673    4.1391   -0.6441 H   0  0  0  1  0  0  0  0  0  0  0  0
    6.1420    3.0679   -3.0468 H   0  0  0  1  0  0  0  0  0  0  0  0
    5.6927    2.2161   -1.5884 H   0  0  0  1  0  0  0  0  0  0  0  0
    5.3945    4.8965   -4.1891 H   0  0  0  1  0  0  0  0  0  0  0  0
    5.4274    6.3081   -3.4360 H   0  0  0  1  0  0  0  0  0  0  0  0
  1  2  4  0  0  0  0
  1  6  4  0  0  0  0
  2  3  4  0  0  0  0
  2 18  1  0  0  0  0
  3  4  4  0  0  0  0
  4  5  4  0  0  0  0
  4  7  4  0  0  0  0
  5  6  4  0  0  0  0
  5  9  4  0  0  0  0
  6 25  1  0  0  0  0
  7  8  4  0  0  0  0
  7 26  1  0  0  0  0
  8  9  4  0  0  0  0
  9 10  1  0  0  0  0
 10 11  4  0  0  0  0
 10 15  4  0  0  0  0
 11 12  4  0  0  0  0
 11 27  1  0  0  0  0
 12 13  4  0  0  0  0
 12 28  1  0  0  0  0
 13 14  4  0  0  0  0
 13 16  1  0  0  0  0
 14 15  4  0  0  0  0
 14 29  1  0  0  0  0
 15 30  1  0  0  0  0
 16 17  1  0  0  0  0
 17 31  1  0  0  0  0
 17 32  1  0  0  0  0
 17 33  1  0  0  0  0
 18 19  1  0  0  0  0
 18 34  1  0  0  0  0
 19 20  1  0  0  0  0
 19 23  1  0  0  0  0
 19 35  1  0  0  0  0
 20 21  1  0  0  0  0
 20 36  1  0  0  0  0
 20 37  1  0  0  0  0
 21 22  1  0  0  0  0
 21 24  1  0  0  0  0
 21 38  1  0  0  0  0
 22 23  1  0  0  0  0
 22 39  1  0  0  0  0
 22 40  1  0  0  0  0
 23 41  1  0  0  0  0
 23 42  1  0  0  0  0
 24 43  1  0  0  0  0
 24 44  1  0  0  0  0
M  END
> <ConfClashScore>
0 

> <ConfOneFourInteractionScore>
-0.984337 

> <ConfScore>
-0.0638817 

> <ConfScorePBest>
0.00411303 

> <ConfTolerance>
0.420819 

$$$$
c13.sdf
 OpenBabel04162418043D

 44 47  0  0  0  0  0  0  0  0999 V2000
    2.1078   -0.3773   -1.8532 N   0  0  0  1  0  0  0  0  0  0  0  0
    2.5364    0.5907   -2.6455 C   0  0  0  1  0  0  0  0  0  0  0  0
    2.1526    0.6996   -3.8968 N   0  0  0  1  0  0  0  0  0  0  0  0
    1.2985   -0.1837   -4.4201 C   0  0  0  1  0  0  0  0  0  0  0  0
    0.8204   -1.2304   -3.6033 C   0  0  0  1  0  0  0  0  0  0  0  0
    1.2615   -1.2960   -2.2850 C   0  0  0  1  0  0  0  0  0  0  0  0
    0.7020   -0.3512   -5.6890 C   0  0  0  1  0  0  0  0  0  0  0  0
   -0.0689   -1.4010   -5.6538 N   0  0  0  1  0  0  0  0  0  0  0  0
   -0.0256   -1.9781   -4.3778 N   0  0  0  1  0  0  0  0  0  0  0  0
   -0.8395   -3.0907   -4.0236 C   0  0  0  1  0  0  0  0  0  0  0  0
   -0.7071   -4.2882   -4.7007 C   0  0  0  1  0  0  0  0  0  0  0  0
   -1.5591   -5.3437   -4.4149 C   0  0  0  1  0  0  0  0  0  0  0  0
   -2.5443   -5.1967   -3.4567 C   0  0  0  1  0  0  0  0  0  0  0  0
   -2.6769   -3.9955   -2.7777 C   0  0  0  1  0  0  0  0  0  0  0  0
   -1.8275   -2.9431   -3.0625 C   0  0  0  1  0  0  0  0  0  0  0  0
   -3.3180   -6.2920   -3.2678 O   0  0  0  1  0  0  0  0  0  0  0  0
   -4.4328   -6.1613   -2.3718 C   0  0  0  1  0  0  0  0  0  0  0  0
    3.3977    1.4989   -2.1526 N   0  0  0  1  0  0  0  0  0  0  0  0
    3.8802    1.5004   -0.7688 C   0  0  0  1  0  0  0  0  0  0  0  0
    5.3320    1.9940   -0.7127 C   0  0  0  1  0  0  0  0  0  0  0  0
    5.3004    3.2575    0.1519 C   0  0  0  1  0  0  0  0  0  0  0  0
    4.0673    3.0817    1.0449 C   0  0  0  1  0  0  0  0  0  0  0  0
    3.0609    2.4802    0.0779 C   0  0  0  1  0  0  0  0  0  0  0  0
    6.5196    3.3604    0.9651 N   0  0  0  1  0  0  0  0  0  0  0  0
    0.9316   -2.0526   -1.6522 H   0  0  0  1  0  0  0  0  0  0  0  0
    0.8530    0.2620   -6.5153 H   0  0  0  1  0  0  0  0  0  0  0  0
    0.0316   -4.3975   -5.4245 H   0  0  0  1  0  0  0  0  0  0  0  0
   -1.4569   -6.2461   -4.9215 H   0  0  0  1  0  0  0  0  0  0  0  0
   -3.4156   -3.8862   -2.0538 H   0  0  0  1  0  0  0  0  0  0  0  0
   -1.9295   -2.0405   -2.5560 H   0  0  0  1  0  0  0  0  0  0  0  0
   -5.1250   -6.9588   -2.5441 H   0  0  0  1  0  0  0  0  0  0  0  0
   -4.9194   -5.2238   -2.5428 H   0  0  0  1  0  0  0  0  0  0  0  0
   -4.0845   -6.2038   -1.3610 H   0  0  0  1  0  0  0  0  0  0  0  0
    3.7217    2.2011   -2.7545 H   0  0  0  1  0  0  0  0  0  0  0  0
    3.8090    0.5121   -0.3646 H   0  0  0  1  0  0  0  0  0  0  0  0
    5.6877    2.2225   -1.6957 H   0  0  0  1  0  0  0  0  0  0  0  0
    5.9624    1.2524   -0.2682 H   0  0  0  1  0  0  0  0  0  0  0  0
    5.2034    4.1308   -0.4586 H   0  0  0  1  0  0  0  0  0  0  0  0
    4.2687    2.4176    1.8594 H   0  0  0  1  0  0  0  0  0  0  0  0
    3.7264    4.0215    1.4263 H   0  0  0  1  0  0  0  0  0  0  0  0
    2.2873    1.9658    0.6089 H   0  0  0  1  0  0  0  0  0  0  0  0
    2.6271    3.2404   -0.5375 H   0  0  0  1  0  0  0  0  0  0  0  0
    6.6977    2.4994    1.3981 H   0  0  0  1  0  0  0  0  0  0  0  0
    6.3980    4.0511    1.6496 H   0  0  0  1  0  0  0  0  0  0  0  0
  1  2  4  0  0  0  0
  1  6  4  0  0  0  0
  2  3  4  0  0  0  0
  2 18  1  0  0  0  0
  3  4  4  0  0  0  0
  4  5  4  0  0  0  0
  4  7  4  0  0  0  0
  5  6  4  0  0  0  0
  5  9  4  0  0  0  0
  6 25  1  0  0  0  0
  7  8  4  0  0  0  0
  7 26  1  0  0  0  0
  8  9  4  0  0  0  0
  9 10  1  0  0  0  0
 10 11  4  0  0  0  0
 10 15  4  0  0  0  0
 11 12  4  0  0  0  0
 11 27  1  0  0  0  0
 12 13  4  0  0  0  0
 12 28  1  0  0  0  0
 13 14  4  0  0  0  0
 13 16  1  0  0  0  0
 14 15  4  0  0  0  0
 14 29  1  0  0  0  0
 15 30  1  0  0  0  0
 16 17  1  0  0  0  0
 17 31  1  0  0  0  0
 17 32  1  0  0  0  0
 17 33  1  0  0  0  0
 18 19  1  0  0  0  0
 18 34  1  0  0  0  0
 19 20  1  0  0  0  0
 19 23  1  0  0  0  0
 19 35  1  0  0  0  0
 20 21  1  0  0  0  0
 20 36  1  0  0  0  0
 20 37  1  0  0  0  0
 21 22  1  0  0  0  0
 21 24  1  0  0  0  0
 21 38  1  0  0  0  0
 22 23  1  0  0  0  0
 22 39  1  0  0  0  0
 22 40  1  0  0  0  0
 23 41  1  0  0  0  0
 23 42  1  0  0  0  0
 24 43  1  0  0  0  0
 24 44  1  0  0  0  0
M  END
> <ConfClashScore>
0 

> <ConfOneFourInteractionScore>
-0.984337 

> <ConfScore>
-0.0634236 

> <ConfScorePBest>
0.0040997 

> <ConfTolerance>
0.31801 

$$$$
c13.sdf
 OpenBabel04162418043D

 44 47  0  0  0  0  0  0  0  0999 V2000
    2.1080   -0.3773   -1.8532 N   0  0  0  1  0  0  0  0  0  0  0  0
    2.5363    0.5907   -2.6455 C   0  0  0  1  0  0  0  0  0  0  0  0
    2.1526    0.6996   -3.8969 N   0  0  0  1  0  0  0  0  0  0  0  0
    1.2985   -0.1838   -4.4201 C   0  0  0  1  0  0  0  0  0  0  0  0
    0.8205   -1.2305   -3.6034 C   0  0  0  1  0  0  0  0  0  0  0  0
    1.2616   -1.2960   -2.2849 C   0  0  0  1  0  0  0  0  0  0  0  0
    0.7020   -0.3512   -5.6890 C   0  0  0  1  0  0  0  0  0  0  0  0
   -0.0689   -1.4010   -5.6538 N   0  0  0  1  0  0  0  0  0  0  0  0
   -0.0256   -1.9781   -4.3778 N   0  0  0  1  0  0  0  0  0  0  0  0
   -0.6601   -3.2038   -4.1270 C   0  0  0  1  0  0  0  0  0  0  0  0
   -1.4536   -3.4654   -3.0260 C   0  0  0  1  0  0  0  0  0  0  0  0
   -2.0403   -4.7122   -2.8753 C   0  0  0  1  0  0  0  0  0  0  0  0
   -1.8276   -5.6955   -3.8230 C   0  0  0  1  0  0  0  0  0  0  0  0
   -1.0317   -5.4329   -4.9273 C   0  0  0  1  0  0  0  0  0  0  0  0
   -0.4468   -4.1898   -5.0778 C   0  0  0  1  0  0  0  0  0  0  0  0
   -2.4467   -6.8723   -3.5666 O   0  0  0  1  0  0  0  0  0  0  0  0
   -2.3831   -7.8828   -4.5851 C   0  0  0  1  0  0  0  0  0  0  0  0
    3.4218    1.5244   -2.1389 N   0  0  0  1  0  0  0  0  0  0  0  0
    3.8732    1.4232   -0.7502 C   0  0  0  1  0  0  0  0  0  0  0  0
    4.7038    2.6436   -0.3459 C   0  0  0  1  0  0  0  0  0  0  0  0
    3.6904    3.7201    0.0498 C   0  0  0  1  0  0  0  0  0  0  0  0
    2.3672    2.9938    0.3230 C   0  0  0  1  0  0  0  0  0  0  0  0
    2.6965    1.5004    0.2227 C   0  0  0  1  0  0  0  0  0  0  0  0
    4.1450    4.4268    1.2652 N   0  0  0  1  0  0  0  0  0  0  0  0
    0.9317   -2.0526   -1.6522 H   0  0  0  1  0  0  0  0  0  0  0  0
    0.8529    0.2621   -6.5152 H   0  0  0  1  0  0  0  0  0  0  0  0
   -1.6104   -2.7269   -2.3107 H   0  0  0  1  0  0  0  0  0  0  0  0
   -2.6406   -4.9078   -2.0488 H   0  0  0  1  0  0  0  0  0  0  0  0
   -0.8750   -6.1714   -5.6426 H   0  0  0  1  0  0  0  0  0  0  0  0
    0.1536   -3.9941   -5.9042 H   0  0  0  1  0  0  0  0  0  0  0  0
   -1.3738   -7.9835   -4.9258 H   0  0  0  1  0  0  0  0  0  0  0  0
   -3.0098   -7.6018   -5.4056 H   0  0  0  1  0  0  0  0  0  0  0  0
   -2.7183   -8.8158   -4.1828 H   0  0  0  1  0  0  0  0  0  0  0  0
    3.7465    2.2526   -2.7087 H   0  0  0  1  0  0  0  0  0  0  0  0
    4.4262    0.5166   -0.6195 H   0  0  0  1  0  0  0  0  0  0  0  0
    5.3011    2.9776   -1.1684 H   0  0  0  1  0  0  0  0  0  0  0  0
    5.3379    2.4056    0.4826 H   0  0  0  1  0  0  0  0  0  0  0  0
    3.5681    4.4231   -0.7475 H   0  0  0  1  0  0  0  0  0  0  0  0
    2.0040    3.2324    1.3008 H   0  0  0  1  0  0  0  0  0  0  0  0
    1.6333    3.2654   -0.4067 H   0  0  0  1  0  0  0  0  0  0  0  0
    1.8579    0.9545   -0.1565 H   0  0  0  1  0  0  0  0  0  0  0  0
    2.9730    1.1105    1.1800 H   0  0  0  1  0  0  0  0  0  0  0  0
    3.5756    5.2091    1.4210 H   0  0  0  1  0  0  0  0  0  0  0  0
    5.0733    4.7172    1.1460 H   0  0  0  1  0  0  0  0  0  0  0  0
  1  2  4  0  0  0  0
  1  6  4  0  0  0  0
  2  3  4  0  0  0  0
  2 18  1  0  0  0  0
  3  4  4  0  0  0  0
  4  5  4  0  0  0  0
  4  7  4  0  0  0  0
  5  6  4  0  0  0  0
  5  9  4  0  0  0  0
  6 25  1  0  0  0  0
  7  8  4  0  0  0  0
  7 26  1  0  0  0  0
  8  9  4  0  0  0  0
  9 10  1  0  0  0  0
 10 11  4  0  0  0  0
 10 15  4  0  0  0  0
 11 12  4  0  0  0  0
 11 27  1  0  0  0  0
 12 13  4  0  0  0  0
 12 28  1  0  0  0  0
 13 14  4  0  0  0  0
 13 16  1  0  0  0  0
 14 15  4  0  0  0  0
 14 29  1  0  0  0  0
 15 30  1  0  0  0  0
 16 17  1  0  0  0  0
 17 31  1  0  0  0  0
 17 32  1  0  0  0  0
 17 33  1  0  0  0  0
 18 19  1  0  0  0  0
 18 34  1  0  0  0  0
 19 20  1  0  0  0  0
 19 23  1  0  0  0  0
 19 35  1  0  0  0  0
 20 21  1  0  0  0  0
 20 36  1  0  0  0  0
 20 37  1  0  0  0  0
 21 22  1  0  0  0  0
 21 24  1  0  0  0  0
 21 38  1  0  0  0  0
 22 23  1  0  0  0  0
 22 39  1  0  0  0  0
 22 40  1  0  0  0  0
 23 41  1  0  0  0  0
 23 42  1  0  0  0  0
 24 43  1  0  0  0  0
 24 44  1  0  0  0  0
M  END
> <ConfClashScore>
0 

> <ConfOneFourInteractionScore>
-0.981848 

> <ConfScore>
-0.0628885 

> <ConfScorePBest>
0.00408638 

> <ConfTolerance>
0.356148 

$$$$
c13.sdf
 OpenBabel04162418043D

 44 47  0  0  0  0  0  0  0  0999 V2000
    2.1079   -0.3773   -1.8532 N   0  0  0  1  0  0  0  0  0  0  0  0
    2.5363    0.5907   -2.6455 C   0  0  0  1  0  0  0  0  0  0  0  0
    2.1525    0.6996   -3.8968 N   0  0  0  1  0  0  0  0  0  0  0  0
    1.2986   -0.1837   -4.4201 C   0  0  0  1  0  0  0  0  0  0  0  0
    0.8205   -1.2305   -3.6033 C   0  0  0  1  0  0  0  0  0  0  0  0
    1.2615   -1.2960   -2.2850 C   0  0  0  1  0  0  0  0  0  0  0  0
    0.7018   -0.3513   -5.6890 C   0  0  0  1  0  0  0  0  0  0  0  0
   -0.0689   -1.4010   -5.6537 N   0  0  0  1  0  0  0  0  0  0  0  0
   -0.0256   -1.9781   -4.3778 N   0  0  0  1  0  0  0  0  0  0  0  0
   -0.7287   -3.1948   -4.1523 C   0  0  0  1  0  0  0  0  0  0  0  0
   -0.4488   -4.3076   -4.9226 C   0  0  0  1  0  0  0  0  0  0  0  0
   -1.1298   -5.4941   -4.6993 C   0  0  0  1  0  0  0  0  0  0  0  0
   -2.0927   -5.5629   -3.7101 C   0  0  0  1  0  0  0  0  0  0  0  0
   -2.3734   -4.4465   -2.9376 C   0  0  0  1  0  0  0  0  0  0  0  0
   -1.6943   -3.2635   -3.1601 C   0  0  0  1  0  0  0  0  0  0  0  0
   -2.8249   -6.6833   -3.5579 O   0  0  0  1  0  0  0  0  0  0  0  0
   -2.3744   -7.8190   -4.3324 C   0  0  0  1  0  0  0  0  0  0  0  0
    3.3976    1.4989   -2.1527 N   0  0  0  1  0  0  0  0  0  0  0  0
    3.9772    1.4299   -0.8080 C   0  0  0  1  0  0  0  0  0  0  0  0
    4.9036    2.6630   -0.5345 C   0  0  0  1  0  0  0  0  0  0  0  0
    4.9164    2.7556    1.0287 C   0  0  0  1  0  0  0  0  0  0  0  0
    3.5749    2.1376    1.5138 C   0  0  0  1  0  0  0  0  0  0  0  0
    2.8827    1.5534    0.2697 C   0  0  0  1  0  0  0  0  0  0  0  0
    6.0821    1.9780    1.5882 N   0  0  0  1  0  0  0  0  0  0  0  0
    0.9317   -2.0527   -1.6522 H   0  0  0  1  0  0  0  0  0  0  0  0
    0.8528    0.2620   -6.5153 H   0  0  0  1  0  0  0  0  0  0  0  0
    0.2729   -4.2549   -5.6696 H   0  0  0  1  0  0  0  0  0  0  0  0
   -0.9164   -6.3326   -5.2763 H   0  0  0  1  0  0  0  0  0  0  0  0
   -3.0949   -4.4993   -2.1905 H   0  0  0  1  0  0  0  0  0  0  0  0
   -1.9078   -2.4249   -2.5832 H   0  0  0  1  0  0  0  0  0  0  0  0
   -1.4187   -8.1395   -3.9735 H   0  0  0  1  0  0  0  0  0  0  0  0
   -2.2929   -7.5386   -5.3618 H   0  0  0  1  0  0  0  0  0  0  0  0
   -3.0784   -8.6188   -4.2348 H   0  0  0  1  0  0  0  0  0  0  0  0
    3.6528    2.2512   -2.7266 H   0  0  0  1  0  0  0  0  0  0  0  0
    4.5188    0.5135   -0.6991 H   0  0  0  1  0  0  0  0  0  0  0  0
    4.4975    3.5525   -0.9687 H   0  0  0  1  0  0  0  0  0  0  0  0
    5.8886    2.4959   -0.9175 H   0  0  0  1  0  0  0  0  0  0  0  0
    4.9869    3.7772    1.3385 H   0  0  0  1  0  0  0  0  0  0  0  0
    3.7624    1.3639    2.2289 H   0  0  0  1  0  0  0  0  0  0  0  0
    2.9601    2.8925    1.9576 H   0  0  0  1  0  0  0  0  0  0  0  0
    2.1048    2.2078   -0.0642 H   0  0  0  1  0  0  0  0  0  0  0  0
    2.4696    0.5916    0.4915 H   0  0  0  1  0  0  0  0  0  0  0  0
    6.0701    2.0295    2.5667 H   0  0  0  1  0  0  0  0  0  0  0  0
    6.9200    2.3585    1.2516 H   0  0  0  1  0  0  0  0  0  0  0  0
  1  2  4  0  0  0  0
  1  6  4  0  0  0  0
  2  3  4  0  0  0  0
  2 18  1  0  0  0  0
  3  4  4  0  0  0  0
  4  5  4  0  0  0  0
  4  7  4  0  0  0  0
  5  6  4  0  0  0  0
  5  9  4  0  0  0  0
  6 25  1  0  0  0  0
  7  8  4  0  0  0  0
  7 26  1  0  0  0  0
  8  9  4  0  0  0  0
  9 10  1  0  0  0  0
 10 11  4  0  0  0  0
 10 15  4  0  0  0  0
 11 12  4  0  0  0  0
 11 27  1  0  0  0  0
 12 13  4  0  0  0  0
 12 28  1  0  0  0  0
 13 14  4  0  0  0  0
 13 16  1  0  0  0  0
 14 15  4  0  0  0  0
 14 29  1  0  0  0  0
 15 30  1  0  0  0  0
 16 17  1  0  0  0  0
 17 31  1  0  0  0  0
 17 32  1  0  0  0  0
 17 33  1  0  0  0  0
 18 19  1  0  0  0  0
 18 34  1  0  0  0  0
 19 20  1  0  0  0  0
 19 23  1  0  0  0  0
 19 35  1  0  0  0  0
 20 21  1  0  0  0  0
 20 36  1  0  0  0  0
 20 37  1  0  0  0  0
 21 22  1  0  0  0  0
 21 24  1  0  0  0  0
 21 38  1  0  0  0  0
 22 23  1  0  0  0  0
 22 39  1  0  0  0  0
 22 40  1  0  0  0  0
 23 41  1  0  0  0  0
 23 42  1  0  0  0  0
 24 43  1  0  0  0  0
 24 44  1  0  0  0  0
M  END
> <ConfClashScore>
0 

> <ConfOneFourInteractionScore>
-0.981848 

> <ConfScore>
-0.0628885 

> <ConfScorePBest>
0.00407305 

> <ConfTolerance>
0.277137 

$$$$
c13.sdf
 OpenBabel04162418043D

 44 47  0  0  0  0  0  0  0  0999 V2000
    2.1079   -0.3773   -1.8532 N   0  0  0  1  0  0  0  0  0  0  0  0
    2.5364    0.5907   -2.6455 C   0  0  0  1  0  0  0  0  0  0  0  0
    2.1526    0.6996   -3.8968 N   0  0  0  1  0  0  0  0  0  0  0  0
    1.2985   -0.1838   -4.4201 C   0  0  0  1  0  0  0  0  0  0  0  0
    0.8204   -1.2304   -3.6033 C   0  0  0  1  0  0  0  0  0  0  0  0
    1.2615   -1.2961   -2.2850 C   0  0  0  1  0  0  0  0  0  0  0  0
    0.7019   -0.3513   -5.6890 C   0  0  0  1  0  0  0  0  0  0  0  0
   -0.0689   -1.4010   -5.6538 N   0  0  0  1  0  0  0  0  0  0  0  0
   -0.0256   -1.9781   -4.3778 N   0  0  0  1  0  0  0  0  0  0  0  0
   -0.8395   -3.0906   -4.0236 C   0  0  0  1  0  0  0  0  0  0  0  0
   -0.3349   -4.0827   -3.2042 C   0  0  0  1  0  0  0  0  0  0  0  0
   -1.1293   -5.1635   -2.8549 C   0  0  0  1  0  0  0  0  0  0  0  0
   -2.4241   -5.2519   -3.3303 C   0  0  0  1  0  0  0  0  0  0  0  0
   -2.9300   -4.2569   -4.1520 C   0  0  0  1  0  0  0  0  0  0  0  0
   -2.1380   -3.1791   -4.5004 C   0  0  0  1  0  0  0  0  0  0  0  0
   -3.2257   -6.2613   -2.9149 O   0  0  0  1  0  0  0  0  0  0  0  0
   -2.6448   -7.2449   -2.0444 C   0  0  0  1  0  0  0  0  0  0  0  0
    3.3929    1.4938   -2.1553 N   0  0  0  1  0  0  0  0  0  0  0  0
    3.7579    2.7730   -2.7729 C   0  0  0  1  0  0  0  0  0  0  0  0
    2.9713    3.9687   -2.1167 C   0  0  0  1  0  0  0  0  0  0  0  0
    3.8754    5.1808   -2.5105 C   0  0  0  1  0  0  0  0  0  0  0  0
    5.3073    4.6507   -2.6108 C   0  0  0  1  0  0  0  0  0  0  0  0
    5.2053    3.1378   -2.4726 C   0  0  0  1  0  0  0  0  0  0  0  0
    3.4447    5.7354   -3.8152 N   0  0  0  1  0  0  0  0  0  0  0  0
    0.9317   -2.0526   -1.6523 H   0  0  0  1  0  0  0  0  0  0  0  0
    0.8528    0.2621   -6.5153 H   0  0  0  1  0  0  0  0  0  0  0  0
    0.6407   -4.0182   -2.8497 H   0  0  0  1  0  0  0  0  0  0  0  0
   -0.7511   -5.9080   -2.2350 H   0  0  0  1  0  0  0  0  0  0  0  0
   -3.9057   -4.3213   -4.5065 H   0  0  0  1  0  0  0  0  0  0  0  0
   -2.5162   -2.4346   -5.1203 H   0  0  0  1  0  0  0  0  0  0  0  0
   -3.4164   -7.7139   -1.4703 H   0  0  0  1  0  0  0  0  0  0  0  0
   -1.9484   -6.7703   -1.3851 H   0  0  0  1  0  0  0  0  0  0  0  0
   -2.1369   -7.9830   -2.6293 H   0  0  0  1  0  0  0  0  0  0  0  0
    3.8185    1.2795   -1.2990 H   0  0  0  1  0  0  0  0  0  0  0  0
    3.5808    2.7242   -3.8270 H   0  0  0  1  0  0  0  0  0  0  0  0
    2.9052    3.8581   -1.0546 H   0  0  0  1  0  0  0  0  0  0  0  0
    1.9881    4.0634   -2.5280 H   0  0  0  1  0  0  0  0  0  0  0  0
    3.8165    5.9427   -1.7616 H   0  0  0  1  0  0  0  0  0  0  0  0
    5.9094    5.0560   -1.8247 H   0  0  0  1  0  0  0  0  0  0  0  0
    5.7340    4.9095   -3.5573 H   0  0  0  1  0  0  0  0  0  0  0  0
    5.8598    2.6581   -3.1702 H   0  0  0  1  0  0  0  0  0  0  0  0
    5.4630    2.8393   -1.4779 H   0  0  0  1  0  0  0  0  0  0  0  0
    2.5454    6.1152   -3.7284 H   0  0  0  1  0  0  0  0  0  0  0  0
    3.4339    5.0210   -4.4860 H   0  0  0  1  0  0  0  0  0  0  0  0
  1  2  4  0  0  0  0
  1  6  4  0  0  0  0
  2  3  4  0  0  0  0
  2 18  1  0  0  0  0
  3  4  4  0  0  0  0
  4  5  4  0  0  0  0
  4  7  4  0  0  0  0
  5  6  4  0  0  0  0
  5  9  4  0  0  0  0
  6 25  1  0  0  0  0
  7  8  4  0  0  0  0
  7 26  1  0  0  0  0
  8  9  4  0  0  0  0
  9 10  1  0  0  0  0
 10 11  4  0  0  0  0
 10 15  4  0  0  0  0
 11 12  4  0  0  0  0
 11 27  1  0  0  0  0
 12 13  4  0  0  0  0
 12 28  1  0  0  0  0
 13 14  4  0  0  0  0
 13 16  1  0  0  0  0
 14 15  4  0  0  0  0
 14 29  1  0  0  0  0
 15 30  1  0  0  0  0
 16 17  1  0  0  0  0
 17 31  1  0  0  0  0
 17 32  1  0  0  0  0
 17 33  1  0  0  0  0
 18 19  1  0  0  0  0
 18 34  1  0  0  0  0
 19 20  1  0  0  0  0
 19 23  1  0  0  0  0
 19 35  1  0  0  0  0
 20 21  1  0  0  0  0
 20 36  1  0  0  0  0
 20 37  1  0  0  0  0
 21 22  1  0  0  0  0
 21 24  1  0  0  0  0
 21 38  1  0  0  0  0
 22 23  1  0  0  0  0
 22 39  1  0  0  0  0
 22 40  1  0  0  0  0
 23 41  1  0  0  0  0
 23 42  1  0  0  0  0
 24 43  1  0  0  0  0
 24 44  1  0  0  0  0
M  END
> <ConfClashScore>
0 

> <ConfOneFourInteractionScore>
-0.984337 

> <ConfScore>
-0.0622271 

> <ConfScorePBest>
0.00405972 

> <ConfTolerance>
0.310127 

$$$$
c13.sdf
 OpenBabel04162418043D

 44 47  0  0  0  0  0  0  0  0999 V2000
    2.1080   -0.3774   -1.8532 N   0  0  0  1  0  0  0  0  0  0  0  0
    2.5364    0.5907   -2.6455 C   0  0  0  1  0  0  0  0  0  0  0  0
    2.1526    0.6996   -3.8968 N   0  0  0  1  0  0  0  0  0  0  0  0
    1.2985   -0.1838   -4.4201 C   0  0  0  1  0  0  0  0  0  0  0  0
    0.8204   -1.2305   -3.6033 C   0  0  0  1  0  0  0  0  0  0  0  0
    1.2616   -1.2961   -2.2850 C   0  0  0  1  0  0  0  0  0  0  0  0
    0.7019   -0.3513   -5.6889 C   0  0  0  1  0  0  0  0  0  0  0  0
   -0.0690   -1.4010   -5.6537 N   0  0  0  1  0  0  0  0  0  0  0  0
   -0.0256   -1.9781   -4.3778 N   0  0  0  1  0  0  0  0  0  0  0  0
   -0.8022   -3.1445   -4.1240 C   0  0  0  1  0  0  0  0  0  0  0  0
   -0.5011   -3.9538   -3.0449 C   0  0  0  1  0  0  0  0  0  0  0  0
   -1.2604   -5.0862   -2.7948 C   0  0  0  1  0  0  0  0  0  0  0  0
   -2.3151   -5.4091   -3.6276 C   0  0  0  1  0  0  0  0  0  0  0  0
   -2.6170   -4.5973   -4.7100 C   0  0  0  1  0  0  0  0  0  0  0  0
   -1.8600   -3.4682   -4.9594 C   0  0  0  1  0  0  0  0  0  0  0  0
   -2.9941   -6.5664   -3.4447 O   0  0  0  1  0  0  0  0  0  0  0  0
   -3.9139   -6.9575   -4.4759 C   0  0  0  1  0  0  0  0  0  0  0  0
    3.4117    1.5445   -2.2067 N   0  0  0  1  0  0  0  0  0  0  0  0
    3.8709    1.5871   -0.8146 C   0  0  0  1  0  0  0  0  0  0  0  0
    4.3208    0.1629   -0.3356 C   0  0  0  1  0  0  0  0  0  0  0  0
    5.7566    0.2965    0.2048 C   0  0  0  1  0  0  0  0  0  0  0  0
    6.3275    1.4966   -0.6227 C   0  0  0  1  0  0  0  0  0  0  0  0
    5.1249    2.4459   -0.6866 C   0  0  0  1  0  0  0  0  0  0  0  0
    5.7547    0.6035    1.6664 N   0  0  0  1  0  0  0  0  0  0  0  0
    0.9318   -2.0527   -1.6523 H   0  0  0  1  0  0  0  0  0  0  0  0
    0.8529    0.2621   -6.5152 H   0  0  0  1  0  0  0  0  0  0  0  0
    0.2951   -3.7131   -2.4205 H   0  0  0  1  0  0  0  0  0  0  0  0
   -1.0363   -5.6930   -1.9804 H   0  0  0  1  0  0  0  0  0  0  0  0
   -3.4131   -4.8380   -5.3343 H   0  0  0  1  0  0  0  0  0  0  0  0
   -2.0840   -2.8614   -5.7738 H   0  0  0  1  0  0  0  0  0  0  0  0
   -4.5032   -6.1135   -4.7679 H   0  0  0  1  0  0  0  0  0  0  0  0
   -4.5559   -7.7298   -4.1067 H   0  0  0  1  0  0  0  0  0  0  0  0
   -3.3680   -7.3208   -5.3214 H   0  0  0  1  0  0  0  0  0  0  0  0
    3.7408    2.2174   -2.8387 H   0  0  0  1  0  0  0  0  0  0  0  0
    3.0879    1.9657   -0.1916 H   0  0  0  1  0  0  0  0  0  0  0  0
    3.6691   -0.1864    0.4379 H   0  0  0  1  0  0  0  0  0  0  0  0
    4.3007   -0.5232   -1.1565 H   0  0  0  1  0  0  0  0  0  0  0  0
    6.3195   -0.5961    0.0280 H   0  0  0  1  0  0  0  0  0  0  0  0
    7.1561    1.9532   -0.1229 H   0  0  0  1  0  0  0  0  0  0  0  0
    6.6282    1.1850   -1.6012 H   0  0  0  1  0  0  0  0  0  0  0  0
    5.2137    3.0918   -1.5350 H   0  0  0  1  0  0  0  0  0  0  0  0
    5.0755    3.0338    0.2062 H   0  0  0  1  0  0  0  0  0  0  0  0
    5.2170   -0.0648    2.1404 H   0  0  0  1  0  0  0  0  0  0  0  0
    5.3721    1.4937    1.8126 H   0  0  0  1  0  0  0  0  0  0  0  0
  1  2  4  0  0  0  0
  1  6  4  0  0  0  0
  2  3  4  0  0  0  0
  2 18  1  0  0  0  0
  3  4  4  0  0  0  0
  4  5  4  0  0  0  0
  4  7  4  0  0  0  0
  5  6  4  0  0  0  0
  5  9  4  0  0  0  0
  6 25  1  0  0  0  0
  7  8  4  0  0  0  0
  7 26  1  0  0  0  0
  8  9  4  0  0  0  0
  9 10  1  0  0  0  0
 10 11  4  0  0  0  0
 10 15  4  0  0  0  0
 11 12  4  0  0  0  0
 11 27  1  0  0  0  0
 12 13  4  0  0  0  0
 12 28  1  0  0  0  0
 13 14  4  0  0  0  0
 13 16  1  0  0  0  0
 14 15  4  0  0  0  0
 14 29  1  0  0  0  0
 15 30  1  0  0  0  0
 16 17  1  0  0  0  0
 17 31  1  0  0  0  0
 17 32  1  0  0  0  0
 17 33  1  0  0  0  0
 18 19  1  0  0  0  0
 18 34  1  0  0  0  0
 19 20  1  0  0  0  0
 19 23  1  0  0  0  0
 19 35  1  0  0  0  0
 20 21  1  0  0  0  0
 20 36  1  0  0  0  0
 20 37  1  0  0  0  0
 21 22  1  0  0  0  0
 21 24  1  0  0  0  0
 21 38  1  0  0  0  0
 22 23  1  0  0  0  0
 22 39  1  0  0  0  0
 22 40  1  0  0  0  0
 23 41  1  0  0  0  0
 23 42  1  0  0  0  0
 24 43  1  0  0  0  0
 24 44  1  0  0  0  0
M  END
> <ConfClashScore>
0 

> <ConfOneFourInteractionScore>
-0.985399 

> <ConfScore>
-0.0617123 

> <ConfScorePBest>
0.00404639 

> <ConfTolerance>
0.354867 

$$$$
c13.sdf
 OpenBabel04162418043D

 44 47  0  0  0  0  0  0  0  0999 V2000
    2.1079   -0.3774   -1.8532 N   0  0  0  1  0  0  0  0  0  0  0  0
    2.5363    0.5907   -2.6455 C   0  0  0  1  0  0  0  0  0  0  0  0
    2.1526    0.6996   -3.8968 N   0  0  0  1  0  0  0  0  0  0  0  0
    1.2986   -0.1837   -4.4201 C   0  0  0  1  0  0  0  0  0  0  0  0
    0.8204   -1.2305   -3.6033 C   0  0  0  1  0  0  0  0  0  0  0  0
    1.2615   -1.2960   -2.2849 C   0  0  0  1  0  0  0  0  0  0  0  0
    0.7020   -0.3514   -5.6890 C   0  0  0  1  0  0  0  0  0  0  0  0
   -0.0688   -1.4011   -5.6537 N   0  0  0  1  0  0  0  0  0  0  0  0
   -0.0256   -1.9781   -4.3778 N   0  0  0  1  0  0  0  0  0  0  0  0
   -0.7969   -3.1366   -4.1257 C   0  0  0  1  0  0  0  0  0  0  0  0
   -0.4954   -3.9462   -3.0469 C   0  0  0  1  0  0  0  0  0  0  0  0
   -1.2548   -5.0786   -2.7968 C   0  0  0  1  0  0  0  0  0  0  0  0
   -2.3099   -5.4011   -3.6293 C   0  0  0  1  0  0  0  0  0  0  0  0
   -2.6120   -4.5891   -4.7113 C   0  0  0  1  0  0  0  0  0  0  0  0
   -1.8550   -3.4600   -4.9608 C   0  0  0  1  0  0  0  0  0  0  0  0
   -3.1160   -6.4802   -3.4887 O   0  0  0  1  0  0  0  0  0  0  0  0
   -3.0670   -7.1769   -2.2339 C   0  0  0  1  0  0  0  0  0  0  0  0
    3.4219    1.5245   -2.1387 N   0  0  0  1  0  0  0  0  0  0  0  0
    3.9071    2.5611   -3.0392 C   0  0  0  1  0  0  0  0  0  0  0  0
    2.7313    3.3559   -3.6122 C   0  0  0  1  0  0  0  0  0  0  0  0
    3.1707    4.8218   -3.5831 C   0  0  0  1  0  0  0  0  0  0  0  0
    3.9981    4.8825   -2.2989 C   0  0  0  1  0  0  0  0  0  0  0  0
    4.7784    3.5637   -2.2720 C   0  0  0  1  0  0  0  0  0  0  0  0
    3.9989    5.1633   -4.7781 N   0  0  0  1  0  0  0  0  0  0  0  0
    0.9317   -2.0526   -1.6522 H   0  0  0  1  0  0  0  0  0  0  0  0
    0.8530    0.2620   -6.5152 H   0  0  0  1  0  0  0  0  0  0  0  0
    0.3009   -3.7057   -2.4228 H   0  0  0  1  0  0  0  0  0  0  0  0
   -1.0304   -5.6857   -1.9827 H   0  0  0  1  0  0  0  0  0  0  0  0
   -3.4085   -4.8295   -5.3355 H   0  0  0  1  0  0  0  0  0  0  0  0
   -2.0793   -2.8529   -5.7749 H   0  0  0  1  0  0  0  0  0  0  0  0
   -3.8093   -7.9475   -2.2239 H   0  0  0  1  0  0  0  0  0  0  0  0
   -3.2566   -6.4890   -1.4365 H   0  0  0  1  0  0  0  0  0  0  0  0
   -2.0984   -7.6133   -2.1061 H   0  0  0  1  0  0  0  0  0  0  0  0
    3.7135    1.4897   -1.2038 H   0  0  0  1  0  0  0  0  0  0  0  0
    4.4701    2.1120   -3.8305 H   0  0  0  1  0  0  0  0  0  0  0  0
    1.8577    3.2161   -3.0105 H   0  0  0  1  0  0  0  0  0  0  0  0
    2.5266    3.0477   -4.6162 H   0  0  0  1  0  0  0  0  0  0  0  0
    2.3276    5.4789   -3.5332 H   0  0  0  1  0  0  0  0  0  0  0  0
    4.6683    5.7163   -2.3219 H   0  0  0  1  0  0  0  0  0  0  0  0
    3.3603    4.9604   -1.4433 H   0  0  0  1  0  0  0  0  0  0  0  0
    4.9265    3.2367   -1.2640 H   0  0  0  1  0  0  0  0  0  0  0  0
    5.7272    3.6800   -2.7528 H   0  0  0  1  0  0  0  0  0  0  0  0
    4.7776    4.5696   -4.8169 H   0  0  0  1  0  0  0  0  0  0  0  0
    4.3004    6.0934   -4.7113 H   0  0  0  1  0  0  0  0  0  0  0  0
  1  2  4  0  0  0  0
  1  6  4  0  0  0  0
  2  3  4  0  0  0  0
  2 18  1  0  0  0  0
  3  4  4  0  0  0  0
  4  5  4  0  0  0  0
  4  7  4  0  0  0  0
  5  6  4  0  0  0  0
  5  9  4  0  0  0  0
  6 25  1  0  0  0  0
  7  8  4  0  0  0  0
  7 26  1  0  0  0  0
  8  9  4  0  0  0  0
  9 10  1  0  0  0  0
 10 11  4  0  0  0  0
 10 15  4  0  0  0  0
 11 12  4  0  0  0  0
 11 27  1  0  0  0  0
 12 13  4  0  0  0  0
 12 28  1  0  0  0  0
 13 14  4  0  0  0  0
 13 16  1  0  0  0  0
 14 15  4  0  0  0  0
 14 29  1  0  0  0  0
 15 30  1  0  0  0  0
 16 17  1  0  0  0  0
 17 31  1  0  0  0  0
 17 32  1  0  0  0  0
 17 33  1  0  0  0  0
 18 19  1  0  0  0  0
 18 34  1  0  0  0  0
 19 20  1  0  0  0  0
 19 23  1  0  0  0  0
 19 35  1  0  0  0  0
 20 21  1  0  0  0  0
 20 36  1  0  0  0  0
 20 37  1  0  0  0  0
 21 22  1  0  0  0  0
 21 24  1  0  0  0  0
 21 38  1  0  0  0  0
 22 23  1  0  0  0  0
 22 39  1  0  0  0  0
 22 40  1  0  0  0  0
 23 41  1  0  0  0  0
 23 42  1  0  0  0  0
 24 43  1  0  0  0  0
 24 44  1  0  0  0  0
M  END
> <ConfClashScore>
0 

> <ConfOneFourInteractionScore>
-0.981848 

> <ConfScore>
-0.0612785 

> <ConfScorePBest>
0.00403306 

> <ConfTolerance>
0.284558 

$$$$
c13.sdf
 OpenBabel04162418043D

 44 47  0  0  0  0  0  0  0  0999 V2000
    2.1079   -0.3773   -1.8533 N   0  0  0  1  0  0  0  0  0  0  0  0
    2.5364    0.5907   -2.6455 C   0  0  0  1  0  0  0  0  0  0  0  0
    2.1525    0.6996   -3.8968 N   0  0  0  1  0  0  0  0  0  0  0  0
    1.2986   -0.1837   -4.4201 C   0  0  0  1  0  0  0  0  0  0  0  0
    0.8204   -1.2305   -3.6033 C   0  0  0  1  0  0  0  0  0  0  0  0
    1.2615   -1.2960   -2.2850 C   0  0  0  1  0  0  0  0  0  0  0  0
    0.7019   -0.3513   -5.6890 C   0  0  0  1  0  0  0  0  0  0  0  0
   -0.0689   -1.4010   -5.6538 N   0  0  0  1  0  0  0  0  0  0  0  0
   -0.0256   -1.9781   -4.3778 N   0  0  0  1  0  0  0  0  0  0  0  0
   -0.9165   -3.0099   -4.0191 C   0  0  0  1  0  0  0  0  0  0  0  0
   -0.8286   -4.2822   -4.5517 C   0  0  0  1  0  0  0  0  0  0  0  0
   -1.7281   -5.2612   -4.1596 C   0  0  0  1  0  0  0  0  0  0  0  0
   -2.7162   -4.9638   -3.2401 C   0  0  0  1  0  0  0  0  0  0  0  0
   -2.8043   -3.6876   -2.7060 C   0  0  0  1  0  0  0  0  0  0  0  0
   -1.9074   -2.7113   -3.0969 C   0  0  0  1  0  0  0  0  0  0  0  0
   -3.6281   -5.8722   -2.8195 O   0  0  0  1  0  0  0  0  0  0  0  0
   -3.6466   -7.1422   -3.4896 C   0  0  0  1  0  0  0  0  0  0  0  0
    3.4010    1.5329   -2.2121 N   0  0  0  1  0  0  0  0  0  0  0  0
    3.8337    1.6656   -0.8172 C   0  0  0  1  0  0  0  0  0  0  0  0
    5.0729    0.7430   -0.5137 C   0  0  0  1  0  0  0  0  0  0  0  0
    5.6592    1.4299    0.7613 C   0  0  0  1  0  0  0  0  0  0  0  0
    5.3192    2.9183    0.6581 C   0  0  0  1  0  0  0  0  0  0  0  0
    4.3931    3.0549   -0.5427 C   0  0  0  1  0  0  0  0  0  0  0  0
    5.0473    0.8506    1.9794 N   0  0  0  1  0  0  0  0  0  0  0  0
    0.9317   -2.0526   -1.6521 H   0  0  0  1  0  0  0  0  0  0  0  0
    0.8529    0.2620   -6.5153 H   0  0  0  1  0  0  0  0  0  0  0  0
   -0.0876   -4.5050   -5.2466 H   0  0  0  1  0  0  0  0  0  0  0  0
   -1.6595   -6.2197   -4.5574 H   0  0  0  1  0  0  0  0  0  0  0  0
   -3.5453   -3.4647   -2.0111 H   0  0  0  1  0  0  0  0  0  0  0  0
   -1.9760   -1.7528   -2.6992 H   0  0  0  1  0  0  0  0  0  0  0  0
   -3.1311   -7.8673   -2.8951 H   0  0  0  1  0  0  0  0  0  0  0  0
   -3.1625   -7.0510   -4.4395 H   0  0  0  1  0  0  0  0  0  0  0  0
   -4.6597   -7.4546   -3.6336 H   0  0  0  1  0  0  0  0  0  0  0  0
    3.7606    2.1655   -2.8685 H   0  0  0  1  0  0  0  0  0  0  0  0
    3.0146    1.4416   -0.1663 H   0  0  0  1  0  0  0  0  0  0  0  0
    4.7718   -0.2639   -0.3129 H   0  0  0  1  0  0  0  0  0  0  0  0
    5.7748    0.7516   -1.3213 H   0  0  0  1  0  0  0  0  0  0  0  0
    6.7203    1.2963    0.7966 H   0  0  0  1  0  0  0  0  0  0  0  0
    4.8255    3.2492    1.5479 H   0  0  0  1  0  0  0  0  0  0  0  0
    6.2091    3.4932    0.5085 H   0  0  0  1  0  0  0  0  0  0  0  0
    4.9393    3.4079   -1.3923 H   0  0  0  1  0  0  0  0  0  0  0  0
    3.5983    3.7361   -0.3207 H   0  0  0  1  0  0  0  0  0  0  0  0
    4.0844    1.0329    1.9801 H   0  0  0  1  0  0  0  0  0  0  0  0
    5.4563    1.2537    2.7736 H   0  0  0  1  0  0  0  0  0  0  0  0
  1  2  4  0  0  0  0
  1  6  4  0  0  0  0
  2  3  4  0  0  0  0
  2 18  1  0  0  0  0
  3  4  4  0  0  0  0
  4  5  4  0  0  0  0
  4  7  4  0  0  0  0
  5  6  4  0  0  0  0
  5  9  4  0  0  0  0
  6 25  1  0  0  0  0
  7  8  4  0  0  0  0
  7 26  1  0  0  0  0
  8  9  4  0  0  0  0
  9 10  1  0  0  0  0
 10 11  4  0  0  0  0
 10 15  4  0  0  0  0
 11 12  4  0  0  0  0
 11 27  1  0  0  0  0
 12 13  4  0  0  0  0
 12 28  1  0  0  0  0
 13 14  4  0  0  0  0
 13 16  1  0  0  0  0
 14 15  4  0  0  0  0
 14 29  1  0  0  0  0
 15 30  1  0  0  0  0
 16 17  1  0  0  0  0
 17 31  1  0  0  0  0
 17 32  1  0  0  0  0
 17 33  1  0  0  0  0
 18 19  1  0  0  0  0
 18 34  1  0  0  0  0
 19 20  1  0  0  0  0
 19 23  1  0  0  0  0
 19 35  1  0  0  0  0
 20 21  1  0  0  0  0
 20 36  1  0  0  0  0
 20 37  1  0  0  0  0
 21 22  1  0  0  0  0
 21 24  1  0  0  0  0
 21 38  1  0  0  0  0
 22 23  1  0  0  0  0
 22 39  1  0  0  0  0
 22 40  1  0  0  0  0
 23 41  1  0  0  0  0
 23 42  1  0  0  0  0
 24 43  1  0  0  0  0
 24 44  1  0  0  0  0
M  END
> <ConfClashScore>
0 

> <ConfOneFourInteractionScore>
-0.984337 

> <ConfScore>
-0.0610598 

> <ConfScorePBest>
0.00401973 

> <ConfTolerance>
0.25193 

$$$$
c13.sdf
 OpenBabel04162418043D

 44 47  0  0  0  0  0  0  0  0999 V2000
    2.1078   -0.3773   -1.8533 N   0  0  0  1  0  0  0  0  0  0  0  0
    2.5363    0.5907   -2.6455 C   0  0  0  1  0  0  0  0  0  0  0  0
    2.1525    0.6996   -3.8968 N   0  0  0  1  0  0  0  0  0  0  0  0
    1.2985   -0.1837   -4.4201 C   0  0  0  1  0  0  0  0  0  0  0  0
    0.8204   -1.2304   -3.6034 C   0  0  0  1  0  0  0  0  0  0  0  0
    1.2614   -1.2959   -2.2849 C   0  0  0  1  0  0  0  0  0  0  0  0
    0.7020   -0.3513   -5.6890 C   0  0  0  1  0  0  0  0  0  0  0  0
   -0.0689   -1.4010   -5.6538 N   0  0  0  1  0  0  0  0  0  0  0  0
   -0.0256   -1.9781   -4.3778 N   0  0  0  1  0  0  0  0  0  0  0  0
   -0.7097   -3.1878   -4.1146 C   0  0  0  1  0  0  0  0  0  0  0  0
   -1.8525   -3.5039   -4.8248 C   0  0  0  1  0  0  0  0  0  0  0  0
   -2.5198   -4.6920   -4.5707 C   0  0  0  1  0  0  0  0  0  0  0  0
   -2.0455   -5.5579   -3.6034 C   0  0  0  1  0  0  0  0  0  0  0  0
   -0.8993   -5.2407   -2.8912 C   0  0  0  1  0  0  0  0  0  0  0  0
   -0.2339   -4.0562   -3.1446 C   0  0  0  1  0  0  0  0  0  0  0  0
   -2.6132   -6.7399   -3.2651 O   0  0  0  1  0  0  0  0  0  0  0  0
   -3.8092   -7.1177   -3.9648 C   0  0  0  1  0  0  0  0  0  0  0  0
    3.3976    1.4990   -2.1526 N   0  0  0  1  0  0  0  0  0  0  0  0
    4.1029    2.5340   -2.9153 C   0  0  0  1  0  0  0  0  0  0  0  0
    5.2325    3.2097   -2.0512 C   0  0  0  1  0  0  0  0  0  0  0  0
    6.1434    3.8204   -3.1643 C   0  0  0  1  0  0  0  0  0  0  0  0
    6.0061    2.9185   -4.3927 C   0  0  0  1  0  0  0  0  0  0  0  0
    4.8971    1.9282   -4.0646 C   0  0  0  1  0  0  0  0  0  0  0  0
    5.6944    5.2084   -3.4924 N   0  0  0  1  0  0  0  0  0  0  0  0
    0.9316   -2.0525   -1.6522 H   0  0  0  1  0  0  0  0  0  0  0  0
    0.8530    0.2620   -6.5152 H   0  0  0  1  0  0  0  0  0  0  0  0
   -2.2117   -2.8505   -5.5499 H   0  0  0  1  0  0  0  0  0  0  0  0
   -3.3774   -4.9319   -5.1078 H   0  0  0  1  0  0  0  0  0  0  0  0
   -0.5401   -5.8941   -2.1663 H   0  0  0  1  0  0  0  0  0  0  0  0
    0.6238   -3.8162   -2.6074 H   0  0  0  1  0  0  0  0  0  0  0  0
   -4.0785   -8.1181   -3.6974 H   0  0  0  1  0  0  0  0  0  0  0  0
   -3.6367   -7.0649   -5.0195 H   0  0  0  1  0  0  0  0  0  0  0  0
   -4.6031   -6.4516   -3.6988 H   0  0  0  1  0  0  0  0  0  0  0  0
    3.5709    1.4655   -1.1886 H   0  0  0  1  0  0  0  0  0  0  0  0
    3.3996    3.2586   -3.2693 H   0  0  0  1  0  0  0  0  0  0  0  0
    5.7614    2.4880   -1.4645 H   0  0  0  1  0  0  0  0  0  0  0  0
    4.8346    3.9686   -1.4105 H   0  0  0  1  0  0  0  0  0  0  0  0
    7.1614    3.8427   -2.8358 H   0  0  0  1  0  0  0  0  0  0  0  0
    6.9239    2.4007   -4.5781 H   0  0  0  1  0  0  0  0  0  0  0  0
    5.7436    3.4989   -5.2524 H   0  0  0  1  0  0  0  0  0  0  0  0
    4.2649    1.7858   -4.9160 H   0  0  0  1  0  0  0  0  0  0  0  0
    5.3159    0.9887   -3.7695 H   0  0  0  1  0  0  0  0  0  0  0  0
    5.8808    5.8004   -2.7339 H   0  0  0  1  0  0  0  0  0  0  0  0
    4.7316    5.2054   -3.6752 H   0  0  0  1  0  0  0  0  0  0  0  0
  1  2  4  0  0  0  0
  1  6  4  0  0  0  0
  2  3  4  0  0  0  0
  2 18  1  0  0  0  0
  3  4  4  0  0  0  0
  4  5  4  0  0  0  0
  4  7  4  0  0  0  0
  5  6  4  0  0  0  0
  5  9  4  0  0  0  0
  6 25  1  0  0  0  0
  7  8  4  0  0  0  0
  7 26  1  0  0  0  0
  8  9  4  0  0  0  0
  9 10  1  0  0  0  0
 10 11  4  0  0  0  0
 10 15  4  0  0  0  0
 11 12  4  0  0  0  0
 11 27  1  0  0  0  0
 12 13  4  0  0  0  0
 12 28  1  0  0  0  0
 13 14  4  0  0  0  0
 13 16  1  0  0  0  0
 14 15  4  0  0  0  0
 14 29  1  0  0  0  0
 15 30  1  0  0  0  0
 16 17  1  0  0  0  0
 17 31  1  0  0  0  0
 17 32  1  0  0  0  0
 17 33  1  0  0  0  0
 18 19  1  0  0  0  0
 18 34  1  0  0  0  0
 19 20  1  0  0  0  0
 19 23  1  0  0  0  0
 19 35  1  0  0  0  0
 20 21  1  0  0  0  0
 20 36  1  0  0  0  0
 20 37  1  0  0  0  0
 21 22  1  0  0  0  0
 21 24  1  0  0  0  0
 21 38  1  0  0  0  0
 22 23  1  0  0  0  0
 22 39  1  0  0  0  0
 22 40  1  0  0  0  0
 23 41  1  0  0  0  0
 23 42  1  0  0  0  0
 24 43  1  0  0  0  0
 24 44  1  0  0  0  0
M  END
> <ConfClashScore>
0 

> <ConfOneFourInteractionScore>
-0.985399 

> <ConfScore>
-0.0608833 

> <ConfScorePBest>
0.00400641 

> <ConfTolerance>
0.294588 

$$$$
c13.sdf
 OpenBabel04162418043D

 44 47  0  0  0  0  0  0  0  0999 V2000
    2.1079   -0.3773   -1.8532 N   0  0  0  1  0  0  0  0  0  0  0  0
    2.5363    0.5907   -2.6455 C   0  0  0  1  0  0  0  0  0  0  0  0
    2.1526    0.6997   -3.8968 N   0  0  0  1  0  0  0  0  0  0  0  0
    1.2986   -0.1837   -4.4201 C   0  0  0  1  0  0  0  0  0  0  0  0
    0.8204   -1.2304   -3.6034 C   0  0  0  1  0  0  0  0  0  0  0  0
    1.2615   -1.2960   -2.2850 C   0  0  0  1  0  0  0  0  0  0  0  0
    0.7019   -0.3512   -5.6890 C   0  0  0  1  0  0  0  0  0  0  0  0
   -0.0689   -1.4010   -5.6538 N   0  0  0  1  0  0  0  0  0  0  0  0
   -0.0256   -1.9781   -4.3778 N   0  0  0  1  0  0  0  0  0  0  0  0
   -0.7806   -3.1369   -4.0811 C   0  0  0  1  0  0  0  0  0  0  0  0
   -1.5874   -3.1675   -2.9595 C   0  0  0  1  0  0  0  0  0  0  0  0
   -2.3314   -4.3010   -2.6717 C   0  0  0  1  0  0  0  0  0  0  0  0
   -2.2622   -5.4028   -3.5035 C   0  0  0  1  0  0  0  0  0  0  0  0
   -1.4529   -5.3719   -4.6285 C   0  0  0  1  0  0  0  0  0  0  0  0
   -0.7110   -4.2417   -4.9155 C   0  0  0  1  0  0  0  0  0  0  0  0
   -2.9362   -6.5634   -3.3226 O   0  0  0  1  0  0  0  0  0  0  0  0
   -4.0018   -6.5602   -2.3597 C   0  0  0  1  0  0  0  0  0  0  0  0
    3.3914    1.4696   -2.1106 N   0  0  0  1  0  0  0  0  0  0  0  0
    3.9416    2.6503   -2.7648 C   0  0  0  1  0  0  0  0  0  0  0  0
    2.8310    3.4536   -3.4364 C   0  0  0  1  0  0  0  0  0  0  0  0
    3.4567    4.8566   -3.5545 C   0  0  0  1  0  0  0  0  0  0  0  0
    4.4611    4.9623   -2.4177 C   0  0  0  1  0  0  0  0  0  0  0  0
    4.5577    3.5858   -1.7395 C   0  0  0  1  0  0  0  0  0  0  0  0
    4.1351    5.0070   -4.8530 N   0  0  0  1  0  0  0  0  0  0  0  0
    0.9318   -2.0527   -1.6522 H   0  0  0  1  0  0  0  0  0  0  0  0
    0.8529    0.2621   -6.5152 H   0  0  0  1  0  0  0  0  0  0  0  0
   -1.6364   -2.3400   -2.3313 H   0  0  0  1  0  0  0  0  0  0  0  0
   -2.9416   -4.3226   -1.8298 H   0  0  0  1  0  0  0  0  0  0  0  0
   -1.4039   -6.1994   -5.2566 H   0  0  0  1  0  0  0  0  0  0  0  0
   -0.1008   -4.2200   -5.7574 H   0  0  0  1  0  0  0  0  0  0  0  0
   -3.6258   -6.2354   -1.4121 H   0  0  0  1  0  0  0  0  0  0  0  0
   -4.3999   -7.5489   -2.2655 H   0  0  0  1  0  0  0  0  0  0  0  0
   -4.7734   -5.8938   -2.6844 H   0  0  0  1  0  0  0  0  0  0  0  0
    3.6759    1.3031   -1.1878 H   0  0  0  1  0  0  0  0  0  0  0  0
    4.6740    2.3508   -3.4851 H   0  0  0  1  0  0  0  0  0  0  0  0
    1.9488    3.4737   -2.8313 H   0  0  0  1  0  0  0  0  0  0  0  0
    2.5940    3.0540   -4.4003 H   0  0  0  1  0  0  0  0  0  0  0  0
    2.7027    5.6094   -3.4560 H   0  0  0  1  0  0  0  0  0  0  0  0
    5.4181    5.2446   -2.8042 H   0  0  0  1  0  0  0  0  0  0  0  0
    4.1319    5.6937   -1.7095 H   0  0  0  1  0  0  0  0  0  0  0  0
    4.0042    3.5697   -0.8239 H   0  0  0  1  0  0  0  0  0  0  0  0
    5.5770    3.3246   -1.5453 H   0  0  0  1  0  0  0  0  0  0  0  0
    3.4777    4.9330   -5.5760 H   0  0  0  1  0  0  0  0  0  0  0  0
    4.8100    4.3034   -4.9520 H   0  0  0  1  0  0  0  0  0  0  0  0
  1  2  4  0  0  0  0
  1  6  4  0  0  0  0
  2  3  4  0  0  0  0
  2 18  1  0  0  0  0
  3  4  4  0  0  0  0
  4  5  4  0  0  0  0
  4  7  4  0  0  0  0
  5  6  4  0  0  0  0
  5  9  4  0  0  0  0
  6 25  1  0  0  0  0
  7  8  4  0  0  0  0
  7 26  1  0  0  0  0
  8  9  4  0  0  0  0
  9 10  1  0  0  0  0
 10 11  4  0  0  0  0
 10 15  4  0  0  0  0
 11 12  4  0  0  0  0
 11 27  1  0  0  0  0
 12 13  4  0  0  0  0
 12 28  1  0  0  0  0
 13 14  4  0  0  0  0
 13 16  1  0  0  0  0
 14 15  4  0  0  0  0
 14 29  1  0  0  0  0
 15 30  1  0  0  0  0
 16 17  1  0  0  0  0
 17 31  1  0  0  0  0
 17 32  1  0  0  0  0
 17 33  1  0  0  0  0
 18 19  1  0  0  0  0
 18 34  1  0  0  0  0
 19 20  1  0  0  0  0
 19 23  1  0  0  0  0
 19 35  1  0  0  0  0
 20 21  1  0  0  0  0
 20 36  1  0  0  0  0
 20 37  1  0  0  0  0
 21 22  1  0  0  0  0
 21 24  1  0  0  0  0
 21 38  1  0  0  0  0
 22 23  1  0  0  0  0
 22 39  1  0  0  0  0
 22 40  1  0  0  0  0
 23 41  1  0  0  0  0
 23 42  1  0  0  0  0
 24 43  1  0  0  0  0
 24 44  1  0  0  0  0
M  END
> <ConfClashScore>
0 

> <ConfOneFourInteractionScore>
-0.985399 

> <ConfScore>
-0.0607766 

> <ConfScorePBest>
0.00399308 

> <ConfTolerance>
0.265749 

$$$$
c13.sdf
 OpenBabel04162418043D

 44 47  0  0  0  0  0  0  0  0999 V2000
    2.1080   -0.3774   -1.8533 N   0  0  0  1  0  0  0  0  0  0  0  0
    2.5363    0.5907   -2.6455 C   0  0  0  1  0  0  0  0  0  0  0  0
    2.1525    0.6997   -3.8968 N   0  0  0  1  0  0  0  0  0  0  0  0
    1.2986   -0.1837   -4.4201 C   0  0  0  1  0  0  0  0  0  0  0  0
    0.8204   -1.2305   -3.6033 C   0  0  0  1  0  0  0  0  0  0  0  0
    1.2616   -1.2961   -2.2850 C   0  0  0  1  0  0  0  0  0  0  0  0
    0.7019   -0.3512   -5.6889 C   0  0  0  1  0  0  0  0  0  0  0  0
   -0.0689   -1.4009   -5.6538 N   0  0  0  1  0  0  0  0  0  0  0  0
   -0.0256   -1.9781   -4.3778 N   0  0  0  1  0  0  0  0  0  0  0  0
   -0.8017   -3.1438   -4.1242 C   0  0  0  1  0  0  0  0  0  0  0  0
   -2.1736   -3.1097   -4.2883 C   0  0  0  1  0  0  0  0  0  0  0  0
   -2.9287   -4.2467   -4.0464 C   0  0  0  1  0  0  0  0  0  0  0  0
   -2.3106   -5.4128   -3.6360 C   0  0  0  1  0  0  0  0  0  0  0  0
   -0.9346   -5.4467   -3.4716 C   0  0  0  1  0  0  0  0  0  0  0  0
   -0.1815   -4.3132   -3.7126 C   0  0  0  1  0  0  0  0  0  0  0  0
   -2.9388   -6.5739   -3.3672 O   0  0  0  1  0  0  0  0  0  0  0  0
   -4.3744   -6.4736   -3.2212 C   0  0  0  1  0  0  0  0  0  0  0  0
    3.3929    1.4938   -2.1554 N   0  0  0  1  0  0  0  0  0  0  0  0
    3.8714    2.6976   -2.8369 C   0  0  0  1  0  0  0  0  0  0  0  0
    2.8125    3.8119   -2.7449 C   0  0  0  1  0  0  0  0  0  0  0  0
    3.2189    4.5682   -1.4358 C   0  0  0  1  0  0  0  0  0  0  0  0
    4.7501    4.5636   -1.5224 C   0  0  0  1  0  0  0  0  0  0  0  0
    5.1690    3.2315   -2.1362 C   0  0  0  1  0  0  0  0  0  0  0  0
    2.6812    5.9616   -1.4263 N   0  0  0  1  0  0  0  0  0  0  0  0
    0.9319   -2.0528   -1.6523 H   0  0  0  1  0  0  0  0  0  0  0  0
    0.8528    0.2622   -6.5151 H   0  0  0  1  0  0  0  0  0  0  0  0
   -2.6392   -2.2312   -4.5932 H   0  0  0  1  0  0  0  0  0  0  0  0
   -3.9607   -4.2222   -4.1737 H   0  0  0  1  0  0  0  0  0  0  0  0
   -0.4689   -6.3253   -3.1666 H   0  0  0  1  0  0  0  0  0  0  0  0
    0.8505   -4.3377   -3.5853 H   0  0  0  1  0  0  0  0  0  0  0  0
   -4.8149   -6.2462   -4.1695 H   0  0  0  1  0  0  0  0  0  0  0  0
   -4.6084   -5.6964   -2.5240 H   0  0  0  1  0  0  0  0  0  0  0  0
   -4.7620   -7.4041   -2.8623 H   0  0  0  1  0  0  0  0  0  0  0  0
    3.7337    1.3337   -1.2505 H   0  0  0  1  0  0  0  0  0  0  0  0
    4.0758    2.4701   -3.8623 H   0  0  0  1  0  0  0  0  0  0  0  0
    1.8276    3.4018   -2.6631 H   0  0  0  1  0  0  0  0  0  0  0  0
    2.8601    4.4599   -3.5950 H   0  0  0  1  0  0  0  0  0  0  0  0
    2.8780    4.0479   -0.5652 H   0  0  0  1  0  0  0  0  0  0  0  0
    5.1717    4.6640   -0.5441 H   0  0  0  1  0  0  0  0  0  0  0  0
    5.0836    5.3715   -2.1396 H   0  0  0  1  0  0  0  0  0  0  0  0
    5.9531    3.3742   -2.8502 H   0  0  0  1  0  0  0  0  0  0  0  0
    5.4962    2.5517   -1.3774 H   0  0  0  1  0  0  0  0  0  0  0  0
    3.0121    6.4345   -0.6342 H   0  0  0  1  0  0  0  0  0  0  0  0
    1.7019    5.9334   -1.4042 H   0  0  0  1  0  0  0  0  0  0  0  0
  1  2  4  0  0  0  0
  1  6  4  0  0  0  0
  2  3  4  0  0  0  0
  2 18  1  0  0  0  0
  3  4  4  0  0  0  0
  4  5  4  0  0  0  0
  4  7  4  0  0  0  0
  5  6  4  0  0  0  0
  5  9  4  0  0  0  0
  6 25  1  0  0  0  0
  7  8  4  0  0  0  0
  7 26  1  0  0  0  0
  8  9  4  0  0  0  0
  9 10  1  0  0  0  0
 10 11  4  0  0  0  0
 10 15  4  0  0  0  0
 11 12  4  0  0  0  0
 11 27  1  0  0  0  0
 12 13  4  0  0  0  0
 12 28  1  0  0  0  0
 13 14  4  0  0  0  0
 13 16  1  0  0  0  0
 14 15  4  0  0  0  0
 14 29  1  0  0  0  0
 15 30  1  0  0  0  0
 16 17  1  0  0  0  0
 17 31  1  0  0  0  0
 17 32  1  0  0  0  0
 17 33  1  0  0  0  0
 18 19  1  0  0  0  0
 18 34  1  0  0  0  0
 19 20  1  0  0  0  0
 19 23  1  0  0  0  0
 19 35  1  0  0  0  0
 20 21  1  0  0  0  0
 20 36  1  0  0  0  0
 20 37  1  0  0  0  0
 21 22  1  0  0  0  0
 21 24  1  0  0  0  0
 21 38  1  0  0  0  0
 22 23  1  0  0  0  0
 22 39  1  0  0  0  0
 22 40  1  0  0  0  0
 23 41  1  0  0  0  0
 23 42  1  0  0  0  0
 24 43  1  0  0  0  0
 24 44  1  0  0  0  0
M  END
> <ConfClashScore>
0 

> <ConfOneFourInteractionScore>
-0.984337 

> <ConfScore>
-0.0595693 

> <ConfScorePBest>
0.00397975 

> <ConfTolerance>
0.362265 

$$$$
c13.sdf
 OpenBabel04162418043D

 44 47  0  0  0  0  0  0  0  0999 V2000
    2.1080   -0.3774   -1.8532 N   0  0  0  1  0  0  0  0  0  0  0  0
    2.5364    0.5907   -2.6455 C   0  0  0  1  0  0  0  0  0  0  0  0
    2.1526    0.6996   -3.8968 N   0  0  0  1  0  0  0  0  0  0  0  0
    1.2985   -0.1837   -4.4201 C   0  0  0  1  0  0  0  0  0  0  0  0
    0.8204   -1.2305   -3.6033 C   0  0  0  1  0  0  0  0  0  0  0  0
    1.2615   -1.2960   -2.2850 C   0  0  0  1  0  0  0  0  0  0  0  0
    0.7019   -0.3513   -5.6890 C   0  0  0  1  0  0  0  0  0  0  0  0
   -0.0690   -1.4010   -5.6537 N   0  0  0  1  0  0  0  0  0  0  0  0
   -0.0256   -1.9781   -4.3778 N   0  0  0  1  0  0  0  0  0  0  0  0
   -0.7609   -3.1356   -4.0309 C   0  0  0  1  0  0  0  0  0  0  0  0
   -0.5716   -4.2687   -4.7991 C   0  0  0  1  0  0  0  0  0  0  0  0
   -1.2629   -5.4322   -4.4998 C   0  0  0  1  0  0  0  0  0  0  0  0
   -2.1455   -5.4578   -3.4364 C   0  0  0  1  0  0  0  0  0  0  0  0
   -2.3352   -4.3211   -2.6659 C   0  0  0  1  0  0  0  0  0  0  0  0
   -1.6460   -3.1609   -2.9643 C   0  0  0  1  0  0  0  0  0  0  0  0
   -2.8778   -6.5304   -3.0529 O   0  0  0  1  0  0  0  0  0  0  0  0
   -2.6436   -7.7665   -3.7455 C   0  0  0  1  0  0  0  0  0  0  0  0
    3.3977    1.4989   -2.1527 N   0  0  0  1  0  0  0  0  0  0  0  0
    4.0532    2.6122   -2.8445 C   0  0  0  1  0  0  0  0  0  0  0  0
    3.7874    3.9415   -2.1338 C   0  0  0  1  0  0  0  0  0  0  0  0
    4.8187    4.0199   -1.0056 C   0  0  0  1  0  0  0  0  0  0  0  0
    5.9266    3.0191   -1.3575 C   0  0  0  1  0  0  0  0  0  0  0  0
    5.5754    2.5009   -2.7564 C   0  0  0  1  0  0  0  0  0  0  0  0
    5.3812    5.4025   -0.9157 N   0  0  0  1  0  0  0  0  0  0  0  0
    0.9317   -2.0527   -1.6522 H   0  0  0  1  0  0  0  0  0  0  0  0
    0.8529    0.2620   -6.5152 H   0  0  0  1  0  0  0  0  0  0  0  0
    0.0894   -4.2483   -5.6018 H   0  0  0  1  0  0  0  0  0  0  0  0
   -1.1175   -6.2862   -5.0754 H   0  0  0  1  0  0  0  0  0  0  0  0
   -2.9963   -4.3414   -1.8633 H   0  0  0  1  0  0  0  0  0  0  0  0
   -1.7914   -2.3070   -2.3887 H   0  0  0  1  0  0  0  0  0  0  0  0
   -1.5906   -7.9448   -3.8118 H   0  0  0  1  0  0  0  0  0  0  0  0
   -3.0577   -7.7073   -4.7302 H   0  0  0  1  0  0  0  0  0  0  0  0
   -3.1078   -8.5684   -3.2103 H   0  0  0  1  0  0  0  0  0  0  0  0
    3.6164    1.4030   -1.2022 H   0  0  0  1  0  0  0  0  0  0  0  0
    3.7244    2.6435   -3.8622 H   0  0  0  1  0  0  0  0  0  0  0  0
    2.7951    3.9590   -1.7340 H   0  0  0  1  0  0  0  0  0  0  0  0
    3.9136    4.7592   -2.8122 H   0  0  0  1  0  0  0  0  0  0  0  0
    4.3661    3.7570   -0.0724 H   0  0  0  1  0  0  0  0  0  0  0  0
    6.8804    3.5041   -1.3663 H   0  0  0  1  0  0  0  0  0  0  0  0
    5.9417    2.2141   -0.6528 H   0  0  0  1  0  0  0  0  0  0  0  0
    5.8859    1.4833   -2.8700 H   0  0  0  1  0  0  0  0  0  0  0  0
    6.0411    3.1025   -3.5088 H   0  0  0  1  0  0  0  0  0  0  0  0
    6.1485    5.4043   -0.3059 H   0  0  0  1  0  0  0  0  0  0  0  0
    4.6937    6.0132   -0.5771 H   0  0  0  1  0  0  0  0  0  0  0  0
  1  2  4  0  0  0  0
  1  6  4  0  0  0  0
  2  3  4  0  0  0  0
  2 18  1  0  0  0  0
  3  4  4  0  0  0  0
  4  5  4  0  0  0  0
  4  7  4  0  0  0  0
  5  6  4  0  0  0  0
  5  9  4  0  0  0  0
  6 25  1  0  0  0  0
  7  8  4  0  0  0  0
  7 26  1  0  0  0  0
  8  9  4  0  0  0  0
  9 10  1  0  0  0  0
 10 11  4  0  0  0  0
 10 15  4  0  0  0  0
 11 12  4  0  0  0  0
 11 27  1  0  0  0  0
 12 13  4  0  0  0  0
 12 28  1  0  0  0  0
 13 14  4  0  0  0  0
 13 16  1  0  0  0  0
 14 15  4  0  0  0  0
 14 29  1  0  0  0  0
 15 30  1  0  0  0  0
 16 17  1  0  0  0  0
 17 31  1  0  0  0  0
 17 32  1  0  0  0  0
 17 33  1  0  0  0  0
 18 19  1  0  0  0  0
 18 34  1  0  0  0  0
 19 20  1  0  0  0  0
 19 23  1  0  0  0  0
 19 35  1  0  0  0  0
 20 21  1  0  0  0  0
 20 36  1  0  0  0  0
 20 37  1  0  0  0  0
 21 22  1  0  0  0  0
 21 24  1  0  0  0  0
 21 38  1  0  0  0  0
 22 23  1  0  0  0  0
 22 39  1  0  0  0  0
 22 40  1  0  0  0  0
 23 41  1  0  0  0  0
 23 42  1  0  0  0  0
 24 43  1  0  0  0  0
 24 44  1  0  0  0  0
M  END
> <ConfClashScore>
0 

> <ConfOneFourInteractionScore>
-0.984337 

> <ConfScore>
-0.0593327 

> <ConfScorePBest>
0.00396642 

> <ConfTolerance>
0.328891 

$$$$
c13.sdf
 OpenBabel04162418043D

 44 47  0  0  0  0  0  0  0  0999 V2000
    2.1080   -0.3774   -1.8532 N   0  0  0  1  0  0  0  0  0  0  0  0
    2.5363    0.5907   -2.6455 C   0  0  0  1  0  0  0  0  0  0  0  0
    2.1525    0.6997   -3.8968 N   0  0  0  1  0  0  0  0  0  0  0  0
    1.2985   -0.1838   -4.4201 C   0  0  0  1  0  0  0  0  0  0  0  0
    0.8205   -1.2305   -3.6034 C   0  0  0  1  0  0  0  0  0  0  0  0
    1.2616   -1.2960   -2.2850 C   0  0  0  1  0  0  0  0  0  0  0  0
    0.7018   -0.3512   -5.6890 C   0  0  0  1  0  0  0  0  0  0  0  0
   -0.0690   -1.4010   -5.6538 N   0  0  0  1  0  0  0  0  0  0  0  0
   -0.0256   -1.9781   -4.3778 N   0  0  0  1  0  0  0  0  0  0  0  0
   -0.8017   -3.1439   -4.1242 C   0  0  0  1  0  0  0  0  0  0  0  0
   -0.2456   -4.2091   -3.4414 C   0  0  0  1  0  0  0  0  0  0  0  0
   -1.0032   -5.3423   -3.1897 C   0  0  0  1  0  0  0  0  0  0  0  0
   -2.3130   -5.4092   -3.6262 C   0  0  0  1  0  0  0  0  0  0  0  0
   -2.8706   -4.3406   -4.3109 C   0  0  0  1  0  0  0  0  0  0  0  0
   -2.1153   -3.2107   -4.5620 C   0  0  0  1  0  0  0  0  0  0  0  0
   -2.9475   -6.5598   -3.3290 O   0  0  0  1  0  0  0  0  0  0  0  0
   -4.3191   -6.6371   -3.7821 C   0  0  0  1  0  0  0  0  0  0  0  0
    3.3914    1.4695   -2.1106 N   0  0  0  1  0  0  0  0  0  0  0  0
    3.8050    1.5368   -0.7081 C   0  0  0  1  0  0  0  0  0  0  0  0
    4.9803    2.5193   -0.5429 C   0  0  0  1  0  0  0  0  0  0  0  0
    4.2721    3.8341   -0.2275 C   0  0  0  1  0  0  0  0  0  0  0  0
    3.1120    3.4640    0.6799 C   0  0  0  1  0  0  0  0  0  0  0  0
    2.6770    2.0879    0.1498 C   0  0  0  1  0  0  0  0  0  0  0  0
    5.1943    4.7655    0.4651 N   0  0  0  1  0  0  0  0  0  0  0  0
    0.9318   -2.0527   -1.6522 H   0  0  0  1  0  0  0  0  0  0  0  0
    0.8528    0.2621   -6.5152 H   0  0  0  1  0  0  0  0  0  0  0  0
    0.7411   -4.1605   -3.1165 H   0  0  0  1  0  0  0  0  0  0  0  0
   -0.5860   -6.1423   -2.6724 H   0  0  0  1  0  0  0  0  0  0  0  0
   -3.8573   -4.3893   -4.6358 H   0  0  0  1  0  0  0  0  0  0  0  0
   -2.5324   -2.4107   -5.0793 H   0  0  0  1  0  0  0  0  0  0  0  0
   -4.7820   -7.5105   -3.3721 H   0  0  0  1  0  0  0  0  0  0  0  0
   -4.3391   -6.6914   -4.8505 H   0  0  0  1  0  0  0  0  0  0  0  0
   -4.8509   -5.7668   -3.4586 H   0  0  0  1  0  0  0  0  0  0  0  0
    3.7791    2.1340   -2.7177 H   0  0  0  1  0  0  0  0  0  0  0  0
    4.0859    0.5609   -0.3714 H   0  0  0  1  0  0  0  0  0  0  0  0
    5.6211    2.2232    0.2611 H   0  0  0  1  0  0  0  0  0  0  0  0
    5.5506    2.5945   -1.4452 H   0  0  0  1  0  0  0  0  0  0  0  0
    3.9127    4.2898   -1.1264 H   0  0  0  1  0  0  0  0  0  0  0  0
    2.3175    4.1759    0.5965 H   0  0  0  1  0  0  0  0  0  0  0  0
    3.4282    3.3997    1.7001 H   0  0  0  1  0  0  0  0  0  0  0  0
    2.4879    1.4264    0.9694 H   0  0  0  1  0  0  0  0  0  0  0  0
    1.7894    2.1897   -0.4391 H   0  0  0  1  0  0  0  0  0  0  0  0
    5.5630    4.3289    1.2612 H   0  0  0  1  0  0  0  0  0  0  0  0
    4.7047    5.5713    0.7320 H   0  0  0  1  0  0  0  0  0  0  0  0
  1  2  4  0  0  0  0
  1  6  4  0  0  0  0
  2  3  4  0  0  0  0
  2 18  1  0  0  0  0
  3  4  4  0  0  0  0
  4  5  4  0  0  0  0
  4  7  4  0  0  0  0
  5  6  4  0  0  0  0
  5  9  4  0  0  0  0
  6 25  1  0  0  0  0
  7  8  4  0  0  0  0
  7 26  1  0  0  0  0
  8  9  4  0  0  0  0
  9 10  1  0  0  0  0
 10 11  4  0  0  0  0
 10 15  4  0  0  0  0
 11 12  4  0  0  0  0
 11 27  1  0  0  0  0
 12 13  4  0  0  0  0
 12 28  1  0  0  0  0
 13 14  4  0  0  0  0
 13 16  1  0  0  0  0
 14 15  4  0  0  0  0
 14 29  1  0  0  0  0
 15 30  1  0  0  0  0
 16 17  1  0  0  0  0
 17 31  1  0  0  0  0
 17 32  1  0  0  0  0
 17 33  1  0  0  0  0
 18 19  1  0  0  0  0
 18 34  1  0  0  0  0
 19 20  1  0  0  0  0
 19 23  1  0  0  0  0
 19 35  1  0  0  0  0
 20 21  1  0  0  0  0
 20 36  1  0  0  0  0
 20 37  1  0  0  0  0
 21 22  1  0  0  0  0
 21 24  1  0  0  0  0
 21 38  1  0  0  0  0
 22 23  1  0  0  0  0
 22 39  1  0  0  0  0
 22 40  1  0  0  0  0
 23 41  1  0  0  0  0
 23 42  1  0  0  0  0
 24 43  1  0  0  0  0
 24 44  1  0  0  0  0
M  END
> <ConfClashScore>
0 

> <ConfOneFourInteractionScore>
-0.984337 

> <ConfScore>
-0.0578808 

> <ConfScorePBest>
0.00395309 

> <ConfTolerance>
0.265117 

$$$$
c13.sdf
 OpenBabel04162418043D

 44 47  0  0  0  0  0  0  0  0999 V2000
    2.1080   -0.3773   -1.8532 N   0  0  0  1  0  0  0  0  0  0  0  0
    2.5363    0.5907   -2.6455 C   0  0  0  1  0  0  0  0  0  0  0  0
    2.1526    0.6996   -3.8969 N   0  0  0  1  0  0  0  0  0  0  0  0
    1.2986   -0.1837   -4.4201 C   0  0  0  1  0  0  0  0  0  0  0  0
    0.8205   -1.2305   -3.6033 C   0  0  0  1  0  0  0  0  0  0  0  0
    1.2616   -1.2960   -2.2849 C   0  0  0  1  0  0  0  0  0  0  0  0
    0.7018   -0.3513   -5.6889 C   0  0  0  1  0  0  0  0  0  0  0  0
   -0.0690   -1.4011   -5.6537 N   0  0  0  1  0  0  0  0  0  0  0  0
   -0.0256   -1.9781   -4.3778 N   0  0  0  1  0  0  0  0  0  0  0  0
   -0.9099   -3.0490   -4.0665 C   0  0  0  1  0  0  0  0  0  0  0  0
   -0.4899   -4.0737   -3.2397 C   0  0  0  1  0  0  0  0  0  0  0  0
   -1.3531   -5.1139   -2.9323 C   0  0  0  1  0  0  0  0  0  0  0  0
   -2.6318   -5.1292   -3.4568 C   0  0  0  1  0  0  0  0  0  0  0  0
   -3.0527   -4.1013   -4.2861 C   0  0  0  1  0  0  0  0  0  0  0  0
   -2.1922   -3.0640   -4.5927 C   0  0  0  1  0  0  0  0  0  0  0  0
   -3.5851   -6.0658   -3.2598 O   0  0  0  1  0  0  0  0  0  0  0  0
   -3.3988   -7.0664   -2.2319 C   0  0  0  1  0  0  0  0  0  0  0  0
    3.3977    1.4989   -2.1526 N   0  0  0  1  0  0  0  0  0  0  0  0
    3.9310    2.6242   -2.9272 C   0  0  0  1  0  0  0  0  0  0  0  0
    5.1550    3.2225   -2.2282 C   0  0  0  1  0  0  0  0  0  0  0  0
    6.0817    3.6480   -3.3724 C   0  0  0  1  0  0  0  0  0  0  0  0
    5.9258    2.4946   -4.3497 C   0  0  0  1  0  0  0  0  0  0  0  0
    4.4353    2.1432   -4.2944 C   0  0  0  1  0  0  0  0  0  0  0  0
    5.6373    4.9371   -3.9794 N   0  0  0  1  0  0  0  0  0  0  0  0
    0.9318   -2.0526   -1.6522 H   0  0  0  1  0  0  0  0  0  0  0  0
    0.8529    0.2620   -6.5152 H   0  0  0  1  0  0  0  0  0  0  0  0
    0.4735   -4.0644   -2.8481 H   0  0  0  1  0  0  0  0  0  0  0  0
   -1.0385   -5.8830   -2.3068 H   0  0  0  1  0  0  0  0  0  0  0  0
   -4.0161   -4.1106   -4.6777 H   0  0  0  1  0  0  0  0  0  0  0  0
   -2.5068   -2.2950   -5.2181 H   0  0  0  1  0  0  0  0  0  0  0  0
   -4.3052   -7.6206   -2.1046 H   0  0  0  1  0  0  0  0  0  0  0  0
   -3.1417   -6.5871   -1.3104 H   0  0  0  1  0  0  0  0  0  0  0  0
   -2.6119   -7.7316   -2.5203 H   0  0  0  1  0  0  0  0  0  0  0  0
    3.6858    1.4029   -1.2209 H   0  0  0  1  0  0  0  0  0  0  0  0
    3.1700    3.3664   -3.0492 H   0  0  0  1  0  0  0  0  0  0  0  0
    5.6310    2.4919   -1.6082 H   0  0  0  1  0  0  0  0  0  0  0  0
    4.8755    4.0675   -1.6343 H   0  0  0  1  0  0  0  0  0  0  0  0
    7.0941    3.7406   -3.0386 H   0  0  0  1  0  0  0  0  0  0  0  0
    6.5225    1.6595   -4.0472 H   0  0  0  1  0  0  0  0  0  0  0  0
    6.2069    2.7954   -5.3373 H   0  0  0  1  0  0  0  0  0  0  0  0
    3.9076    2.6419   -5.0803 H   0  0  0  1  0  0  0  0  0  0  0  0
    4.3001    1.0860   -4.3882 H   0  0  0  1  0  0  0  0  0  0  0  0
    6.1254    5.0905   -4.8153 H   0  0  0  1  0  0  0  0  0  0  0  0
    5.8187    5.6712   -3.3561 H   0  0  0  1  0  0  0  0  0  0  0  0
  1  2  4  0  0  0  0
  1  6  4  0  0  0  0
  2  3  4  0  0  0  0
  2 18  1  0  0  0  0
  3  4  4  0  0  0  0
  4  5  4  0  0  0  0
  4  7  4  0  0  0  0
  5  6  4  0  0  0  0
  5  9  4  0  0  0  0
  6 25  1  0  0  0  0
  7  8  4  0  0  0  0
  7 26  1  0  0  0  0
  8  9  4  0  0  0  0
  9 10  1  0  0  0  0
 10 11  4  0  0  0  0
 10 15  4  0  0  0  0
 11 12  4  0  0  0  0
 11 27  1  0  0  0  0
 12 13  4  0  0  0  0
 12 28  1  0  0  0  0
 13 14  4  0  0  0  0
 13 16  1  0  0  0  0
 14 15  4  0  0  0  0
 14 29  1  0  0  0  0
 15 30  1  0  0  0  0
 16 17  1  0  0  0  0
 17 31  1  0  0  0  0
 17 32  1  0  0  0  0
 17 33  1  0  0  0  0
 18 19  1  0  0  0  0
 18 34  1  0  0  0  0
 19 20  1  0  0  0  0
 19 23  1  0  0  0  0
 19 35  1  0  0  0  0
 20 21  1  0  0  0  0
 20 36  1  0  0  0  0
 20 37  1  0  0  0  0
 21 22  1  0  0  0  0
 21 24  1  0  0  0  0
 21 38  1  0  0  0  0
 22 23  1  0  0  0  0
 22 39  1  0  0  0  0
 22 40  1  0  0  0  0
 23 41  1  0  0  0  0
 23 42  1  0  0  0  0
 24 43  1  0  0  0  0
 24 44  1  0  0  0  0
M  END
> <ConfClashScore>
0 

> <ConfOneFourInteractionScore>
-0.985399 

> <ConfScore>
-0.0576517 

> <ConfScorePBest>
0.00393977 

> <ConfTolerance>
0.298392 

$$$$
c13.sdf
 OpenBabel04162418043D

 44 47  0  0  0  0  0  0  0  0999 V2000
    2.1080   -0.3773   -1.8532 N   0  0  0  1  0  0  0  0  0  0  0  0
    2.5363    0.5907   -2.6455 C   0  0  0  1  0  0  0  0  0  0  0  0
    2.1526    0.6996   -3.8968 N   0  0  0  1  0  0  0  0  0  0  0  0
    1.2985   -0.1838   -4.4201 C   0  0  0  1  0  0  0  0  0  0  0  0
    0.8204   -1.2304   -3.6033 C   0  0  0  1  0  0  0  0  0  0  0  0
    1.2615   -1.2960   -2.2849 C   0  0  0  1  0  0  0  0  0  0  0  0
    0.7019   -0.3513   -5.6890 C   0  0  0  1  0  0  0  0  0  0  0  0
   -0.0689   -1.4010   -5.6537 N   0  0  0  1  0  0  0  0  0  0  0  0
   -0.0256   -1.9781   -4.3778 N   0  0  0  1  0  0  0  0  0  0  0  0
   -0.6798   -3.2073   -4.1586 C   0  0  0  1  0  0  0  0  0  0  0  0
   -0.1539   -4.0502   -3.1979 C   0  0  0  1  0  0  0  0  0  0  0  0
   -0.7609   -5.2690   -2.9383 C   0  0  0  1  0  0  0  0  0  0  0  0
   -1.8889   -5.6437   -3.6437 C   0  0  0  1  0  0  0  0  0  0  0  0
   -2.4161   -4.7981   -4.6074 C   0  0  0  1  0  0  0  0  0  0  0  0
   -1.8109   -3.5828   -4.8664 C   0  0  0  1  0  0  0  0  0  0  0  0
   -2.5625   -6.8072   -3.4818 O   0  0  0  1  0  0  0  0  0  0  0  0
   -1.9825   -7.7846   -2.6039 C   0  0  0  1  0  0  0  0  0  0  0  0
    3.3929    1.4938   -2.1554 N   0  0  0  1  0  0  0  0  0  0  0  0
    4.0905    2.5648   -2.8561 C   0  0  0  1  0  0  0  0  0  0  0  0
    4.5724    3.6308   -1.8641 C   0  0  0  1  0  0  0  0  0  0  0  0
    6.0777    3.7882   -2.0918 C   0  0  0  1  0  0  0  0  0  0  0  0
    6.3501    3.1945   -3.4759 C   0  0  0  1  0  0  0  0  0  0  0  0
    5.3615    2.0295   -3.5248 C   0  0  0  1  0  0  0  0  0  0  0  0
    6.4579    5.2185   -2.0596 N   0  0  0  1  0  0  0  0  0  0  0  0
    0.9316   -2.0526   -1.6522 H   0  0  0  1  0  0  0  0  0  0  0  0
    0.8529    0.2621   -6.5152 H   0  0  0  1  0  0  0  0  0  0  0  0
    0.6972   -3.7702   -2.6699 H   0  0  0  1  0  0  0  0  0  0  0  0
   -0.3676   -5.9017   -2.2126 H   0  0  0  1  0  0  0  0  0  0  0  0
   -3.2672   -5.0783   -5.1355 H   0  0  0  1  0  0  0  0  0  0  0  0
   -2.2042   -2.9502   -5.5921 H   0  0  0  1  0  0  0  0  0  0  0  0
   -2.5808   -7.8716   -1.7211 H   0  0  0  1  0  0  0  0  0  0  0  0
   -0.9928   -7.4796   -2.3352 H   0  0  0  1  0  0  0  0  0  0  0  0
   -1.9417   -8.7311   -3.1015 H   0  0  0  1  0  0  0  0  0  0  0  0
    3.5761    1.4264   -1.1950 H   0  0  0  1  0  0  0  0  0  0  0  0
    3.4383    2.9989   -3.5850 H   0  0  0  1  0  0  0  0  0  0  0  0
    4.0721    4.5589   -2.0470 H   0  0  0  1  0  0  0  0  0  0  0  0
    4.3818    3.3142   -0.8600 H   0  0  0  1  0  0  0  0  0  0  0  0
    6.6261    3.2560   -1.3428 H   0  0  0  1  0  0  0  0  0  0  0  0
    7.3600    2.8505   -3.5589 H   0  0  0  1  0  0  0  0  0  0  0  0
    6.1504    3.9059   -4.2498 H   0  0  0  1  0  0  0  0  0  0  0  0
    5.1635    1.7458   -4.5373 H   0  0  0  1  0  0  0  0  0  0  0  0
    5.7443    1.1877   -2.9865 H   0  0  0  1  0  0  0  0  0  0  0  0
    6.2551    5.5911   -1.1761 H   0  0  0  1  0  0  0  0  0  0  0  0
    5.9527    5.7060   -2.7434 H   0  0  0  1  0  0  0  0  0  0  0  0
  1  2  4  0  0  0  0
  1  6  4  0  0  0  0
  2  3  4  0  0  0  0
  2 18  1  0  0  0  0
  3  4  4  0  0  0  0
  4  5  4  0  0  0  0
  4  7  4  0  0  0  0
  5  6  4  0  0  0  0
  5  9  4  0  0  0  0
  6 25  1  0  0  0  0
  7  8  4  0  0  0  0
  7 26  1  0  0  0  0
  8  9  4  0  0  0  0
  9 10  1  0  0  0  0
 10 11  4  0  0  0  0
 10 15  4  0  0  0  0
 11 12  4  0  0  0  0
 11 27  1  0  0  0  0
 12 13  4  0  0  0  0
 12 28  1  0  0  0  0
 13 14  4  0  0  0  0
 13 16  1  0  0  0  0
 14 15  4  0  0  0  0
 14 29  1  0  0  0  0
 15 30  1  0  0  0  0
 16 17  1  0  0  0  0
 17 31  1  0  0  0  0
 17 32  1  0  0  0  0
 17 33  1  0  0  0  0
 18 19  1  0  0  0  0
 18 34  1  0  0  0  0
 19 20  1  0  0  0  0
 19 23  1  0  0  0  0
 19 35  1  0  0  0  0
 20 21  1  0  0  0  0
 20 36  1  0  0  0  0
 20 37  1  0  0  0  0
 21 22  1  0  0  0  0
 21 24  1  0  0  0  0
 21 38  1  0  0  0  0
 22 23  1  0  0  0  0
 22 39  1  0  0  0  0
 22 40  1  0  0  0  0
 23 41  1  0  0  0  0
 23 42  1  0  0  0  0
 24 43  1  0  0  0  0
 24 44  1  0  0  0  0
M  END
> <ConfClashScore>
0 

> <ConfOneFourInteractionScore>
-0.984337 

> <ConfScore>
-0.0576365 

> <ConfScorePBest>
0.00392644 

> <ConfTolerance>
0.32816 

$$$$
c13.sdf
 OpenBabel04162418043D

 44 47  0  0  0  0  0  0  0  0999 V2000
    2.1079   -0.3774   -1.8532 N   0  0  0  1  0  0  0  0  0  0  0  0
    2.5364    0.5907   -2.6455 C   0  0  0  1  0  0  0  0  0  0  0  0
    2.1526    0.6996   -3.8968 N   0  0  0  1  0  0  0  0  0  0  0  0
    1.2985   -0.1838   -4.4201 C   0  0  0  1  0  0  0  0  0  0  0  0
    0.8204   -1.2305   -3.6033 C   0  0  0  1  0  0  0  0  0  0  0  0
    1.2615   -1.2960   -2.2850 C   0  0  0  1  0  0  0  0  0  0  0  0
    0.7020   -0.3513   -5.6890 C   0  0  0  1  0  0  0  0  0  0  0  0
   -0.0689   -1.4010   -5.6538 N   0  0  0  1  0  0  0  0  0  0  0  0
   -0.0256   -1.9781   -4.3778 N   0  0  0  1  0  0  0  0  0  0  0  0
   -0.7779   -3.1329   -4.0822 C   0  0  0  1  0  0  0  0  0  0  0  0
   -0.2648   -4.1813   -3.3422 C   0  0  0  1  0  0  0  0  0  0  0  0
   -1.0508   -5.2916   -3.0761 C   0  0  0  1  0  0  0  0  0  0  0  0
   -2.3458   -5.3528   -3.5553 C   0  0  0  1  0  0  0  0  0  0  0  0
   -2.8603   -4.3011   -4.2976 C   0  0  0  1  0  0  0  0  0  0  0  0
   -2.0767   -3.1939   -4.5629 C   0  0  0  1  0  0  0  0  0  0  0  0
   -3.0141   -6.4867   -3.2372 O   0  0  0  1  0  0  0  0  0  0  0  0
   -4.3774   -6.5902   -3.6769 C   0  0  0  1  0  0  0  0  0  0  0  0
    3.4117    1.5445   -2.2067 N   0  0  0  1  0  0  0  0  0  0  0  0
    3.9866    1.4974   -0.8739 C   0  0  0  1  0  0  0  0  0  0  0  0
    5.4875    1.2093   -0.9557 C   0  0  0  1  0  0  0  0  0  0  0  0
    6.1424    2.1360    0.0715 C   0  0  0  1  0  0  0  0  0  0  0  0
    5.2712    3.3885   -0.0262 C   0  0  0  1  0  0  0  0  0  0  0  0
    3.8413    2.8606   -0.1858 C   0  0  0  1  0  0  0  0  0  0  0  0
    6.0923    1.5459    1.4444 N   0  0  0  1  0  0  0  0  0  0  0  0
    0.9317   -2.0527   -1.6523 H   0  0  0  1  0  0  0  0  0  0  0  0
    0.8530    0.2620   -6.5152 H   0  0  0  1  0  0  0  0  0  0  0  0
    0.7110   -4.1371   -2.9850 H   0  0  0  1  0  0  0  0  0  0  0  0
   -0.6660   -6.0788   -2.5159 H   0  0  0  1  0  0  0  0  0  0  0  0
   -3.8360   -4.3452   -4.6548 H   0  0  0  1  0  0  0  0  0  0  0  0
   -2.4614   -2.4067   -5.1231 H   0  0  0  1  0  0  0  0  0  0  0  0
   -4.9722   -5.8584   -3.1714 H   0  0  0  1  0  0  0  0  0  0  0  0
   -4.7504   -7.5681   -3.4546 H   0  0  0  1  0  0  0  0  0  0  0  0
   -4.4252   -6.4211   -4.7325 H   0  0  0  1  0  0  0  0  0  0  0  0
    3.6576    2.2791   -2.8069 H   0  0  0  1  0  0  0  0  0  0  0  0
    3.4958    0.7396   -0.2997 H   0  0  0  1  0  0  0  0  0  0  0  0
    5.6847    0.1857   -0.7140 H   0  0  0  1  0  0  0  0  0  0  0  0
    5.8553    1.4216   -1.9378 H   0  0  0  1  0  0  0  0  0  0  0  0
    7.1582    2.3484   -0.1893 H   0  0  0  1  0  0  0  0  0  0  0  0
    5.5520    3.9776   -0.8741 H   0  0  0  1  0  0  0  0  0  0  0  0
    5.3580    3.9778    0.8627 H   0  0  0  1  0  0  0  0  0  0  0  0
    3.3741    2.7496    0.7704 H   0  0  0  1  0  0  0  0  0  0  0  0
    3.2618    3.5258   -0.7913 H   0  0  0  1  0  0  0  0  0  0  0  0
    6.5814    0.6967    1.4535 H   0  0  0  1  0  0  0  0  0  0  0  0
    5.1590    1.3878    1.6979 H   0  0  0  1  0  0  0  0  0  0  0  0
  1  2  4  0  0  0  0
  1  6  4  0  0  0  0
  2  3  4  0  0  0  0
  2 18  1  0  0  0  0
  3  4  4  0  0  0  0
  4  5  4  0  0  0  0
  4  7  4  0  0  0  0
  5  6  4  0  0  0  0
  5  9  4  0  0  0  0
  6 25  1  0  0  0  0
  7  8  4  0  0  0  0
  7 26  1  0  0  0  0
  8  9  4  0  0  0  0
  9 10  1  0  0  0  0
 10 11  4  0  0  0  0
 10 15  4  0  0  0  0
 11 12  4  0  0  0  0
 11 27  1  0  0  0  0
 12 13  4  0  0  0  0
 12 28  1  0  0  0  0
 13 14  4  0  0  0  0
 13 16  1  0  0  0  0
 14 15  4  0  0  0  0
 14 29  1  0  0  0  0
 15 30  1  0  0  0  0
 16 17  1  0  0  0  0
 17 31  1  0  0  0  0
 17 32  1  0  0  0  0
 17 33  1  0  0  0  0
 18 19  1  0  0  0  0
 18 34  1  0  0  0  0
 19 20  1  0  0  0  0
 19 23  1  0  0  0  0
 19 35  1  0  0  0  0
 20 21  1  0  0  0  0
 20 36  1  0  0  0  0
 20 37  1  0  0  0  0
 21 22  1  0  0  0  0
 21 24  1  0  0  0  0
 21 38  1  0  0  0  0
 22 23  1  0  0  0  0
 22 39  1  0  0  0  0
 22 40  1  0  0  0  0
 23 41  1  0  0  0  0
 23 42  1  0  0  0  0
 24 43  1  0  0  0  0
 24 44  1  0  0  0  0
M  END
> <ConfClashScore>
0 

> <ConfOneFourInteractionScore>
-0.984337 

> <ConfScore>
-0.0573275 

> <ConfScorePBest>
0.00391311 

> <ConfTolerance>
0.33828 

$$$$
c13.sdf
 OpenBabel04162418043D

 44 47  0  0  0  0  0  0  0  0999 V2000
    2.1081   -0.3774   -1.8532 N   0  0  0  1  0  0  0  0  0  0  0  0
    2.5363    0.5907   -2.6455 C   0  0  0  1  0  0  0  0  0  0  0  0
    2.1525    0.6996   -3.8968 N   0  0  0  1  0  0  0  0  0  0  0  0
    1.2985   -0.1838   -4.4201 C   0  0  0  1  0  0  0  0  0  0  0  0
    0.8205   -1.2305   -3.6034 C   0  0  0  1  0  0  0  0  0  0  0  0
    1.2616   -1.2961   -2.2850 C   0  0  0  1  0  0  0  0  0  0  0  0
    0.7019   -0.3513   -5.6890 C   0  0  0  1  0  0  0  0  0  0  0  0
   -0.0689   -1.4010   -5.6538 N   0  0  0  1  0  0  0  0  0  0  0  0
   -0.0256   -1.9780   -4.3778 N   0  0  0  1  0  0  0  0  0  0  0  0
   -0.6860   -3.1908   -4.0716 C   0  0  0  1  0  0  0  0  0  0  0  0
   -0.3990   -4.2921   -4.8558 C   0  0  0  1  0  0  0  0  0  0  0  0
   -1.0141   -5.5069   -4.5961 C   0  0  0  1  0  0  0  0  0  0  0  0
   -1.9184   -5.6156   -3.5564 C   0  0  0  1  0  0  0  0  0  0  0  0
   -2.2061   -4.5109   -2.7700 C   0  0  0  1  0  0  0  0  0  0  0  0
   -1.5929   -3.2996   -3.0289 C   0  0  0  1  0  0  0  0  0  0  0  0
   -2.4878   -6.8282   -3.3592 O   0  0  0  1  0  0  0  0  0  0  0  0
   -3.3930   -6.9558   -2.2515 C   0  0  0  1  0  0  0  0  0  0  0  0
    3.3980    1.5175   -2.1891 N   0  0  0  1  0  0  0  0  0  0  0  0
    3.9168    2.6080   -2.9963 C   0  0  0  1  0  0  0  0  0  0  0  0
    5.0920    3.2804   -2.2917 C   0  0  0  1  0  0  0  0  0  0  0  0
    5.8340    3.9645   -3.4558 C   0  0  0  1  0  0  0  0  0  0  0  0
    5.5228    3.1364   -4.6926 C   0  0  0  1  0  0  0  0  0  0  0  0
    4.4759    2.0791   -4.3057 C   0  0  0  1  0  0  0  0  0  0  0  0
    5.3489    5.3535   -3.6304 N   0  0  0  1  0  0  0  0  0  0  0  0
    0.9319   -2.0527   -1.6523 H   0  0  0  1  0  0  0  0  0  0  0  0
    0.8528    0.2622   -6.5151 H   0  0  0  1  0  0  0  0  0  0  0  0
    0.2784   -4.2094   -5.6406 H   0  0  0  1  0  0  0  0  0  0  0  0
   -0.7951   -6.3367   -5.1836 H   0  0  0  1  0  0  0  0  0  0  0  0
   -2.8834   -4.5935   -1.9852 H   0  0  0  1  0  0  0  0  0  0  0  0
   -1.8118   -2.4697   -2.4414 H   0  0  0  1  0  0  0  0  0  0  0  0
   -2.9132   -6.6169   -1.3572 H   0  0  0  1  0  0  0  0  0  0  0  0
   -3.6750   -7.9817   -2.1380 H   0  0  0  1  0  0  0  0  0  0  0  0
   -4.2654   -6.3638   -2.4343 H   0  0  0  1  0  0  0  0  0  0  0  0
    3.6932    1.4532   -1.2568 H   0  0  0  1  0  0  0  0  0  0  0  0
    3.1373    3.3171   -3.1822 H   0  0  0  1  0  0  0  0  0  0  0  0
    4.7528    3.9985   -1.5746 H   0  0  0  1  0  0  0  0  0  0  0  0
    5.7159    2.5588   -1.8069 H   0  0  0  1  0  0  0  0  0  0  0  0
    6.8877    3.9747   -3.2704 H   0  0  0  1  0  0  0  0  0  0  0  0
    5.1332    3.7679   -5.4636 H   0  0  0  1  0  0  0  0  0  0  0  0
    6.4129    2.6554   -5.0408 H   0  0  0  1  0  0  0  0  0  0  0  0
    4.9312    1.1205   -4.1690 H   0  0  0  1  0  0  0  0  0  0  0  0
    3.7096    2.0079   -5.0490 H   0  0  0  1  0  0  0  0  0  0  0  0
    4.3835    5.3441   -3.7994 H   0  0  0  1  0  0  0  0  0  0  0  0
    5.8093    5.7669   -4.3903 H   0  0  0  1  0  0  0  0  0  0  0  0
  1  2  4  0  0  0  0
  1  6  4  0  0  0  0
  2  3  4  0  0  0  0
  2 18  1  0  0  0  0
  3  4  4  0  0  0  0
  4  5  4  0  0  0  0
  4  7  4  0  0  0  0
  5  6  4  0  0  0  0
  5  9  4  0  0  0  0
  6 25  1  0  0  0  0
  7  8  4  0  0  0  0
  7 26  1  0  0  0  0
  8  9  4  0  0  0  0
  9 10  1  0  0  0  0
 10 11  4  0  0  0  0
 10 15  4  0  0  0  0
 11 12  4  0  0  0  0
 11 27  1  0  0  0  0
 12 13  4  0  0  0  0
 12 28  1  0  0  0  0
 13 14  4  0  0  0  0
 13 16  1  0  0  0  0
 14 15  4  0  0  0  0
 14 29  1  0  0  0  0
 15 30  1  0  0  0  0
 16 17  1  0  0  0  0
 17 31  1  0  0  0  0
 17 32  1  0  0  0  0
 17 33  1  0  0  0  0
 18 19  1  0  0  0  0
 18 34  1  0  0  0  0
 19 20  1  0  0  0  0
 19 23  1  0  0  0  0
 19 35  1  0  0  0  0
 20 21  1  0  0  0  0
 20 36  1  0  0  0  0
 20 37  1  0  0  0  0
 21 22  1  0  0  0  0
 21 24  1  0  0  0  0
 21 38  1  0  0  0  0
 22 23  1  0  0  0  0
 22 39  1  0  0  0  0
 22 40  1  0  0  0  0
 23 41  1  0  0  0  0
 23 42  1  0  0  0  0
 24 43  1  0  0  0  0
 24 44  1  0  0  0  0
M  END
> <ConfClashScore>
0 

> <ConfOneFourInteractionScore>
-0.985399 

> <ConfScore>
-0.0569451 

> <ConfScorePBest>
0.00389978 

> <ConfTolerance>
0.261447 

$$$$
c13.sdf
 OpenBabel04162418043D

 44 47  0  0  0  0  0  0  0  0999 V2000
    2.1079   -0.3774   -1.8532 N   0  0  0  1  0  0  0  0  0  0  0  0
    2.5364    0.5908   -2.6455 C   0  0  0  1  0  0  0  0  0  0  0  0
    2.1525    0.6996   -3.8969 N   0  0  0  1  0  0  0  0  0  0  0  0
    1.2985   -0.1838   -4.4201 C   0  0  0  1  0  0  0  0  0  0  0  0
    0.8204   -1.2305   -3.6033 C   0  0  0  1  0  0  0  0  0  0  0  0
    1.2615   -1.2960   -2.2849 C   0  0  0  1  0  0  0  0  0  0  0  0
    0.7019   -0.3513   -5.6890 C   0  0  0  1  0  0  0  0  0  0  0  0
   -0.0690   -1.4010   -5.6537 N   0  0  0  1  0  0  0  0  0  0  0  0
   -0.0256   -1.9781   -4.3778 N   0  0  0  1  0  0  0  0  0  0  0  0
   -0.7143   -3.1961   -4.1129 C   0  0  0  1  0  0  0  0  0  0  0  0
   -0.3968   -4.3380   -4.8237 C   0  0  0  1  0  0  0  0  0  0  0  0
   -1.0635   -5.5249   -4.5620 C   0  0  0  1  0  0  0  0  0  0  0  0
   -2.0493   -5.5651   -3.5942 C   0  0  0  1  0  0  0  0  0  0  0  0
   -2.3678   -4.4196   -2.8814 C   0  0  0  1  0  0  0  0  0  0  0  0
   -1.7030   -3.2361   -3.1422 C   0  0  0  1  0  0  0  0  0  0  0  0
   -2.6320   -6.7730   -3.4315 O   0  0  0  1  0  0  0  0  0  0  0  0
   -3.6405   -6.9415   -2.4231 C   0  0  0  1  0  0  0  0  0  0  0  0
    3.4219    1.5245   -2.1387 N   0  0  0  1  0  0  0  0  0  0  0  0
    3.8666    1.3642   -0.7534 C   0  0  0  1  0  0  0  0  0  0  0  0
    5.4000    1.4585   -0.6487 C   0  0  0  1  0  0  0  0  0  0  0  0
    5.7565    2.9661   -0.4032 C   0  0  0  1  0  0  0  0  0  0  0  0
    4.4070    3.6500   -0.2083 C   0  0  0  1  0  0  0  0  0  0  0  0
    3.3847    2.5596    0.1354 C   0  0  0  1  0  0  0  0  0  0  0  0
    6.6092    3.1167    0.8223 N   0  0  0  1  0  0  0  0  0  0  0  0
    0.9317   -2.0527   -1.6523 H   0  0  0  1  0  0  0  0  0  0  0  0
    0.8529    0.2620   -6.5152 H   0  0  0  1  0  0  0  0  0  0  0  0
    0.3422   -4.3069   -5.5547 H   0  0  0  1  0  0  0  0  0  0  0  0
   -0.8218   -6.3852   -5.0941 H   0  0  0  1  0  0  0  0  0  0  0  0
   -3.1068   -4.4507   -2.1503 H   0  0  0  1  0  0  0  0  0  0  0  0
   -1.9447   -2.3758   -2.6101 H   0  0  0  1  0  0  0  0  0  0  0  0
   -4.0871   -7.9087   -2.5226 H   0  0  0  1  0  0  0  0  0  0  0  0
   -4.3915   -6.1884   -2.5408 H   0  0  0  1  0  0  0  0  0  0  0  0
   -3.1945   -6.8528   -1.4545 H   0  0  0  1  0  0  0  0  0  0  0  0
    3.7415    2.2694   -2.6895 H   0  0  0  1  0  0  0  0  0  0  0  0
    3.5108    0.4309   -0.3698 H   0  0  0  1  0  0  0  0  0  0  0  0
    5.8510    1.1187   -1.5576 H   0  0  0  1  0  0  0  0  0  0  0  0
    5.7488    0.8618    0.1681 H   0  0  0  1  0  0  0  0  0  0  0  0
    6.2696    3.3758   -1.2480 H   0  0  0  1  0  0  0  0  0  0  0  0
    4.4684    4.3584    0.5912 H   0  0  0  1  0  0  0  0  0  0  0  0
    4.1180    4.1513   -1.1083 H   0  0  0  1  0  0  0  0  0  0  0  0
    2.3922    2.8621   -0.1260 H   0  0  0  1  0  0  0  0  0  0  0  0
    3.4196    2.3089    1.1749 H   0  0  0  1  0  0  0  0  0  0  0  0
    7.4891    2.7171    0.6597 H   0  0  0  1  0  0  0  0  0  0  0  0
    6.1791    2.6630    1.5771 H   0  0  0  1  0  0  0  0  0  0  0  0
  1  2  4  0  0  0  0
  1  6  4  0  0  0  0
  2  3  4  0  0  0  0
  2 18  1  0  0  0  0
  3  4  4  0  0  0  0
  4  5  4  0  0  0  0
  4  7  4  0  0  0  0
  5  6  4  0  0  0  0
  5  9  4  0  0  0  0
  6 25  1  0  0  0  0
  7  8  4  0  0  0  0
  7 26  1  0  0  0  0
  8  9  4  0  0  0  0
  9 10  1  0  0  0  0
 10 11  4  0  0  0  0
 10 15  4  0  0  0  0
 11 12  4  0  0  0  0
 11 27  1  0  0  0  0
 12 13  4  0  0  0  0
 12 28  1  0  0  0  0
 13 14  4  0  0  0  0
 13 16  1  0  0  0  0
 14 15  4  0  0  0  0
 14 29  1  0  0  0  0
 15 30  1  0  0  0  0
 16 17  1  0  0  0  0
 17 31  1  0  0  0  0
 17 32  1  0  0  0  0
 17 33  1  0  0  0  0
 18 19  1  0  0  0  0
 18 34  1  0  0  0  0
 19 20  1  0  0  0  0
 19 23  1  0  0  0  0
 19 35  1  0  0  0  0
 20 21  1  0  0  0  0
 20 36  1  0  0  0  0
 20 37  1  0  0  0  0
 21 22  1  0  0  0  0
 21 24  1  0  0  0  0
 21 38  1  0  0  0  0
 22 23  1  0  0  0  0
 22 39  1  0  0  0  0
 22 40  1  0  0  0  0
 23 41  1  0  0  0  0
 23 42  1  0  0  0  0
 24 43  1  0  0  0  0
 24 44  1  0  0  0  0
M  END
> <ConfClashScore>
0 

> <ConfOneFourInteractionScore>
-0.984337 

> <ConfScore>
-0.0563918 

> <ConfScorePBest>
0.00388645 

> <ConfTolerance>
0.338069 

$$$$
c13.sdf
 OpenBabel04162418043D

 44 47  0  0  0  0  0  0  0  0999 V2000
    2.1079   -0.3774   -1.8532 N   0  0  0  1  0  0  0  0  0  0  0  0
    2.5364    0.5907   -2.6455 C   0  0  0  1  0  0  0  0  0  0  0  0
    2.1526    0.6996   -3.8968 N   0  0  0  1  0  0  0  0  0  0  0  0
    1.2985   -0.1838   -4.4201 C   0  0  0  1  0  0  0  0  0  0  0  0
    0.8204   -1.2305   -3.6033 C   0  0  0  1  0  0  0  0  0  0  0  0
    1.2615   -1.2960   -2.2849 C   0  0  0  1  0  0  0  0  0  0  0  0
    0.7020   -0.3513   -5.6890 C   0  0  0  1  0  0  0  0  0  0  0  0
   -0.0689   -1.4010   -5.6538 N   0  0  0  1  0  0  0  0  0  0  0  0
   -0.0256   -1.9781   -4.3778 N   0  0  0  1  0  0  0  0  0  0  0  0
   -0.8762   -3.0877   -4.1073 C   0  0  0  1  0  0  0  0  0  0  0  0
   -1.6618   -3.6175   -5.1134 C   0  0  0  1  0  0  0  0  0  0  0  0
   -2.4858   -4.7010   -4.8514 C   0  0  0  1  0  0  0  0  0  0  0  0
   -2.5258   -5.2480   -3.5827 C   0  0  0  1  0  0  0  0  0  0  0  0
   -1.7379   -4.7165   -2.5737 C   0  0  0  1  0  0  0  0  0  0  0  0
   -0.9163   -3.6362   -2.8348 C   0  0  0  1  0  0  0  0  0  0  0  0
   -3.3347   -6.3032   -3.3255 O   0  0  0  1  0  0  0  0  0  0  0  0
   -3.4836   -6.6965   -1.9522 C   0  0  0  1  0  0  0  0  0  0  0  0
    3.3994    1.4778   -2.1055 N   0  0  0  1  0  0  0  0  0  0  0  0
    3.9767    1.3439   -0.7642 C   0  0  0  1  0  0  0  0  0  0  0  0
    5.4445    1.8121   -0.7637 C   0  0  0  1  0  0  0  0  0  0  0  0
    5.3228    3.2861   -0.3865 C   0  0  0  1  0  0  0  0  0  0  0  0
    4.2281    3.3482    0.6643 C   0  0  0  1  0  0  0  0  0  0  0  0
    3.2496    2.2498    0.2171 C   0  0  0  1  0  0  0  0  0  0  0  0
    6.6140    3.7900    0.1744 N   0  0  0  1  0  0  0  0  0  0  0  0
    0.9316   -2.0526   -1.6522 H   0  0  0  1  0  0  0  0  0  0  0  0
    0.8529    0.2620   -6.5152 H   0  0  0  1  0  0  0  0  0  0  0  0
   -1.6347   -3.2034   -6.0670 H   0  0  0  1  0  0  0  0  0  0  0  0
   -3.0739   -5.1023   -5.6094 H   0  0  0  1  0  0  0  0  0  0  0  0
   -1.7649   -5.1306   -1.6200 H   0  0  0  1  0  0  0  0  0  0  0  0
   -0.3281   -3.2348   -2.0768 H   0  0  0  1  0  0  0  0  0  0  0  0
   -2.8045   -7.4938   -1.7334 H   0  0  0  1  0  0  0  0  0  0  0  0
   -4.4873   -7.0265   -1.7829 H   0  0  0  1  0  0  0  0  0  0  0  0
   -3.2701   -5.8620   -1.3174 H   0  0  0  1  0  0  0  0  0  0  0  0
    3.6550    2.2571   -2.6419 H   0  0  0  1  0  0  0  0  0  0  0  0
    3.9115    0.3239   -0.4474 H   0  0  0  1  0  0  0  0  0  0  0  0
    5.8873    1.6963   -1.7309 H   0  0  0  1  0  0  0  0  0  0  0  0
    6.0212    1.2747   -0.0402 H   0  0  0  1  0  0  0  0  0  0  0  0
    5.0531    3.8696   -1.2419 H   0  0  0  1  0  0  0  0  0  0  0  0
    4.6192    3.1403    1.6384 H   0  0  0  1  0  0  0  0  0  0  0  0
    3.7532    4.3071    0.6673 H   0  0  0  1  0  0  0  0  0  0  0  0
    2.9284    1.6824    1.0655 H   0  0  0  1  0  0  0  0  0  0  0  0
    2.3998    2.6926   -0.2588 H   0  0  0  1  0  0  0  0  0  0  0  0
    7.3202    3.7008   -0.4993 H   0  0  0  1  0  0  0  0  0  0  0  0
    6.8518    3.2661    0.9677 H   0  0  0  1  0  0  0  0  0  0  0  0
  1  2  4  0  0  0  0
  1  6  4  0  0  0  0
  2  3  4  0  0  0  0
  2 18  1  0  0  0  0
  3  4  4  0  0  0  0
  4  5  4  0  0  0  0
  4  7  4  0  0  0  0
  5  6  4  0  0  0  0
  5  9  4  0  0  0  0
  6 25  1  0  0  0  0
  7  8  4  0  0  0  0
  7 26  1  0  0  0  0
  8  9  4  0  0  0  0
  9 10  1  0  0  0  0
 10 11  4  0  0  0  0
 10 15  4  0  0  0  0
 11 12  4  0  0  0  0
 11 27  1  0  0  0  0
 12 13  4  0  0  0  0
 12 28  1  0  0  0  0
 13 14  4  0  0  0  0
 13 16  1  0  0  0  0
 14 15  4  0  0  0  0
 14 29  1  0  0  0  0
 15 30  1  0  0  0  0
 16 17  1  0  0  0  0
 17 31  1  0  0  0  0
 17 32  1  0  0  0  0
 17 33  1  0  0  0  0
 18 19  1  0  0  0  0
 18 34  1  0  0  0  0
 19 20  1  0  0  0  0
 19 23  1  0  0  0  0
 19 35  1  0  0  0  0
 20 21  1  0  0  0  0
 20 36  1  0  0  0  0
 20 37  1  0  0  0  0
 21 22  1  0  0  0  0
 21 24  1  0  0  0  0
 21 38  1  0  0  0  0
 22 23  1  0  0  0  0
 22 39  1  0  0  0  0
 22 40  1  0  0  0  0
 23 41  1  0  0  0  0
 23 42  1  0  0  0  0
 24 43  1  0  0  0  0
 24 44  1  0  0  0  0
M  END
> <ConfClashScore>
0 

> <ConfOneFourInteractionScore>
-0.984337 

> <ConfScore>
-0.0549914 

> <ConfScorePBest>
0.00387312 

> <ConfTolerance>
0.302493 

$$$$
c13.sdf
 OpenBabel04162418043D

 44 47  0  0  0  0  0  0  0  0999 V2000
    2.1079   -0.3772   -1.8532 N   0  0  0  1  0  0  0  0  0  0  0  0
    2.5364    0.5907   -2.6455 C   0  0  0  1  0  0  0  0  0  0  0  0
    2.1525    0.6996   -3.8968 N   0  0  0  1  0  0  0  0  0  0  0  0
    1.2985   -0.1838   -4.4201 C   0  0  0  1  0  0  0  0  0  0  0  0
    0.8204   -1.2304   -3.6033 C   0  0  0  1  0  0  0  0  0  0  0  0
    1.2614   -1.2959   -2.2850 C   0  0  0  1  0  0  0  0  0  0  0  0
    0.7020   -0.3513   -5.6890 C   0  0  0  1  0  0  0  0  0  0  0  0
   -0.0689   -1.4010   -5.6538 N   0  0  0  1  0  0  0  0  0  0  0  0
   -0.0256   -1.9781   -4.3778 N   0  0  0  1  0  0  0  0  0  0  0  0
   -0.7862   -3.1453   -4.0790 C   0  0  0  1  0  0  0  0  0  0  0  0
   -0.8924   -3.5796   -2.7712 C   0  0  0  1  0  0  0  0  0  0  0  0
   -1.7097   -4.6558   -2.4627 C   0  0  0  1  0  0  0  0  0  0  0  0
   -2.4143   -5.2980   -3.4634 C   0  0  0  1  0  0  0  0  0  0  0  0
   -2.3076   -4.8623   -4.7750 C   0  0  0  1  0  0  0  0  0  0  0  0
   -1.4927   -3.7892   -5.0829 C   0  0  0  1  0  0  0  0  0  0  0  0
   -3.2067   -6.3501   -3.1633 O   0  0  0  1  0  0  0  0  0  0  0  0
   -3.3583   -6.7532   -1.7933 C   0  0  0  1  0  0  0  0  0  0  0  0
    3.4083    1.4870   -2.1001 N   0  0  0  1  0  0  0  0  0  0  0  0
    3.9591    2.5995   -2.8811 C   0  0  0  1  0  0  0  0  0  0  0  0
    4.3806    3.7405   -1.9592 C   0  0  0  1  0  0  0  0  0  0  0  0
    5.3991    4.5097   -2.8222 C   0  0  0  1  0  0  0  0  0  0  0  0
    5.9971    3.4857   -3.7739 C   0  0  0  1  0  0  0  0  0  0  0  0
    5.2255    2.1673   -3.5992 C   0  0  0  1  0  0  0  0  0  0  0  0
    4.7127    5.5994   -3.5924 N   0  0  0  1  0  0  0  0  0  0  0  0
    0.9316   -2.0525   -1.6522 H   0  0  0  1  0  0  0  0  0  0  0  0
    0.8529    0.2620   -6.5153 H   0  0  0  1  0  0  0  0  0  0  0  0
   -0.3591   -3.0990   -2.0187 H   0  0  0  1  0  0  0  0  0  0  0  0
   -1.7928   -4.9801   -1.4779 H   0  0  0  1  0  0  0  0  0  0  0  0
   -2.8408   -5.3429   -5.5275 H   0  0  0  1  0  0  0  0  0  0  0  0
   -1.4095   -3.4649   -6.0675 H   0  0  0  1  0  0  0  0  0  0  0  0
   -2.5378   -7.3800   -1.5126 H   0  0  0  1  0  0  0  0  0  0  0  0
   -4.2747   -7.2937   -1.6801 H   0  0  0  1  0  0  0  0  0  0  0  0
   -3.3751   -5.8862   -1.1665 H   0  0  0  1  0  0  0  0  0  0  0  0
    3.6735    1.3848   -1.1621 H   0  0  0  1  0  0  0  0  0  0  0  0
    3.2277    2.9384   -3.5848 H   0  0  0  1  0  0  0  0  0  0  0  0
    3.5458    4.3591   -1.7036 H   0  0  0  1  0  0  0  0  0  0  0  0
    4.8356    3.3672   -1.0656 H   0  0  0  1  0  0  0  0  0  0  0  0
    6.1631    4.9350   -2.2055 H   0  0  0  1  0  0  0  0  0  0  0  0
    7.0308    3.3348   -3.5422 H   0  0  0  1  0  0  0  0  0  0  0  0
    5.9038    3.8298   -4.7829 H   0  0  0  1  0  0  0  0  0  0  0  0
    5.7835    1.4717   -3.0079 H   0  0  0  1  0  0  0  0  0  0  0  0
    4.9977    1.7275   -4.5476 H   0  0  0  1  0  0  0  0  0  0  0  0
    4.2551    6.2019   -2.9695 H   0  0  0  1  0  0  0  0  0  0  0  0
    4.0575    5.2036   -4.2044 H   0  0  0  1  0  0  0  0  0  0  0  0
  1  2  4  0  0  0  0
  1  6  4  0  0  0  0
  2  3  4  0  0  0  0
  2 18  1  0  0  0  0
  3  4  4  0  0  0  0
  4  5  4  0  0  0  0
  4  7  4  0  0  0  0
  5  6  4  0  0  0  0
  5  9  4  0  0  0  0
  6 25  1  0  0  0  0
  7  8  4  0  0  0  0
  7 26  1  0  0  0  0
  8  9  4  0  0  0  0
  9 10  1  0  0  0  0
 10 11  4  0  0  0  0
 10 15  4  0  0  0  0
 11 12  4  0  0  0  0
 11 27  1  0  0  0  0
 12 13  4  0  0  0  0
 12 28  1  0  0  0  0
 13 14  4  0  0  0  0
 13 16  1  0  0  0  0
 14 15  4  0  0  0  0
 14 29  1  0  0  0  0
 15 30  1  0  0  0  0
 16 17  1  0  0  0  0
 17 31  1  0  0  0  0
 17 32  1  0  0  0  0
 17 33  1  0  0  0  0
 18 19  1  0  0  0  0
 18 34  1  0  0  0  0
 19 20  1  0  0  0  0
 19 23  1  0  0  0  0
 19 35  1  0  0  0  0
 20 21  1  0  0  0  0
 20 36  1  0  0  0  0
 20 37  1  0  0  0  0
 21 22  1  0  0  0  0
 21 24  1  0  0  0  0
 21 38  1  0  0  0  0
 22 23  1  0  0  0  0
 22 39  1  0  0  0  0
 22 40  1  0  0  0  0
 23 41  1  0  0  0  0
 23 42  1  0  0  0  0
 24 43  1  0  0  0  0
 24 44  1  0  0  0  0
M  END
> <ConfClashScore>
0 

> <ConfOneFourInteractionScore>
-0.984337 

> <ConfScore>
-0.0549914 

> <ConfScorePBest>
0.0038598 

> <ConfTolerance>
0.304404 

$$$$
c13.sdf
 OpenBabel04162418043D

 44 47  0  0  0  0  0  0  0  0999 V2000
    2.1079   -0.3773   -1.8533 N   0  0  0  1  0  0  0  0  0  0  0  0
    2.5363    0.5907   -2.6455 C   0  0  0  1  0  0  0  0  0  0  0  0
    2.1526    0.6996   -3.8968 N   0  0  0  1  0  0  0  0  0  0  0  0
    1.2985   -0.1837   -4.4201 C   0  0  0  1  0  0  0  0  0  0  0  0
    0.8204   -1.2305   -3.6033 C   0  0  0  1  0  0  0  0  0  0  0  0
    1.2615   -1.2960   -2.2850 C   0  0  0  1  0  0  0  0  0  0  0  0
    0.7019   -0.3514   -5.6890 C   0  0  0  1  0  0  0  0  0  0  0  0
   -0.0689   -1.4010   -5.6537 N   0  0  0  1  0  0  0  0  0  0  0  0
   -0.0256   -1.9781   -4.3778 N   0  0  0  1  0  0  0  0  0  0  0  0
   -0.7907   -3.1271   -4.1277 C   0  0  0  1  0  0  0  0  0  0  0  0
   -0.4303   -4.1342   -3.2525 C   0  0  0  1  0  0  0  0  0  0  0  0
   -1.2629   -5.2279   -3.0738 C   0  0  0  1  0  0  0  0  0  0  0  0
   -2.4511   -5.3139   -3.7747 C   0  0  0  1  0  0  0  0  0  0  0  0
   -2.8125   -4.3037   -4.6525 C   0  0  0  1  0  0  0  0  0  0  0  0
   -1.9823   -3.2132   -4.8309 C   0  0  0  1  0  0  0  0  0  0  0  0
   -3.1778   -6.4284   -3.5223 O   0  0  0  1  0  0  0  0  0  0  0  0
   -4.4949   -6.4957   -4.0909 C   0  0  0  1  0  0  0  0  0  0  0  0
    3.4099    1.5117   -2.1457 N   0  0  0  1  0  0  0  0  0  0  0  0
    3.9911    2.5625   -2.9914 C   0  0  0  1  0  0  0  0  0  0  0  0
    3.8853    3.9336   -2.3238 C   0  0  0  1  0  0  0  0  0  0  0  0
    4.9704    4.7823   -2.9958 C   0  0  0  1  0  0  0  0  0  0  0  0
    6.0553    3.7868   -3.4259 C   0  0  0  1  0  0  0  0  0  0  0  0
    5.5056    2.3895   -3.1301 C   0  0  0  1  0  0  0  0  0  0  0  0
    4.4221    5.4864   -4.1685 N   0  0  0  1  0  0  0  0  0  0  0  0
    0.9317   -2.0526   -1.6522 H   0  0  0  1  0  0  0  0  0  0  0  0
    0.8529    0.2619   -6.5152 H   0  0  0  1  0  0  0  0  0  0  0  0
    0.4657   -4.0715   -2.7281 H   0  0  0  1  0  0  0  0  0  0  0  0
   -0.9936   -5.9838   -2.4122 H   0  0  0  1  0  0  0  0  0  0  0  0
   -3.7084   -4.3663   -5.1769 H   0  0  0  1  0  0  0  0  0  0  0  0
   -2.2515   -2.4573   -5.4924 H   0  0  0  1  0  0  0  0  0  0  0  0
   -4.4390   -6.3142   -5.1439 H   0  0  0  1  0  0  0  0  0  0  0  0
   -5.1184   -5.7557   -3.6343 H   0  0  0  1  0  0  0  0  0  0  0  0
   -4.9085   -7.4673   -3.9181 H   0  0  0  1  0  0  0  0  0  0  0  0
    3.6559    1.4711   -1.1979 H   0  0  0  1  0  0  0  0  0  0  0  0
    3.5106    2.5579   -3.9474 H   0  0  0  1  0  0  0  0  0  0  0  0
    2.9178    4.3595   -2.4894 H   0  0  0  1  0  0  0  0  0  0  0  0
    4.0659    3.8554   -1.2721 H   0  0  0  1  0  0  0  0  0  0  0  0
    5.3693    5.4956   -2.3051 H   0  0  0  1  0  0  0  0  0  0  0  0
    6.2581    3.8904   -4.4715 H   0  0  0  1  0  0  0  0  0  0  0  0
    6.9534    3.9559   -2.8695 H   0  0  0  1  0  0  0  0  0  0  0  0
    5.7327    1.7211   -3.9342 H   0  0  0  1  0  0  0  0  0  0  0  0
    5.9226    2.0092   -2.2209 H   0  0  0  1  0  0  0  0  0  0  0  0
    4.0813    4.8317   -4.8134 H   0  0  0  1  0  0  0  0  0  0  0  0
    5.1283    6.0206   -4.5881 H   0  0  0  1  0  0  0  0  0  0  0  0
  1  2  4  0  0  0  0
  1  6  4  0  0  0  0
  2  3  4  0  0  0  0
  2 18  1  0  0  0  0
  3  4  4  0  0  0  0
  4  5  4  0  0  0  0
  4  7  4  0  0  0  0
  5  6  4  0  0  0  0
  5  9  4  0  0  0  0
  6 25  1  0  0  0  0
  7  8  4  0  0  0  0
  7 26  1  0  0  0  0
  8  9  4  0  0  0  0
  9 10  1  0  0  0  0
 10 11  4  0  0  0  0
 10 15  4  0  0  0  0
 11 12  4  0  0  0  0
 11 27  1  0  0  0  0
 12 13  4  0  0  0  0
 12 28  1  0  0  0  0
 13 14  4  0  0  0  0
 13 16  1  0  0  0  0
 14 15  4  0  0  0  0
 14 29  1  0  0  0  0
 15 30  1  0  0  0  0
 16 17  1  0  0  0  0
 17 31  1  0  0  0  0
 17 32  1  0  0  0  0
 17 33  1  0  0  0  0
 18 19  1  0  0  0  0
 18 34  1  0  0  0  0
 19 20  1  0  0  0  0
 19 23  1  0  0  0  0
 19 35  1  0  0  0  0
 20 21  1  0  0  0  0
 20 36  1  0  0  0  0
 20 37  1  0  0  0  0
 21 22  1  0  0  0  0
 21 24  1  0  0  0  0
 21 38  1  0  0  0  0
 22 23  1  0  0  0  0
 22 39  1  0  0  0  0
 22 40  1  0  0  0  0
 23 41  1  0  0  0  0
 23 42  1  0  0  0  0
 24 43  1  0  0  0  0
 24 44  1  0  0  0  0
M  END
> <ConfClashScore>
0 

> <ConfOneFourInteractionScore>
-0.984337 

> <ConfScore>
-0.0543251 

> <ConfScorePBest>
0.00384647 

> <ConfTolerance>
0.381061 

$$$$
c13.sdf
 OpenBabel04162418043D

 44 47  0  0  0  0  0  0  0  0999 V2000
    2.1080   -0.3774   -1.8533 N   0  0  0  1  0  0  0  0  0  0  0  0
    2.5364    0.5907   -2.6455 C   0  0  0  1  0  0  0  0  0  0  0  0
    2.1526    0.6996   -3.8968 N   0  0  0  1  0  0  0  0  0  0  0  0
    1.2985   -0.1837   -4.4201 C   0  0  0  1  0  0  0  0  0  0  0  0
    0.8205   -1.2304   -3.6033 C   0  0  0  1  0  0  0  0  0  0  0  0
    1.2617   -1.2961   -2.2850 C   0  0  0  1  0  0  0  0  0  0  0  0
    0.7018   -0.3512   -5.6889 C   0  0  0  1  0  0  0  0  0  0  0  0
   -0.0690   -1.4010   -5.6537 N   0  0  0  1  0  0  0  0  0  0  0  0
   -0.0256   -1.9781   -4.3778 N   0  0  0  1  0  0  0  0  0  0  0  0
   -0.8608   -3.0771   -4.0690 C   0  0  0  1  0  0  0  0  0  0  0  0
   -1.8258   -2.9570   -3.0870 C   0  0  0  1  0  0  0  0  0  0  0  0
   -2.6480   -4.0323   -2.7882 C   0  0  0  1  0  0  0  0  0  0  0  0
   -2.4992   -5.2261   -3.4685 C   0  0  0  1  0  0  0  0  0  0  0  0
   -1.5313   -5.3464   -4.4535 C   0  0  0  1  0  0  0  0  0  0  0  0
   -0.7115   -4.2743   -4.7516 C   0  0  0  1  0  0  0  0  0  0  0  0
   -3.2374   -6.3424   -3.2610 O   0  0  0  1  0  0  0  0  0  0  0  0
   -4.2618   -6.2742   -2.2568 C   0  0  0  1  0  0  0  0  0  0  0  0
    3.4098    1.5117   -2.1456 N   0  0  0  1  0  0  0  0  0  0  0  0
    3.7610    1.5483   -0.7187 C   0  0  0  1  0  0  0  0  0  0  0  0
    5.0285    2.4404   -0.4953 C   0  0  0  1  0  0  0  0  0  0  0  0
    4.4190    3.8515   -0.1942 C   0  0  0  1  0  0  0  0  0  0  0  0
    3.1676    3.5332    0.6468 C   0  0  0  1  0  0  0  0  0  0  0  0
    2.6146    2.2049    0.1009 C   0  0  0  1  0  0  0  0  0  0  0  0
    5.3815    4.6947    0.5791 N   0  0  0  1  0  0  0  0  0  0  0  0
    0.9319   -2.0528   -1.6523 H   0  0  0  1  0  0  0  0  0  0  0  0
    0.8527    0.2622   -6.5151 H   0  0  0  1  0  0  0  0  0  0  0  0
   -1.9352   -2.0599   -2.5722 H   0  0  0  1  0  0  0  0  0  0  0  0
   -3.3767   -3.9407   -2.0519 H   0  0  0  1  0  0  0  0  0  0  0  0
   -1.4220   -6.2434   -4.9683 H   0  0  0  1  0  0  0  0  0  0  0  0
    0.0173   -4.3658   -5.4878 H   0  0  0  1  0  0  0  0  0  0  0  0
   -4.4603   -5.2504   -2.0179 H   0  0  0  1  0  0  0  0  0  0  0  0
   -3.9337   -6.7882   -1.3775 H   0  0  0  1  0  0  0  0  0  0  0  0
   -5.1546   -6.7335   -2.6267 H   0  0  0  1  0  0  0  0  0  0  0  0
    3.8136    2.1657   -2.7536 H   0  0  0  1  0  0  0  0  0  0  0  0
    3.9426    0.5531   -0.3700 H   0  0  0  1  0  0  0  0  0  0  0  0
    5.6403    2.4653   -1.3728 H   0  0  0  1  0  0  0  0  0  0  0  0
    5.6062    2.0867    0.3330 H   0  0  0  1  0  0  0  0  0  0  0  0
    4.1524    4.3537   -1.1006 H   0  0  0  1  0  0  0  0  0  0  0  0
    2.4402    4.3106    0.5393 H   0  0  0  1  0  0  0  0  0  0  0  0
    3.4302    3.4300    1.6790 H   0  0  0  1  0  0  0  0  0  0  0  0
    2.3259    1.5657    0.9089 H   0  0  0  1  0  0  0  0  0  0  0  0
    1.7694    2.3885   -0.5290 H   0  0  0  1  0  0  0  0  0  0  0  0
    6.1677    4.8849    0.0258 H   0  0  0  1  0  0  0  0  0  0  0  0
    5.6595    4.2151    1.3873 H   0  0  0  1  0  0  0  0  0  0  0  0
  1  2  4  0  0  0  0
  1  6  4  0  0  0  0
  2  3  4  0  0  0  0
  2 18  1  0  0  0  0
  3  4  4  0  0  0  0
  4  5  4  0  0  0  0
  4  7  4  0  0  0  0
  5  6  4  0  0  0  0
  5  9  4  0  0  0  0
  6 25  1  0  0  0  0
  7  8  4  0  0  0  0
  7 26  1  0  0  0  0
  8  9  4  0  0  0  0
  9 10  1  0  0  0  0
 10 11  4  0  0  0  0
 10 15  4  0  0  0  0
 11 12  4  0  0  0  0
 11 27  1  0  0  0  0
 12 13  4  0  0  0  0
 12 28  1  0  0  0  0
 13 14  4  0  0  0  0
 13 16  1  0  0  0  0
 14 15  4  0  0  0  0
 14 29  1  0  0  0  0
 15 30  1  0  0  0  0
 16 17  1  0  0  0  0
 17 31  1  0  0  0  0
 17 32  1  0  0  0  0
 17 33  1  0  0  0  0
 18 19  1  0  0  0  0
 18 34  1  0  0  0  0
 19 20  1  0  0  0  0
 19 23  1  0  0  0  0
 19 35  1  0  0  0  0
 20 21  1  0  0  0  0
 20 36  1  0  0  0  0
 20 37  1  0  0  0  0
 21 22  1  0  0  0  0
 21 24  1  0  0  0  0
 21 38  1  0  0  0  0
 22 23  1  0  0  0  0
 22 39  1  0  0  0  0
 22 40  1  0  0  0  0
 23 41  1  0  0  0  0
 23 42  1  0  0  0  0
 24 43  1  0  0  0  0
 24 44  1  0  0  0  0
M  END
> <ConfClashScore>
0 

> <ConfOneFourInteractionScore>
-0.984337 

> <ConfScore>
-0.0542839 

> <ConfScorePBest>
0.00383314 

> <ConfTolerance>
0.320035 

$$$$
c13.sdf
 OpenBabel04162418043D

 44 47  0  0  0  0  0  0  0  0999 V2000
    2.1080   -0.3774   -1.8532 N   0  0  0  1  0  0  0  0  0  0  0  0
    2.5364    0.5908   -2.6455 C   0  0  0  1  0  0  0  0  0  0  0  0
    2.1526    0.6996   -3.8968 N   0  0  0  1  0  0  0  0  0  0  0  0
    1.2985   -0.1838   -4.4201 C   0  0  0  1  0  0  0  0  0  0  0  0
    0.8205   -1.2305   -3.6033 C   0  0  0  1  0  0  0  0  0  0  0  0
    1.2615   -1.2960   -2.2850 C   0  0  0  1  0  0  0  0  0  0  0  0
    0.7020   -0.3512   -5.6890 C   0  0  0  1  0  0  0  0  0  0  0  0
   -0.0689   -1.4010   -5.6538 N   0  0  0  1  0  0  0  0  0  0  0  0
   -0.0256   -1.9781   -4.3778 N   0  0  0  1  0  0  0  0  0  0  0  0
   -0.7806   -3.1368   -4.0812 C   0  0  0  1  0  0  0  0  0  0  0  0
   -1.7588   -3.0932   -3.1059 C   0  0  0  1  0  0  0  0  0  0  0  0
   -2.5023   -4.2274   -2.8190 C   0  0  0  1  0  0  0  0  0  0  0  0
   -2.2618   -5.4033   -3.5043 C   0  0  0  1  0  0  0  0  0  0  0  0
   -1.2805   -5.4469   -4.4825 C   0  0  0  1  0  0  0  0  0  0  0  0
   -0.5391   -4.3161   -4.7687 C   0  0  0  1  0  0  0  0  0  0  0  0
   -2.9163   -6.5688   -3.3087 O   0  0  0  1  0  0  0  0  0  0  0  0
   -3.8908   -6.6647   -2.2582 C   0  0  0  1  0  0  0  0  0  0  0  0
    3.3914    1.4695   -2.1105 N   0  0  0  1  0  0  0  0  0  0  0  0
    3.8321    1.5157   -0.7126 C   0  0  0  1  0  0  0  0  0  0  0  0
    5.3461    1.3056   -0.6214 C   0  0  0  1  0  0  0  0  0  0  0  0
    5.7900    2.2031    0.5388 C   0  0  0  1  0  0  0  0  0  0  0  0
    4.9425    3.4453    0.3184 C   0  0  0  1  0  0  0  0  0  0  0  0
    3.5754    2.9056   -0.1150 C   0  0  0  1  0  0  0  0  0  0  0  0
    5.4912    1.5675    1.8649 N   0  0  0  1  0  0  0  0  0  0  0  0
    0.9317   -2.0526   -1.6522 H   0  0  0  1  0  0  0  0  0  0  0  0
    0.8530    0.2621   -6.5152 H   0  0  0  1  0  0  0  0  0  0  0  0
   -1.9372   -2.2095   -2.5874 H   0  0  0  1  0  0  0  0  0  0  0  0
   -3.2412   -4.1935   -2.0879 H   0  0  0  1  0  0  0  0  0  0  0  0
   -1.1022   -6.3306   -5.0010 H   0  0  0  1  0  0  0  0  0  0  0  0
    0.1998   -4.3499   -5.4998 H   0  0  0  1  0  0  0  0  0  0  0  0
   -4.3287   -7.6410   -2.2654 H   0  0  0  1  0  0  0  0  0  0  0  0
   -4.6540   -5.9306   -2.4118 H   0  0  0  1  0  0  0  0  0  0  0  0
   -3.4158   -6.4941   -1.3148 H   0  0  0  1  0  0  0  0  0  0  0  0
    3.7596    2.1496   -2.7123 H   0  0  0  1  0  0  0  0  0  0  0  0
    3.3159    0.7657   -0.1504 H   0  0  0  1  0  0  0  0  0  0  0  0
    5.5736    0.2807   -0.4149 H   0  0  0  1  0  0  0  0  0  0  0  0
    5.8241    1.6010   -1.5320 H   0  0  0  1  0  0  0  0  0  0  0  0
    6.8341    2.4289    0.4781 H   0  0  0  1  0  0  0  0  0  0  0  0
    5.3661    4.0608   -0.4475 H   0  0  0  1  0  0  0  0  0  0  0  0
    4.8566    4.0098    1.2234 H   0  0  0  1  0  0  0  0  0  0  0  0
    2.9220    2.8312    0.7291 H   0  0  0  1  0  0  0  0  0  0  0  0
    3.1385    3.5498   -0.8492 H   0  0  0  1  0  0  0  0  0  0  0  0
    4.5371    1.3496    1.9156 H   0  0  0  1  0  0  0  0  0  0  0  0
    5.7225    2.1907    2.5850 H   0  0  0  1  0  0  0  0  0  0  0  0
  1  2  4  0  0  0  0
  1  6  4  0  0  0  0
  2  3  4  0  0  0  0
  2 18  1  0  0  0  0
  3  4  4  0  0  0  0
  4  5  4  0  0  0  0
  4  7  4  0  0  0  0
  5  6  4  0  0  0  0
  5  9  4  0  0  0  0
  6 25  1  0  0  0  0
  7  8  4  0  0  0  0
  7 26  1  0  0  0  0
  8  9  4  0  0  0  0
  9 10  1  0  0  0  0
 10 11  4  0  0  0  0
 10 15  4  0  0  0  0
 11 12  4  0  0  0  0
 11 27  1  0  0  0  0
 12 13  4  0  0  0  0
 12 28  1  0  0  0  0
 13 14  4  0  0  0  0
 13 16  1  0  0  0  0
 14 15  4  0  0  0  0
 14 29  1  0  0  0  0
 15 30  1  0  0  0  0
 16 17  1  0  0  0  0
 17 31  1  0  0  0  0
 17 32  1  0  0  0  0
 17 33  1  0  0  0  0
 18 19  1  0  0  0  0
 18 34  1  0  0  0  0
 19 20  1  0  0  0  0
 19 23  1  0  0  0  0
 19 35  1  0  0  0  0
 20 21  1  0  0  0  0
 20 36  1  0  0  0  0
 20 37  1  0  0  0  0
 21 22  1  0  0  0  0
 21 24  1  0  0  0  0
 21 38  1  0  0  0  0
 22 23  1  0  0  0  0
 22 39  1  0  0  0  0
 22 40  1  0  0  0  0
 23 41  1  0  0  0  0
 23 42  1  0  0  0  0
 24 43  1  0  0  0  0
 24 44  1  0  0  0  0
M  END
> <ConfClashScore>
0 

> <ConfOneFourInteractionScore>
-0.984337 

> <ConfScore>
-0.0533894 

> <ConfScorePBest>
0.00381981 

> <ConfTolerance>
0.338641 

$$$$
c13.sdf
 OpenBabel04162418043D

 44 47  0  0  0  0  0  0  0  0999 V2000
    2.1080   -0.3774   -1.8532 N   0  0  0  1  0  0  0  0  0  0  0  0
    2.5364    0.5907   -2.6454 C   0  0  0  1  0  0  0  0  0  0  0  0
    2.1526    0.6996   -3.8968 N   0  0  0  1  0  0  0  0  0  0  0  0
    1.2985   -0.1837   -4.4202 C   0  0  0  1  0  0  0  0  0  0  0  0
    0.8205   -1.2305   -3.6033 C   0  0  0  1  0  0  0  0  0  0  0  0
    1.2615   -1.2960   -2.2849 C   0  0  0  1  0  0  0  0  0  0  0  0
    0.7019   -0.3513   -5.6890 C   0  0  0  1  0  0  0  0  0  0  0  0
   -0.0689   -1.4010   -5.6538 N   0  0  0  1  0  0  0  0  0  0  0  0
   -0.0256   -1.9781   -4.3778 N   0  0  0  1  0  0  0  0  0  0  0  0
   -0.7743   -3.1274   -4.0836 C   0  0  0  1  0  0  0  0  0  0  0  0
   -2.1143   -3.2881   -4.3818 C   0  0  0  1  0  0  0  0  0  0  0  0
   -2.7608   -4.4690   -4.0518 C   0  0  0  1  0  0  0  0  0  0  0  0
   -2.0669   -5.4837   -3.4199 C   0  0  0  1  0  0  0  0  0  0  0  0
   -0.7230   -5.3223   -3.1209 C   0  0  0  1  0  0  0  0  0  0  0  0
   -0.0782   -4.1449   -3.4498 C   0  0  0  1  0  0  0  0  0  0  0  0
   -2.8035   -6.5858   -3.1428 O   0  0  0  1  0  0  0  0  0  0  0  0
   -2.1008   -7.7383   -2.6525 C   0  0  0  1  0  0  0  0  0  0  0  0
    3.3977    1.4988   -2.1527 N   0  0  0  1  0  0  0  0  0  0  0  0
    3.9381    2.6204   -2.9303 C   0  0  0  1  0  0  0  0  0  0  0  0
    5.1209    3.2554   -2.2203 C   0  0  0  1  0  0  0  0  0  0  0  0
    6.3331    2.4152   -2.6132 C   0  0  0  1  0  0  0  0  0  0  0  0
    6.0578    2.1028   -4.0965 C   0  0  0  1  0  0  0  0  0  0  0  0
    4.5457    2.1306   -4.2550 C   0  0  0  1  0  0  0  0  0  0  0  0
    7.5936    3.1842   -2.4521 N   0  0  0  1  0  0  0  0  0  0  0  0
    0.9318   -2.0526   -1.6523 H   0  0  0  1  0  0  0  0  0  0  0  0
    0.8529    0.2621   -6.5152 H   0  0  0  1  0  0  0  0  0  0  0  0
   -2.6375   -2.5231   -4.8536 H   0  0  0  1  0  0  0  0  0  0  0  0
   -3.7680   -4.5915   -4.2797 H   0  0  0  1  0  0  0  0  0  0  0  0
   -0.1998   -6.0873   -2.6491 H   0  0  0  1  0  0  0  0  0  0  0  0
    0.9290   -4.0223   -3.2219 H   0  0  0  1  0  0  0  0  0  0  0  0
   -1.6751   -7.5170   -1.6961 H   0  0  0  1  0  0  0  0  0  0  0  0
   -1.3215   -7.9989   -3.3377 H   0  0  0  1  0  0  0  0  0  0  0  0
   -2.7823   -8.5579   -2.5582 H   0  0  0  1  0  0  0  0  0  0  0  0
    3.6812    1.4063   -1.2190 H   0  0  0  1  0  0  0  0  0  0  0  0
    3.1649    3.3390   -3.1054 H   0  0  0  1  0  0  0  0  0  0  0  0
    4.9773    3.2313   -1.1602 H   0  0  0  1  0  0  0  0  0  0  0  0
    5.2489    4.2684   -2.5404 H   0  0  0  1  0  0  0  0  0  0  0  0
    6.3855    1.5179   -2.0327 H   0  0  0  1  0  0  0  0  0  0  0  0
    6.5111    2.8425   -4.7228 H   0  0  0  1  0  0  0  0  0  0  0  0
    6.4408    1.1365   -4.3505 H   0  0  0  1  0  0  0  0  0  0  0  0
    4.1860    1.1478   -4.4779 H   0  0  0  1  0  0  0  0  0  0  0  0
    4.2759    2.7977   -5.0468 H   0  0  0  1  0  0  0  0  0  0  0  0
    7.7000    3.4449   -1.5134 H   0  0  0  1  0  0  0  0  0  0  0  0
    7.5595    3.9878   -3.0121 H   0  0  0  1  0  0  0  0  0  0  0  0
  1  2  4  0  0  0  0
  1  6  4  0  0  0  0
  2  3  4  0  0  0  0
  2 18  1  0  0  0  0
  3  4  4  0  0  0  0
  4  5  4  0  0  0  0
  4  7  4  0  0  0  0
  5  6  4  0  0  0  0
  5  9  4  0  0  0  0
  6 25  1  0  0  0  0
  7  8  4  0  0  0  0
  7 26  1  0  0  0  0
  8  9  4  0  0  0  0
  9 10  1  0  0  0  0
 10 11  4  0  0  0  0
 10 15  4  0  0  0  0
 11 12  4  0  0  0  0
 11 27  1  0  0  0  0
 12 13  4  0  0  0  0
 12 28  1  0  0  0  0
 13 14  4  0  0  0  0
 13 16  1  0  0  0  0
 14 15  4  0  0  0  0
 14 29  1  0  0  0  0
 15 30  1  0  0  0  0
 16 17  1  0  0  0  0
 17 31  1  0  0  0  0
 17 32  1  0  0  0  0
 17 33  1  0  0  0  0
 18 19  1  0  0  0  0
 18 34  1  0  0  0  0
 19 20  1  0  0  0  0
 19 23  1  0  0  0  0
 19 35  1  0  0  0  0
 20 21  1  0  0  0  0
 20 36  1  0  0  0  0
 20 37  1  0  0  0  0
 21 22  1  0  0  0  0
 21 24  1  0  0  0  0
 21 38  1  0  0  0  0
 22 23  1  0  0  0  0
 22 39  1  0  0  0  0
 22 40  1  0  0  0  0
 23 41  1  0  0  0  0
 23 42  1  0  0  0  0
 24 43  1  0  0  0  0
 24 44  1  0  0  0  0
M  END
> <ConfClashScore>
0 

> <ConfOneFourInteractionScore>
-0.985399 

> <ConfScore>
-0.0502001 

> <ConfScorePBest>
0.00380648 

> <ConfTolerance>
0.221609 

$$$$
c13.sdf
 OpenBabel04162418043D

 44 47  0  0  0  0  0  0  0  0999 V2000
    2.1079   -0.3774   -1.8532 N   0  0  0  1  0  0  0  0  0  0  0  0
    2.5363    0.5907   -2.6455 C   0  0  0  1  0  0  0  0  0  0  0  0
    2.1526    0.6996   -3.8968 N   0  0  0  1  0  0  0  0  0  0  0  0
    1.2986   -0.1837   -4.4201 C   0  0  0  1  0  0  0  0  0  0  0  0
    0.8204   -1.2305   -3.6033 C   0  0  0  1  0  0  0  0  0  0  0  0
    1.2614   -1.2960   -2.2850 C   0  0  0  1  0  0  0  0  0  0  0  0
    0.7019   -0.3513   -5.6890 C   0  0  0  1  0  0  0  0  0  0  0  0
   -0.0689   -1.4010   -5.6538 N   0  0  0  1  0  0  0  0  0  0  0  0
   -0.0256   -1.9781   -4.3778 N   0  0  0  1  0  0  0  0  0  0  0  0
   -0.7743   -3.1272   -4.0836 C   0  0  0  1  0  0  0  0  0  0  0  0
   -2.1402   -2.9374   -3.9905 C   0  0  0  1  0  0  0  0  0  0  0  0
   -2.9713   -4.0104   -3.7087 C   0  0  0  1  0  0  0  0  0  0  0  0
   -2.4337   -5.2691   -3.5157 C   0  0  0  1  0  0  0  0  0  0  0  0
   -1.0638   -5.4593   -3.6091 C   0  0  0  1  0  0  0  0  0  0  0  0
   -0.2351   -4.3894   -3.8901 C   0  0  0  1  0  0  0  0  0  0  0  0
   -3.3412   -6.2362   -3.2417 O   0  0  0  1  0  0  0  0  0  0  0  0
   -2.8610   -7.5883   -3.1812 C   0  0  0  1  0  0  0  0  0  0  0  0
    3.3977    1.4989   -2.1527 N   0  0  0  1  0  0  0  0  0  0  0  0
    3.9554    1.5232   -0.7996 C   0  0  0  1  0  0  0  0  0  0  0  0
    4.8707    2.7778   -0.5946 C   0  0  0  1  0  0  0  0  0  0  0  0
    4.8582    2.9743    0.9588 C   0  0  0  1  0  0  0  0  0  0  0  0
    3.5126    2.3812    1.4634 C   0  0  0  1  0  0  0  0  0  0  0  0
    2.8435    1.7111    0.2505 C   0  0  0  1  0  0  0  0  0  0  0  0
    6.0128    2.2474    1.5835 N   0  0  0  1  0  0  0  0  0  0  0  0
    0.9316   -2.0526   -1.6523 H   0  0  0  1  0  0  0  0  0  0  0  0
    0.8529    0.2620   -6.5152 H   0  0  0  1  0  0  0  0  0  0  0  0
   -2.5444   -1.9897   -4.1318 H   0  0  0  1  0  0  0  0  0  0  0  0
   -3.9994   -3.8685   -3.6426 H   0  0  0  1  0  0  0  0  0  0  0  0
   -0.6596   -6.4070   -3.4679 H   0  0  0  1  0  0  0  0  0  0  0  0
    0.7931   -4.5314   -3.9563 H   0  0  0  1  0  0  0  0  0  0  0  0
   -3.6217   -8.2195   -2.7716 H   0  0  0  1  0  0  0  0  0  0  0  0
   -1.9907   -7.6300   -2.5601 H   0  0  0  1  0  0  0  0  0  0  0  0
   -2.6128   -7.9229   -4.1667 H   0  0  0  1  0  0  0  0  0  0  0  0
    3.6796    2.2148   -2.7595 H   0  0  0  1  0  0  0  0  0  0  0  0
    4.5002    0.6198   -0.6215 H   0  0  0  1  0  0  0  0  0  0  0  0
    4.4665    3.6338   -1.0934 H   0  0  0  1  0  0  0  0  0  0  0  0
    5.8625    2.5921   -0.9505 H   0  0  0  1  0  0  0  0  0  0  0  0
    4.9182    4.0149    1.2009 H   0  0  0  1  0  0  0  0  0  0  0  0
    2.8867    3.1601    1.8462 H   0  0  0  1  0  0  0  0  0  0  0  0
    3.6930    1.6581    2.2312 H   0  0  0  1  0  0  0  0  0  0  0  0
    2.0672    2.3367   -0.1383 H   0  0  0  1  0  0  0  0  0  0  0  0
    2.4322    0.7635    0.5296 H   0  0  0  1  0  0  0  0  0  0  0  0
    6.8531    2.6695    1.3073 H   0  0  0  1  0  0  0  0  0  0  0  0
    6.0061    1.3120    1.2916 H   0  0  0  1  0  0  0  0  0  0  0  0
  1  2  4  0  0  0  0
  1  6  4  0  0  0  0
  2  3  4  0  0  0  0
  2 18  1  0  0  0  0
  3  4  4  0  0  0  0
  4  5  4  0  0  0  0
  4  7  4  0  0  0  0
  5  6  4  0  0  0  0
  5  9  4  0  0  0  0
  6 25  1  0  0  0  0
  7  8  4  0  0  0  0
  7 26  1  0  0  0  0
  8  9  4  0  0  0  0
  9 10  1  0  0  0  0
 10 11  4  0  0  0  0
 10 15  4  0  0  0  0
 11 12  4  0  0  0  0
 11 27  1  0  0  0  0
 12 13  4  0  0  0  0
 12 28  1  0  0  0  0
 13 14  4  0  0  0  0
 13 16  1  0  0  0  0
 14 15  4  0  0  0  0
 14 29  1  0  0  0  0
 15 30  1  0  0  0  0
 16 17  1  0  0  0  0
 17 31  1  0  0  0  0
 17 32  1  0  0  0  0
 17 33  1  0  0  0  0
 18 19  1  0  0  0  0
 18 34  1  0  0  0  0
 19 20  1  0  0  0  0
 19 23  1  0  0  0  0
 19 35  1  0  0  0  0
 20 21  1  0  0  0  0
 20 36  1  0  0  0  0
 20 37  1  0  0  0  0
 21 22  1  0  0  0  0
 21 24  1  0  0  0  0
 21 38  1  0  0  0  0
 22 23  1  0  0  0  0
 22 39  1  0  0  0  0
 22 40  1  0  0  0  0
 23 41  1  0  0  0  0
 23 42  1  0  0  0  0
 24 43  1  0  0  0  0
 24 44  1  0  0  0  0
M  END
> <ConfClashScore>
0 

> <ConfOneFourInteractionScore>
-0.985399 

> <ConfScore>
-0.0502001 

> <ConfScorePBest>
0.00379316 

> <ConfTolerance>
0.322946 

$$$$
c13.sdf
 OpenBabel04162418043D

 44 47  0  0  0  0  0  0  0  0999 V2000
    2.1080   -0.3774   -1.8532 N   0  0  0  1  0  0  0  0  0  0  0  0
    2.5363    0.5907   -2.6455 C   0  0  0  1  0  0  0  0  0  0  0  0
    2.1526    0.6996   -3.8968 N   0  0  0  1  0  0  0  0  0  0  0  0
    1.2985   -0.1837   -4.4201 C   0  0  0  1  0  0  0  0  0  0  0  0
    0.8205   -1.2305   -3.6034 C   0  0  0  1  0  0  0  0  0  0  0  0
    1.2616   -1.2961   -2.2850 C   0  0  0  1  0  0  0  0  0  0  0  0
    0.7019   -0.3513   -5.6890 C   0  0  0  1  0  0  0  0  0  0  0  0
   -0.0690   -1.4010   -5.6538 N   0  0  0  1  0  0  0  0  0  0  0  0
   -0.0256   -1.9781   -4.3778 N   0  0  0  1  0  0  0  0  0  0  0  0
   -0.7906   -3.1272   -4.1277 C   0  0  0  1  0  0  0  0  0  0  0  0
   -1.3771   -3.9072   -5.1065 C   0  0  0  1  0  0  0  0  0  0  0  0
   -2.1106   -5.0286   -4.7517 C   0  0  0  1  0  0  0  0  0  0  0  0
   -2.2600   -5.3638   -3.4191 C   0  0  0  1  0  0  0  0  0  0  0  0
   -1.6717   -4.5813   -2.4377 C   0  0  0  1  0  0  0  0  0  0  0  0
   -0.9403   -3.4631   -2.7912 C   0  0  0  1  0  0  0  0  0  0  0  0
   -3.0008   -6.4749   -3.1945 O   0  0  0  1  0  0  0  0  0  0  0  0
   -3.2437   -6.8360   -1.8259 C   0  0  0  1  0  0  0  0  0  0  0  0
    3.3977    1.4989   -2.1526 N   0  0  0  1  0  0  0  0  0  0  0  0
    3.9118    1.5559   -0.7834 C   0  0  0  1  0  0  0  0  0  0  0  0
    4.9901    0.4850   -0.5704 C   0  0  0  1  0  0  0  0  0  0  0  0
    6.2782    1.2370   -0.2194 C   0  0  0  1  0  0  0  0  0  0  0  0
    6.0891    2.6188   -0.8234 C   0  0  0  1  0  0  0  0  0  0  0  0
    4.6105    2.8945   -0.5294 C   0  0  0  1  0  0  0  0  0  0  0  0
    6.4504    1.3280    1.2685 N   0  0  0  1  0  0  0  0  0  0  0  0
    0.9318   -2.0527   -1.6523 H   0  0  0  1  0  0  0  0  0  0  0  0
    0.8528    0.2620   -6.5151 H   0  0  0  1  0  0  0  0  0  0  0  0
   -1.2681   -3.6528   -6.1090 H   0  0  0  1  0  0  0  0  0  0  0  0
   -2.5486   -5.6178   -5.4883 H   0  0  0  1  0  0  0  0  0  0  0  0
   -1.7807   -4.8356   -1.4352 H   0  0  0  1  0  0  0  0  0  0  0  0
   -0.5023   -2.8739   -2.0547 H   0  0  0  1  0  0  0  0  0  0  0  0
   -3.8039   -6.0609   -1.3461 H   0  0  0  1  0  0  0  0  0  0  0  0
   -2.3097   -6.9659   -1.3203 H   0  0  0  1  0  0  0  0  0  0  0  0
   -3.7986   -7.7503   -1.7917 H   0  0  0  1  0  0  0  0  0  0  0  0
    3.7120    2.1907   -2.7716 H   0  0  0  1  0  0  0  0  0  0  0  0
    3.1060    1.4177   -0.0932 H   0  0  0  1  0  0  0  0  0  0  0  0
    5.1266   -0.0865   -1.4646 H   0  0  0  1  0  0  0  0  0  0  0  0
    4.7116   -0.1670    0.2311 H   0  0  0  1  0  0  0  0  0  0  0  0
    7.1291    0.7503   -0.6483 H   0  0  0  1  0  0  0  0  0  0  0  0
    6.7210    3.3403   -0.3490 H   0  0  0  1  0  0  0  0  0  0  0  0
    6.2816    2.6126   -1.8760 H   0  0  0  1  0  0  0  0  0  0  0  0
    4.2294    3.6500   -1.1844 H   0  0  0  1  0  0  0  0  0  0  0  0
    4.4784    3.2029    0.4867 H   0  0  0  1  0  0  0  0  0  0  0  0
    5.6713    1.7741    1.6614 H   0  0  0  1  0  0  0  0  0  0  0  0
    7.2588    1.8429    1.4727 H   0  0  0  1  0  0  0  0  0  0  0  0
  1  2  4  0  0  0  0
  1  6  4  0  0  0  0
  2  3  4  0  0  0  0
  2 18  1  0  0  0  0
  3  4  4  0  0  0  0
  4  5  4  0  0  0  0
  4  7  4  0  0  0  0
  5  6  4  0  0  0  0
  5  9  4  0  0  0  0
  6 25  1  0  0  0  0
  7  8  4  0  0  0  0
  7 26  1  0  0  0  0
  8  9  4  0  0  0  0
  9 10  1  0  0  0  0
 10 11  4  0  0  0  0
 10 15  4  0  0  0  0
 11 12  4  0  0  0  0
 11 27  1  0  0  0  0
 12 13  4  0  0  0  0
 12 28  1  0  0  0  0
 13 14  4  0  0  0  0
 13 16  1  0  0  0  0
 14 15  4  0  0  0  0
 14 29  1  0  0  0  0
 15 30  1  0  0  0  0
 16 17  1  0  0  0  0
 17 31  1  0  0  0  0
 17 32  1  0  0  0  0
 17 33  1  0  0  0  0
 18 19  1  0  0  0  0
 18 34  1  0  0  0  0
 19 20  1  0  0  0  0
 19 23  1  0  0  0  0
 19 35  1  0  0  0  0
 20 21  1  0  0  0  0
 20 36  1  0  0  0  0
 20 37  1  0  0  0  0
 21 22  1  0  0  0  0
 21 24  1  0  0  0  0
 21 38  1  0  0  0  0
 22 23  1  0  0  0  0
 22 39  1  0  0  0  0
 22 40  1  0  0  0  0
 23 41  1  0  0  0  0
 23 42  1  0  0  0  0
 24 43  1  0  0  0  0
 24 44  1  0  0  0  0
M  END
> <ConfClashScore>
0 

> <ConfOneFourInteractionScore>
-0.984337 

> <ConfScore>
-0.0496979 

> <ConfScorePBest>
0.00377983 

> <ConfTolerance>
0.396374 

$$$$
c13.sdf
 OpenBabel04162418043D

 44 47  0  0  0  0  0  0  0  0999 V2000
    2.1080   -0.3774   -1.8532 N   0  0  0  1  0  0  0  0  0  0  0  0
    2.5363    0.5907   -2.6455 C   0  0  0  1  0  0  0  0  0  0  0  0
    2.1526    0.6996   -3.8968 N   0  0  0  1  0  0  0  0  0  0  0  0
    1.2986   -0.1837   -4.4201 C   0  0  0  1  0  0  0  0  0  0  0  0
    0.8205   -1.2305   -3.6034 C   0  0  0  1  0  0  0  0  0  0  0  0
    1.2616   -1.2960   -2.2850 C   0  0  0  1  0  0  0  0  0  0  0  0
    0.7018   -0.3513   -5.6890 C   0  0  0  1  0  0  0  0  0  0  0  0
   -0.0690   -1.4010   -5.6537 N   0  0  0  1  0  0  0  0  0  0  0  0
   -0.0256   -1.9781   -4.3778 N   0  0  0  1  0  0  0  0  0  0  0  0
   -0.8761   -3.0878   -4.1073 C   0  0  0  1  0  0  0  0  0  0  0  0
   -2.2430   -2.9044   -4.0160 C   0  0  0  1  0  0  0  0  0  0  0  0
   -3.0714   -3.9855   -3.7580 C   0  0  0  1  0  0  0  0  0  0  0  0
   -2.5302   -5.2457   -3.5867 C   0  0  0  1  0  0  0  0  0  0  0  0
   -1.1592   -5.4294   -3.6783 C   0  0  0  1  0  0  0  0  0  0  0  0
   -0.3331   -4.3515   -3.9356 C   0  0  0  1  0  0  0  0  0  0  0  0
   -3.2360   -6.3717   -3.3264 O   0  0  0  1  0  0  0  0  0  0  0  0
   -4.6604   -6.2390   -3.2006 C   0  0  0  1  0  0  0  0  0  0  0  0
    3.4218    1.5243   -2.1388 N   0  0  0  1  0  0  0  0  0  0  0  0
    4.0126    1.3261   -0.8120 C   0  0  0  1  0  0  0  0  0  0  0  0
    4.8093    2.5651   -0.3891 C   0  0  0  1  0  0  0  0  0  0  0  0
    3.8065    3.4360    0.3679 C   0  0  0  1  0  0  0  0  0  0  0  0
    3.0106    2.3950    1.1586 C   0  0  0  1  0  0  0  0  0  0  0  0
    2.9139    1.1695    0.2469 C   0  0  0  1  0  0  0  0  0  0  0  0
    4.4951    4.3867    1.2719 N   0  0  0  1  0  0  0  0  0  0  0  0
    0.9318   -2.0527   -1.6523 H   0  0  0  1  0  0  0  0  0  0  0  0
    0.8528    0.2621   -6.5152 H   0  0  0  1  0  0  0  0  0  0  0  0
   -2.6500   -1.9556   -4.1409 H   0  0  0  1  0  0  0  0  0  0  0  0
   -4.1002   -3.8484   -3.6932 H   0  0  0  1  0  0  0  0  0  0  0  0
   -0.7522   -6.3782   -3.5534 H   0  0  0  1  0  0  0  0  0  0  0  0
    0.6957   -4.4887   -4.0003 H   0  0  0  1  0  0  0  0  0  0  0  0
   -5.0538   -5.7664   -4.0763 H   0  0  0  1  0  0  0  0  0  0  0  0
   -4.8884   -5.6434   -2.3414 H   0  0  0  1  0  0  0  0  0  0  0  0
   -5.1003   -7.2080   -3.0903 H   0  0  0  1  0  0  0  0  0  0  0  0
    3.6540    2.3172   -2.6660 H   0  0  0  1  0  0  0  0  0  0  0  0
    4.6436    0.4622   -0.8275 H   0  0  0  1  0  0  0  0  0  0  0  0
    5.6244    2.2897    0.2470 H   0  0  0  1  0  0  0  0  0  0  0  0
    5.1850    3.0823   -1.2471 H   0  0  0  1  0  0  0  0  0  0  0  0
    3.1758    3.9771   -0.3061 H   0  0  0  1  0  0  0  0  0  0  0  0
    3.5203    2.1457    2.0659 H   0  0  0  1  0  0  0  0  0  0  0  0
    2.0341    2.7673    1.3883 H   0  0  0  1  0  0  0  0  0  0  0  0
    3.0708    0.2749    0.8125 H   0  0  0  1  0  0  0  0  0  0  0  0
    1.9524    1.1321   -0.2211 H   0  0  0  1  0  0  0  0  0  0  0  0
    5.1309    4.9259    0.7567 H   0  0  0  1  0  0  0  0  0  0  0  0
    4.9763    3.8880    1.9648 H   0  0  0  1  0  0  0  0  0  0  0  0
  1  2  4  0  0  0  0
  1  6  4  0  0  0  0
  2  3  4  0  0  0  0
  2 18  1  0  0  0  0
  3  4  4  0  0  0  0
  4  5  4  0  0  0  0
  4  7  4  0  0  0  0
  5  6  4  0  0  0  0
  5  9  4  0  0  0  0
  6 25  1  0  0  0  0
  7  8  4  0  0  0  0
  7 26  1  0  0  0  0
  8  9  4  0  0  0  0
  9 10  1  0  0  0  0
 10 11  4  0  0  0  0
 10 15  4  0  0  0  0
 11 12  4  0  0  0  0
 11 27  1  0  0  0  0
 12 13  4  0  0  0  0
 12 28  1  0  0  0  0
 13 14  4  0  0  0  0
 13 16  1  0  0  0  0
 14 15  4  0  0  0  0
 14 29  1  0  0  0  0
 15 30  1  0  0  0  0
 16 17  1  0  0  0  0
 17 31  1  0  0  0  0
 17 32  1  0  0  0  0
 17 33  1  0  0  0  0
 18 19  1  0  0  0  0
 18 34  1  0  0  0  0
 19 20  1  0  0  0  0
 19 23  1  0  0  0  0
 19 35  1  0  0  0  0
 20 21  1  0  0  0  0
 20 36  1  0  0  0  0
 20 37  1  0  0  0  0
 21 22  1  0  0  0  0
 21 24  1  0  0  0  0
 21 38  1  0  0  0  0
 22 23  1  0  0  0  0
 22 39  1  0  0  0  0
 22 40  1  0  0  0  0
 23 41  1  0  0  0  0
 23 42  1  0  0  0  0
 24 43  1  0  0  0  0
 24 44  1  0  0  0  0
M  END
> <ConfClashScore>
0 

> <ConfOneFourInteractionScore>
-0.981848 

> <ConfScore>
-0.0495162 

> <ConfScorePBest>
0.0037665 

> <ConfTolerance>
0.265812 

$$$$
c13.sdf
 OpenBabel04162418043D

 44 47  0  0  0  0  0  0  0  0999 V2000
    2.1080   -0.3775   -1.8532 N   0  0  0  1  0  0  0  0  0  0  0  0
    2.5363    0.5907   -2.6455 C   0  0  0  1  0  0  0  0  0  0  0  0
    2.1525    0.6996   -3.8968 N   0  0  0  1  0  0  0  0  0  0  0  0
    1.2986   -0.1837   -4.4201 C   0  0  0  1  0  0  0  0  0  0  0  0
    0.8204   -1.2305   -3.6034 C   0  0  0  1  0  0  0  0  0  0  0  0
    1.2615   -1.2961   -2.2850 C   0  0  0  1  0  0  0  0  0  0  0  0
    0.7018   -0.3513   -5.6890 C   0  0  0  1  0  0  0  0  0  0  0  0
   -0.0690   -1.4010   -5.6537 N   0  0  0  1  0  0  0  0  0  0  0  0
   -0.0256   -1.9781   -4.3778 N   0  0  0  1  0  0  0  0  0  0  0  0
   -0.7779   -3.1328   -4.0822 C   0  0  0  1  0  0  0  0  0  0  0  0
   -1.6798   -3.0597   -3.0376 C   0  0  0  1  0  0  0  0  0  0  0  0
   -2.4492   -4.1645   -2.7076 C   0  0  0  1  0  0  0  0  0  0  0  0
   -2.3107   -5.3408   -3.4198 C   0  0  0  1  0  0  0  0  0  0  0  0
   -1.4061   -5.4141   -4.4676 C   0  0  0  1  0  0  0  0  0  0  0  0
   -0.6388   -4.3126   -4.7967 C   0  0  0  1  0  0  0  0  0  0  0  0
   -2.9410   -6.4827   -3.0554 O   0  0  0  1  0  0  0  0  0  0  0  0
   -2.6785   -7.6563   -3.8403 C   0  0  0  1  0  0  0  0  0  0  0  0
    3.4202    1.4991   -2.0925 N   0  0  0  1  0  0  0  0  0  0  0  0
    3.8785    2.6466   -2.8824 C   0  0  0  1  0  0  0  0  0  0  0  0
    5.0396    3.3528   -2.1696 C   0  0  0  1  0  0  0  0  0  0  0  0
    6.2298    3.2496   -3.1276 C   0  0  0  1  0  0  0  0  0  0  0  0
    5.5954    3.1063   -4.5153 C   0  0  0  1  0  0  0  0  0  0  0  0
    4.4274    2.1755   -4.2333 C   0  0  0  1  0  0  0  0  0  0  0  0
    7.0629    4.4679   -3.0579 N   0  0  0  1  0  0  0  0  0  0  0  0
    0.9318   -2.0528   -1.6523 H   0  0  0  1  0  0  0  0  0  0  0  0
    0.8528    0.2622   -6.5151 H   0  0  0  1  0  0  0  0  0  0  0  0
   -1.7811   -2.1757   -2.4990 H   0  0  0  1  0  0  0  0  0  0  0  0
   -3.1307   -4.1081   -1.9241 H   0  0  0  1  0  0  0  0  0  0  0  0
   -1.3047   -6.2980   -5.0061 H   0  0  0  1  0  0  0  0  0  0  0  0
    0.0427   -4.3688   -5.5802 H   0  0  0  1  0  0  0  0  0  0  0  0
   -3.1617   -7.5658   -4.7907 H   0  0  0  1  0  0  0  0  0  0  0  0
   -3.0549   -8.5181   -3.3298 H   0  0  0  1  0  0  0  0  0  0  0  0
   -1.6234   -7.7596   -3.9853 H   0  0  0  1  0  0  0  0  0  0  0  0
    3.7398    1.3764   -1.1743 H   0  0  0  1  0  0  0  0  0  0  0  0
    3.0656    3.3266   -3.0296 H   0  0  0  1  0  0  0  0  0  0  0  0
    4.7965    4.3782   -1.9843 H   0  0  0  1  0  0  0  0  0  0  0  0
    5.2617    2.8653   -1.2434 H   0  0  0  1  0  0  0  0  0  0  0  0
    6.8285    2.3937   -2.8955 H   0  0  0  1  0  0  0  0  0  0  0  0
    6.2801    2.6705   -5.2126 H   0  0  0  1  0  0  0  0  0  0  0  0
    5.2586    4.0508   -4.8882 H   0  0  0  1  0  0  0  0  0  0  0  0
    4.7592    1.1601   -4.1733 H   0  0  0  1  0  0  0  0  0  0  0  0
    3.6817    2.2631   -4.9957 H   0  0  0  1  0  0  0  0  0  0  0  0
    7.4427    4.5535   -2.1586 H   0  0  0  1  0  0  0  0  0  0  0  0
    6.5104    5.2529   -3.2549 H   0  0  0  1  0  0  0  0  0  0  0  0
  1  2  4  0  0  0  0
  1  6  4  0  0  0  0
  2  3  4  0  0  0  0
  2 18  1  0  0  0  0
  3  4  4  0  0  0  0
  4  5  4  0  0  0  0
  4  7  4  0  0  0  0
  5  6  4  0  0  0  0
  5  9  4  0  0  0  0
  6 25  1  0  0  0  0
  7  8  4  0  0  0  0
  7 26  1  0  0  0  0
  8  9  4  0  0  0  0
  9 10  1  0  0  0  0
 10 11  4  0  0  0  0
 10 15  4  0  0  0  0
 11 12  4  0  0  0  0
 11 27  1  0  0  0  0
 12 13  4  0  0  0  0
 12 28  1  0  0  0  0
 13 14  4  0  0  0  0
 13 16  1  0  0  0  0
 14 15  4  0  0  0  0
 14 29  1  0  0  0  0
 15 30  1  0  0  0  0
 16 17  1  0  0  0  0
 17 31  1  0  0  0  0
 17 32  1  0  0  0  0
 17 33  1  0  0  0  0
 18 19  1  0  0  0  0
 18 34  1  0  0  0  0
 19 20  1  0  0  0  0
 19 23  1  0  0  0  0
 19 35  1  0  0  0  0
 20 21  1  0  0  0  0
 20 36  1  0  0  0  0
 20 37  1  0  0  0  0
 21 22  1  0  0  0  0
 21 24  1  0  0  0  0
 21 38  1  0  0  0  0
 22 23  1  0  0  0  0
 22 39  1  0  0  0  0
 22 40  1  0  0  0  0
 23 41  1  0  0  0  0
 23 42  1  0  0  0  0
 24 43  1  0  0  0  0
 24 44  1  0  0  0  0
M  END
> <ConfClashScore>
0.000308609 

> <ConfOneFourInteractionScore>
-0.985399 

> <ConfScore>
-0.0493902 

> <ConfScorePBest>
0.00375317 

> <ConfTolerance>
0.318932 

$$$$
c13.sdf
 OpenBabel04162418043D

 44 47  0  0  0  0  0  0  0  0999 V2000
    2.1079   -0.3774   -1.8532 N   0  0  0  1  0  0  0  0  0  0  0  0
    2.5364    0.5908   -2.6455 C   0  0  0  1  0  0  0  0  0  0  0  0
    2.1525    0.6996   -3.8968 N   0  0  0  1  0  0  0  0  0  0  0  0
    1.2985   -0.1837   -4.4201 C   0  0  0  1  0  0  0  0  0  0  0  0
    0.8205   -1.2304   -3.6034 C   0  0  0  1  0  0  0  0  0  0  0  0
    1.2615   -1.2961   -2.2850 C   0  0  0  1  0  0  0  0  0  0  0  0
    0.7019   -0.3513   -5.6890 C   0  0  0  1  0  0  0  0  0  0  0  0
   -0.0689   -1.4009   -5.6538 N   0  0  0  1  0  0  0  0  0  0  0  0
   -0.0256   -1.9781   -4.3778 N   0  0  0  1  0  0  0  0  0  0  0  0
   -0.7857   -3.1447   -4.0792 C   0  0  0  1  0  0  0  0  0  0  0  0
   -1.5475   -3.1970   -2.9271 C   0  0  0  1  0  0  0  0  0  0  0  0
   -2.2914   -4.3305   -2.6392 C   0  0  0  1  0  0  0  0  0  0  0  0
   -2.2674   -5.4106   -3.5013 C   0  0  0  1  0  0  0  0  0  0  0  0
   -1.5033   -5.3580   -4.6567 C   0  0  0  1  0  0  0  0  0  0  0  0
   -0.7614   -4.2278   -4.9439 C   0  0  0  1  0  0  0  0  0  0  0  0
   -2.9461   -6.5690   -3.3236 O   0  0  0  1  0  0  0  0  0  0  0  0
   -3.6533   -6.7316   -2.0843 C   0  0  0  1  0  0  0  0  0  0  0  0
    3.4009    1.5329   -2.2120 N   0  0  0  1  0  0  0  0  0  0  0  0
    3.8877    1.6235   -0.8286 C   0  0  0  1  0  0  0  0  0  0  0  0
    4.5198    0.3038   -0.3732 C   0  0  0  1  0  0  0  0  0  0  0  0
    5.9149    0.3076   -1.0045 C   0  0  0  1  0  0  0  0  0  0  0  0
    6.2647    1.7868   -1.2144 C   0  0  0  1  0  0  0  0  0  0  0  0
    5.0569    2.5882   -0.7168 C   0  0  0  1  0  0  0  0  0  0  0  0
    6.9035   -0.3379   -0.0898 N   0  0  0  1  0  0  0  0  0  0  0  0
    0.9318   -2.0527   -1.6523 H   0  0  0  1  0  0  0  0  0  0  0  0
    0.8528    0.2621   -6.5152 H   0  0  0  1  0  0  0  0  0  0  0  0
   -1.5625   -2.3858   -2.2764 H   0  0  0  1  0  0  0  0  0  0  0  0
   -2.8678   -4.3683   -1.7744 H   0  0  0  1  0  0  0  0  0  0  0  0
   -1.4882   -6.1691   -5.3075 H   0  0  0  1  0  0  0  0  0  0  0  0
   -0.1850   -4.1901   -5.8088 H   0  0  0  1  0  0  0  0  0  0  0  0
   -4.2652   -7.6079   -2.1347 H   0  0  0  1  0  0  0  0  0  0  0  0
   -4.2709   -5.8751   -1.9113 H   0  0  0  1  0  0  0  0  0  0  0  0
   -2.9508   -6.8330   -1.2837 H   0  0  0  1  0  0  0  0  0  0  0  0
    3.7229    2.1954   -2.8584 H   0  0  0  1  0  0  0  0  0  0  0  0
    3.0831    1.9118   -0.1850 H   0  0  0  1  0  0  0  0  0  0  0  0
    4.5881    0.2660    0.6940 H   0  0  0  1  0  0  0  0  0  0  0  0
    3.9483   -0.5299   -0.7242 H   0  0  0  1  0  0  0  0  0  0  0  0
    5.9032   -0.2105   -1.9405 H   0  0  0  1  0  0  0  0  0  0  0  0
    6.4375    1.9831   -2.2521 H   0  0  0  1  0  0  0  0  0  0  0  0
    7.1376    2.0447   -0.6520 H   0  0  0  1  0  0  0  0  0  0  0  0
    5.1987    2.8941    0.2986 H   0  0  0  1  0  0  0  0  0  0  0  0
    4.8961    3.4498   -1.3304 H   0  0  0  1  0  0  0  0  0  0  0  0
    6.6233   -1.2581    0.0980 H   0  0  0  1  0  0  0  0  0  0  0  0
    6.9501    0.1667    0.7490 H   0  0  0  1  0  0  0  0  0  0  0  0
  1  2  4  0  0  0  0
  1  6  4  0  0  0  0
  2  3  4  0  0  0  0
  2 18  1  0  0  0  0
  3  4  4  0  0  0  0
  4  5  4  0  0  0  0
  4  7  4  0  0  0  0
  5  6  4  0  0  0  0
  5  9  4  0  0  0  0
  6 25  1  0  0  0  0
  7  8  4  0  0  0  0
  7 26  1  0  0  0  0
  8  9  4  0  0  0  0
  9 10  1  0  0  0  0
 10 11  4  0  0  0  0
 10 15  4  0  0  0  0
 11 12  4  0  0  0  0
 11 27  1  0  0  0  0
 12 13  4  0  0  0  0
 12 28  1  0  0  0  0
 13 14  4  0  0  0  0
 13 16  1  0  0  0  0
 14 15  4  0  0  0  0
 14 29  1  0  0  0  0
 15 30  1  0  0  0  0
 16 17  1  0  0  0  0
 17 31  1  0  0  0  0
 17 32  1  0  0  0  0
 17 33  1  0  0  0  0
 18 19  1  0  0  0  0
 18 34  1  0  0  0  0
 19 20  1  0  0  0  0
 19 23  1  0  0  0  0
 19 35  1  0  0  0  0
 20 21  1  0  0  0  0
 20 36  1  0  0  0  0
 20 37  1  0  0  0  0
 21 22  1  0  0  0  0
 21 24  1  0  0  0  0
 21 38  1  0  0  0  0
 22 23  1  0  0  0  0
 22 39  1  0  0  0  0
 22 40  1  0  0  0  0
 23 41  1  0  0  0  0
 23 42  1  0  0  0  0
 24 43  1  0  0  0  0
 24 44  1  0  0  0  0
M  END
> <ConfClashScore>
0 

> <ConfOneFourInteractionScore>
-0.985399 

> <ConfScore>
-0.0486345 

> <ConfScorePBest>
0.00373984 

> <ConfTolerance>
0.274227 

$$$$
c13.sdf
 OpenBabel04162418043D

 44 47  0  0  0  0  0  0  0  0999 V2000
    2.1079   -0.3774   -1.8533 N   0  0  0  1  0  0  0  0  0  0  0  0
    2.5363    0.5907   -2.6455 C   0  0  0  1  0  0  0  0  0  0  0  0
    2.1526    0.6996   -3.8968 N   0  0  0  1  0  0  0  0  0  0  0  0
    1.2986   -0.1837   -4.4201 C   0  0  0  1  0  0  0  0  0  0  0  0
    0.8204   -1.2305   -3.6033 C   0  0  0  1  0  0  0  0  0  0  0  0
    1.2616   -1.2960   -2.2850 C   0  0  0  1  0  0  0  0  0  0  0  0
    0.7019   -0.3512   -5.6890 C   0  0  0  1  0  0  0  0  0  0  0  0
   -0.0689   -1.4010   -5.6538 N   0  0  0  1  0  0  0  0  0  0  0  0
   -0.0256   -1.9781   -4.3778 N   0  0  0  1  0  0  0  0  0  0  0  0
   -0.6632   -3.2097   -4.1259 C   0  0  0  1  0  0  0  0  0  0  0  0
   -0.2299   -4.3125   -4.8375 C   0  0  0  1  0  0  0  0  0  0  0  0
   -0.8187   -5.5493   -4.6250 C   0  0  0  1  0  0  0  0  0  0  0  0
   -1.8425   -5.6787   -3.7056 C   0  0  0  1  0  0  0  0  0  0  0  0
   -2.2769   -4.5725   -2.9919 C   0  0  0  1  0  0  0  0  0  0  0  0
   -1.6899   -3.3392   -3.2037 C   0  0  0  1  0  0  0  0  0  0  0  0
   -2.4182   -6.8797   -3.5028 O   0  0  0  1  0  0  0  0  0  0  0  0
   -3.4709   -6.8943   -2.5107 C   0  0  0  1  0  0  0  0  0  0  0  0
    3.4219    1.5245   -2.1387 N   0  0  0  1  0  0  0  0  0  0  0  0
    3.7242    1.4746   -0.7048 C   0  0  0  1  0  0  0  0  0  0  0  0
    4.3147    0.0759   -0.3111 C   0  0  0  1  0  0  0  0  0  0  0  0
    5.6544    0.3318    0.4036 C   0  0  0  1  0  0  0  0  0  0  0  0
    6.1366    1.6770   -0.2361 C   0  0  0  1  0  0  0  0  0  0  0  0
    4.8273    2.4671   -0.3516 C   0  0  0  1  0  0  0  0  0  0  0  0
    5.4587    0.4768    1.8789 N   0  0  0  1  0  0  0  0  0  0  0  0
    0.9317   -2.0527   -1.6522 H   0  0  0  1  0  0  0  0  0  0  0  0
    0.8528    0.2621   -6.5152 H   0  0  0  1  0  0  0  0  0  0  0  0
    0.5377   -4.2144   -5.5323 H   0  0  0  1  0  0  0  0  0  0  0  0
   -0.4901   -6.3799   -5.1575 H   0  0  0  1  0  0  0  0  0  0  0  0
   -3.0445   -4.6705   -2.2971 H   0  0  0  1  0  0  0  0  0  0  0  0
   -2.0186   -2.5085   -2.6712 H   0  0  0  1  0  0  0  0  0  0  0  0
   -4.3226   -6.3664   -2.8859 H   0  0  0  1  0  0  0  0  0  0  0  0
   -3.1239   -6.4213   -1.6159 H   0  0  0  1  0  0  0  0  0  0  0  0
   -3.7448   -7.9063   -2.2967 H   0  0  0  1  0  0  0  0  0  0  0  0
    3.8341    2.1978   -2.7194 H   0  0  0  1  0  0  0  0  0  0  0  0
    2.8360    1.6813   -0.1451 H   0  0  0  1  0  0  0  0  0  0  0  0
    3.6411   -0.4346    0.3450 H   0  0  0  1  0  0  0  0  0  0  0  0
    4.4746   -0.5146   -1.1889 H   0  0  0  1  0  0  0  0  0  0  0  0
    6.3507   -0.4577    0.2115 H   0  0  0  1  0  0  0  0  0  0  0  0
    6.8379    2.1785    0.3975 H   0  0  0  1  0  0  0  0  0  0  0  0
    6.5771    1.5134   -1.1974 H   0  0  0  1  0  0  0  0  0  0  0  0
    4.9134    3.2066   -1.1200 H   0  0  0  1  0  0  0  0  0  0  0  0
    4.6051    2.9442    0.5801 H   0  0  0  1  0  0  0  0  0  0  0  0
    5.1169   -0.3643    2.2478 H   0  0  0  1  0  0  0  0  0  0  0  0
    4.8155    1.1952    2.0539 H   0  0  0  1  0  0  0  0  0  0  0  0
  1  2  4  0  0  0  0
  1  6  4  0  0  0  0
  2  3  4  0  0  0  0
  2 18  1  0  0  0  0
  3  4  4  0  0  0  0
  4  5  4  0  0  0  0
  4  7  4  0  0  0  0
  5  6  4  0  0  0  0
  5  9  4  0  0  0  0
  6 25  1  0  0  0  0
  7  8  4  0  0  0  0
  7 26  1  0  0  0  0
  8  9  4  0  0  0  0
  9 10  1  0  0  0  0
 10 11  4  0  0  0  0
 10 15  4  0  0  0  0
 11 12  4  0  0  0  0
 11 27  1  0  0  0  0
 12 13  4  0  0  0  0
 12 28  1  0  0  0  0
 13 14  4  0  0  0  0
 13 16  1  0  0  0  0
 14 15  4  0  0  0  0
 14 29  1  0  0  0  0
 15 30  1  0  0  0  0
 16 17  1  0  0  0  0
 17 31  1  0  0  0  0
 17 32  1  0  0  0  0
 17 33  1  0  0  0  0
 18 19  1  0  0  0  0
 18 34  1  0  0  0  0
 19 20  1  0  0  0  0
 19 23  1  0  0  0  0
 19 35  1  0  0  0  0
 20 21  1  0  0  0  0
 20 36  1  0  0  0  0
 20 37  1  0  0  0  0
 21 22  1  0  0  0  0
 21 24  1  0  0  0  0
 21 38  1  0  0  0  0
 22 23  1  0  0  0  0
 22 39  1  0  0  0  0
 22 40  1  0  0  0  0
 23 41  1  0  0  0  0
 23 42  1  0  0  0  0
 24 43  1  0  0  0  0
 24 44  1  0  0  0  0
M  END
> <ConfClashScore>
0 

> <ConfOneFourInteractionScore>
-0.981848 

> <ConfScore>
-0.0486345 

> <ConfScorePBest>
0.00372651 

> <ConfTolerance>
0.327201 

$$$$
c13.sdf
 OpenBabel04162418043D

 44 47  0  0  0  0  0  0  0  0999 V2000
    2.1080   -0.3774   -1.8532 N   0  0  0  1  0  0  0  0  0  0  0  0
    2.5363    0.5907   -2.6455 C   0  0  0  1  0  0  0  0  0  0  0  0
    2.1525    0.6996   -3.8968 N   0  0  0  1  0  0  0  0  0  0  0  0
    1.2986   -0.1837   -4.4201 C   0  0  0  1  0  0  0  0  0  0  0  0
    0.8205   -1.2305   -3.6033 C   0  0  0  1  0  0  0  0  0  0  0  0
    1.2616   -1.2961   -2.2850 C   0  0  0  1  0  0  0  0  0  0  0  0
    0.7019   -0.3513   -5.6890 C   0  0  0  1  0  0  0  0  0  0  0  0
   -0.0690   -1.4009   -5.6537 N   0  0  0  1  0  0  0  0  0  0  0  0
   -0.0256   -1.9781   -4.3778 N   0  0  0  1  0  0  0  0  0  0  0  0
   -0.9256   -3.0205   -4.0155 C   0  0  0  1  0  0  0  0  0  0  0  0
   -1.1010   -4.1047   -4.8546 C   0  0  0  1  0  0  0  0  0  0  0  0
   -1.9731   -5.1219   -4.4994 C   0  0  0  1  0  0  0  0  0  0  0  0
   -2.6711   -5.0496   -3.3087 C   0  0  0  1  0  0  0  0  0  0  0  0
   -2.4952   -3.9622   -2.4672 C   0  0  0  1  0  0  0  0  0  0  0  0
   -1.6256   -2.9478   -2.8213 C   0  0  0  1  0  0  0  0  0  0  0  0
   -3.5410   -6.0061   -2.9059 O   0  0  0  1  0  0  0  0  0  0  0  0
   -3.9048   -7.0091   -3.8673 C   0  0  0  1  0  0  0  0  0  0  0  0
    3.4220    1.5244   -2.1388 N   0  0  0  1  0  0  0  0  0  0  0  0
    3.9041    2.5633   -3.0382 C   0  0  0  1  0  0  0  0  0  0  0  0
    4.9720    3.4199   -2.3447 C   0  0  0  1  0  0  0  0  0  0  0  0
    6.2560    3.2506   -3.1636 C   0  0  0  1  0  0  0  0  0  0  0  0
    6.0872    1.9125   -3.8643 C   0  0  0  1  0  0  0  0  0  0  0  0
    4.6041    1.9402   -4.2492 C   0  0  0  1  0  0  0  0  0  0  0  0
    6.3964    4.3594   -4.1649 N   0  0  0  1  0  0  0  0  0  0  0  0
    0.9318   -2.0528   -1.6523 H   0  0  0  1  0  0  0  0  0  0  0  0
    0.8528    0.2621   -6.5151 H   0  0  0  1  0  0  0  0  0  0  0  0
   -0.5787   -4.1572   -5.7524 H   0  0  0  1  0  0  0  0  0  0  0  0
   -2.1020   -5.9396   -5.1288 H   0  0  0  1  0  0  0  0  0  0  0  0
   -3.0174   -3.9095   -1.5694 H   0  0  0  1  0  0  0  0  0  0  0  0
   -1.4967   -2.1300   -2.1919 H   0  0  0  1  0  0  0  0  0  0  0  0
   -4.5098   -7.7543   -3.3944 H   0  0  0  1  0  0  0  0  0  0  0  0
   -3.0196   -7.4648   -4.2592 H   0  0  0  1  0  0  0  0  0  0  0  0
   -4.4561   -6.5555   -4.6643 H   0  0  0  1  0  0  0  0  0  0  0  0
    3.7156    1.4880   -1.2044 H   0  0  0  1  0  0  0  0  0  0  0  0
    3.0828    3.1723   -3.3533 H   0  0  0  1  0  0  0  0  0  0  0  0
    4.6727    4.4472   -2.3330 H   0  0  0  1  0  0  0  0  0  0  0  0
    5.1248    3.0809   -1.3414 H   0  0  0  1  0  0  0  0  0  0  0  0
    7.1135    3.2366   -2.5236 H   0  0  0  1  0  0  0  0  0  0  0  0
    6.7124    1.8455   -4.7301 H   0  0  0  1  0  0  0  0  0  0  0  0
    6.3025    1.0983   -3.2045 H   0  0  0  1  0  0  0  0  0  0  0  0
    4.4515    2.5386   -5.1231 H   0  0  0  1  0  0  0  0  0  0  0  0
    4.2412    0.9495   -4.4270 H   0  0  0  1  0  0  0  0  0  0  0  0
    7.2015    4.2133   -4.7042 H   0  0  0  1  0  0  0  0  0  0  0  0
    6.4693    5.2163   -3.6950 H   0  0  0  1  0  0  0  0  0  0  0  0
  1  2  4  0  0  0  0
  1  6  4  0  0  0  0
  2  3  4  0  0  0  0
  2 18  1  0  0  0  0
  3  4  4  0  0  0  0
  4  5  4  0  0  0  0
  4  7  4  0  0  0  0
  5  6  4  0  0  0  0
  5  9  4  0  0  0  0
  6 25  1  0  0  0  0
  7  8  4  0  0  0  0
  7 26  1  0  0  0  0
  8  9  4  0  0  0  0
  9 10  1  0  0  0  0
 10 11  4  0  0  0  0
 10 15  4  0  0  0  0
 11 12  4  0  0  0  0
 11 27  1  0  0  0  0
 12 13  4  0  0  0  0
 12 28  1  0  0  0  0
 13 14  4  0  0  0  0
 13 16  1  0  0  0  0
 14 15  4  0  0  0  0
 14 29  1  0  0  0  0
 15 30  1  0  0  0  0
 16 17  1  0  0  0  0
 17 31  1  0  0  0  0
 17 32  1  0  0  0  0
 17 33  1  0  0  0  0
 18 19  1  0  0  0  0
 18 34  1  0  0  0  0
 19 20  1  0  0  0  0
 19 23  1  0  0  0  0
 19 35  1  0  0  0  0
 20 21  1  0  0  0  0
 20 36  1  0  0  0  0
 20 37  1  0  0  0  0
 21 22  1  0  0  0  0
 21 24  1  0  0  0  0
 21 38  1  0  0  0  0
 22 23  1  0  0  0  0
 22 39  1  0  0  0  0
 22 40  1  0  0  0  0
 23 41  1  0  0  0  0
 23 42  1  0  0  0  0
 24 43  1  0  0  0  0
 24 44  1  0  0  0  0
M  END
> <ConfClashScore>
0 

> <ConfOneFourInteractionScore>
-0.981848 

> <ConfScore>
-0.0473934 

> <ConfScorePBest>
0.00371319 

> <ConfTolerance>
0.379872 

$$$$
c13.sdf
 OpenBabel04162418043D

 44 47  0  0  0  0  0  0  0  0999 V2000
    2.1079   -0.3772   -1.8532 N   0  0  0  1  0  0  0  0  0  0  0  0
    2.5363    0.5907   -2.6455 C   0  0  0  1  0  0  0  0  0  0  0  0
    2.1525    0.6996   -3.8968 N   0  0  0  1  0  0  0  0  0  0  0  0
    1.2985   -0.1838   -4.4201 C   0  0  0  1  0  0  0  0  0  0  0  0
    0.8204   -1.2304   -3.6033 C   0  0  0  1  0  0  0  0  0  0  0  0
    1.2615   -1.2960   -2.2849 C   0  0  0  1  0  0  0  0  0  0  0  0
    0.7019   -0.3513   -5.6890 C   0  0  0  1  0  0  0  0  0  0  0  0
   -0.0689   -1.4011   -5.6538 N   0  0  0  1  0  0  0  0  0  0  0  0
   -0.0256   -1.9780   -4.3778 N   0  0  0  1  0  0  0  0  0  0  0  0
   -0.7857   -3.1448   -4.0791 C   0  0  0  1  0  0  0  0  0  0  0  0
   -2.1654   -3.1076   -4.1506 C   0  0  0  1  0  0  0  0  0  0  0  0
   -2.9049   -4.2446   -3.8651 C   0  0  0  1  0  0  0  0  0  0  0  0
   -2.2630   -5.4141   -3.5036 C   0  0  0  1  0  0  0  0  0  0  0  0
   -0.8792   -5.4512   -3.4320 C   0  0  0  1  0  0  0  0  0  0  0  0
   -0.1416   -4.3174   -3.7166 C   0  0  0  1  0  0  0  0  0  0  0  0
   -3.0394   -6.4815   -3.2340 O   0  0  0  1  0  0  0  0  0  0  0  0
   -2.3248   -7.7232   -3.0338 C   0  0  0  1  0  0  0  0  0  0  0  0
    3.4293    1.5323   -2.1345 N   0  0  0  1  0  0  0  0  0  0  0  0
    3.9325    2.5021   -3.1170 C   0  0  0  1  0  0  0  0  0  0  0  0
    5.0056    3.3982   -2.4859 C   0  0  0  1  0  0  0  0  0  0  0  0
    6.2453    3.2855   -3.3762 C   0  0  0  1  0  0  0  0  0  0  0  0
    5.7443    2.7354   -4.7138 C   0  0  0  1  0  0  0  0  0  0  0  0
    4.6354    1.7802   -4.2719 C   0  0  0  1  0  0  0  0  0  0  0  0
    6.8739    4.6287   -3.5674 N   0  0  0  1  0  0  0  0  0  0  0  0
    0.9317   -2.0526   -1.6522 H   0  0  0  1  0  0  0  0  0  0  0  0
    0.8529    0.2620   -6.5152 H   0  0  0  1  0  0  0  0  0  0  0  0
   -2.6487   -2.2265   -4.4187 H   0  0  0  1  0  0  0  0  0  0  0  0
   -3.9430   -4.2178   -3.9228 H   0  0  0  1  0  0  0  0  0  0  0  0
   -0.3959   -6.3322   -3.1638 H   0  0  0  1  0  0  0  0  0  0  0  0
    0.8965   -4.3442   -3.6589 H   0  0  0  1  0  0  0  0  0  0  0  0
   -1.6938   -7.6377   -2.1739 H   0  0  0  1  0  0  0  0  0  0  0  0
   -1.7264   -7.9329   -3.8956 H   0  0  0  1  0  0  0  0  0  0  0  0
   -3.0258   -8.5177   -2.8838 H   0  0  0  1  0  0  0  0  0  0  0  0
    3.7002    1.5461   -1.1929 H   0  0  0  1  0  0  0  0  0  0  0  0
    3.1196    3.0931   -3.4842 H   0  0  0  1  0  0  0  0  0  0  0  0
    5.2308    3.0631   -1.4950 H   0  0  0  1  0  0  0  0  0  0  0  0
    4.6665    4.4126   -2.4514 H   0  0  0  1  0  0  0  0  0  0  0  0
    6.9578    2.6164   -2.9409 H   0  0  0  1  0  0  0  0  0  0  0  0
    5.3590    3.5166   -5.3352 H   0  0  0  1  0  0  0  0  0  0  0  0
    6.5204    2.2147   -5.2347 H   0  0  0  1  0  0  0  0  0  0  0  0
    5.0490    0.8511   -3.9392 H   0  0  0  1  0  0  0  0  0  0  0  0
    3.9516    1.5996   -5.0749 H   0  0  0  1  0  0  0  0  0  0  0  0
    6.1962    5.2662   -3.8750 H   0  0  0  1  0  0  0  0  0  0  0  0
    7.5875    4.5629   -4.2360 H   0  0  0  1  0  0  0  0  0  0  0  0
  1  2  4  0  0  0  0
  1  6  4  0  0  0  0
  2  3  4  0  0  0  0
  2 18  1  0  0  0  0
  3  4  4  0  0  0  0
  4  5  4  0  0  0  0
  4  7  4  0  0  0  0
  5  6  4  0  0  0  0
  5  9  4  0  0  0  0
  6 25  1  0  0  0  0
  7  8  4  0  0  0  0
  7 26  1  0  0  0  0
  8  9  4  0  0  0  0
  9 10  1  0  0  0  0
 10 11  4  0  0  0  0
 10 15  4  0  0  0  0
 11 12  4  0  0  0  0
 11 27  1  0  0  0  0
 12 13  4  0  0  0  0
 12 28  1  0  0  0  0
 13 14  4  0  0  0  0
 13 16  1  0  0  0  0
 14 15  4  0  0  0  0
 14 29  1  0  0  0  0
 15 30  1  0  0  0  0
 16 17  1  0  0  0  0
 17 31  1  0  0  0  0
 17 32  1  0  0  0  0
 17 33  1  0  0  0  0
 18 19  1  0  0  0  0
 18 34  1  0  0  0  0
 19 20  1  0  0  0  0
 19 23  1  0  0  0  0
 19 35  1  0  0  0  0
 20 21  1  0  0  0  0
 20 36  1  0  0  0  0
 20 37  1  0  0  0  0
 21 22  1  0  0  0  0
 21 24  1  0  0  0  0
 21 38  1  0  0  0  0
 22 23  1  0  0  0  0
 22 39  1  0  0  0  0
 22 40  1  0  0  0  0
 23 41  1  0  0  0  0
 23 42  1  0  0  0  0
 24 43  1  0  0  0  0
 24 44  1  0  0  0  0
M  END
> <ConfClashScore>
0 

> <ConfOneFourInteractionScore>
-0.981848 

> <ConfScore>
-0.0471977 

> <ConfScorePBest>
0.00369986 

> <ConfTolerance>
0.316153 

$$$$
c13.sdf
 OpenBabel04162418043D

 44 47  0  0  0  0  0  0  0  0999 V2000
    2.1079   -0.3773   -1.8532 N   0  0  0  1  0  0  0  0  0  0  0  0
    2.5363    0.5907   -2.6455 C   0  0  0  1  0  0  0  0  0  0  0  0
    2.1525    0.6996   -3.8967 N   0  0  0  1  0  0  0  0  0  0  0  0
    1.2985   -0.1837   -4.4201 C   0  0  0  1  0  0  0  0  0  0  0  0
    0.8204   -1.2305   -3.6033 C   0  0  0  1  0  0  0  0  0  0  0  0
    1.2615   -1.2961   -2.2849 C   0  0  0  1  0  0  0  0  0  0  0  0
    0.7019   -0.3513   -5.6889 C   0  0  0  1  0  0  0  0  0  0  0  0
   -0.0690   -1.4010   -5.6537 N   0  0  0  1  0  0  0  0  0  0  0  0
   -0.0256   -1.9781   -4.3778 N   0  0  0  1  0  0  0  0  0  0  0  0
   -0.7779   -3.1329   -4.0821 C   0  0  0  1  0  0  0  0  0  0  0  0
   -1.9121   -3.4792   -4.7919 C   0  0  0  1  0  0  0  0  0  0  0  0
   -2.6116   -4.6295   -4.4620 C   0  0  0  1  0  0  0  0  0  0  0  0
   -2.1780   -5.4274   -3.4201 C   0  0  0  1  0  0  0  0  0  0  0  0
   -1.0404   -5.0799   -2.7083 C   0  0  0  1  0  0  0  0  0  0  0  0
   -0.3428   -3.9329   -3.0370 C   0  0  0  1  0  0  0  0  0  0  0  0
   -2.9394   -6.5144   -3.1885 O   0  0  0  1  0  0  0  0  0  0  0  0
   -2.6530   -7.2106   -1.9533 C   0  0  0  1  0  0  0  0  0  0  0  0
    3.3976    1.4989   -2.1526 N   0  0  0  1  0  0  0  0  0  0  0  0
    3.8646    1.5124   -0.7632 C   0  0  0  1  0  0  0  0  0  0  0  0
    4.8686    0.3778   -0.5231 C   0  0  0  1  0  0  0  0  0  0  0  0
    6.1329    1.0283    0.0432 C   0  0  0  1  0  0  0  0  0  0  0  0
    5.6958    2.4026    0.5561 C   0  0  0  1  0  0  0  0  0  0  0  0
    4.6349    2.8042   -0.4686 C   0  0  0  1  0  0  0  0  0  0  0  0
    6.6778    0.2180    1.1457 N   0  0  0  1  0  0  0  0  0  0  0  0
    0.9318   -2.0527   -1.6522 H   0  0  0  1  0  0  0  0  0  0  0  0
    0.8528    0.2621   -6.5152 H   0  0  0  1  0  0  0  0  0  0  0  0
   -2.2407   -2.8768   -5.5734 H   0  0  0  1  0  0  0  0  0  0  0  0
   -3.4628   -4.8924   -4.9987 H   0  0  0  1  0  0  0  0  0  0  0  0
   -0.7118   -5.6823   -1.9267 H   0  0  0  1  0  0  0  0  0  0  0  0
    0.5083   -3.6701   -2.5005 H   0  0  0  1  0  0  0  0  0  0  0  0
   -3.3905   -7.9687   -1.7912 H   0  0  0  1  0  0  0  0  0  0  0  0
   -2.6716   -6.5157   -1.1399 H   0  0  0  1  0  0  0  0  0  0  0  0
   -1.6851   -7.6625   -2.0150 H   0  0  0  1  0  0  0  0  0  0  0  0
    3.7328    2.1926   -2.7583 H   0  0  0  1  0  0  0  0  0  0  0  0
    3.0271    1.4171   -0.1040 H   0  0  0  1  0  0  0  0  0  0  0  0
    4.4700   -0.3262    0.1771 H   0  0  0  1  0  0  0  0  0  0  0  0
    5.0901   -0.1204   -1.4438 H   0  0  0  1  0  0  0  0  0  0  0  0
    6.8731    1.1338   -0.7222 H   0  0  0  1  0  0  0  0  0  0  0  0
    6.5129    3.0934    0.5603 H   0  0  0  1  0  0  0  0  0  0  0  0
    5.2798    2.3355    1.5397 H   0  0  0  1  0  0  0  0  0  0  0  0
    3.9816    3.5480   -0.0626 H   0  0  0  1  0  0  0  0  0  0  0  0
    5.0944    3.1800   -1.3588 H   0  0  0  1  0  0  0  0  0  0  0  0
    7.4792    0.6521    1.5057 H   0  0  0  1  0  0  0  0  0  0  0  0
    6.9115   -0.6730    0.8114 H   0  0  0  1  0  0  0  0  0  0  0  0
  1  2  4  0  0  0  0
  1  6  4  0  0  0  0
  2  3  4  0  0  0  0
  2 18  1  0  0  0  0
  3  4  4  0  0  0  0
  4  5  4  0  0  0  0
  4  7  4  0  0  0  0
  5  6  4  0  0  0  0
  5  9  4  0  0  0  0
  6 25  1  0  0  0  0
  7  8  4  0  0  0  0
  7 26  1  0  0  0  0
  8  9  4  0  0  0  0
  9 10  1  0  0  0  0
 10 11  4  0  0  0  0
 10 15  4  0  0  0  0
 11 12  4  0  0  0  0
 11 27  1  0  0  0  0
 12 13  4  0  0  0  0
 12 28  1  0  0  0  0
 13 14  4  0  0  0  0
 13 16  1  0  0  0  0
 14 15  4  0  0  0  0
 14 29  1  0  0  0  0
 15 30  1  0  0  0  0
 16 17  1  0  0  0  0
 17 31  1  0  0  0  0
 17 32  1  0  0  0  0
 17 33  1  0  0  0  0
 18 19  1  0  0  0  0
 18 34  1  0  0  0  0
 19 20  1  0  0  0  0
 19 23  1  0  0  0  0
 19 35  1  0  0  0  0
 20 21  1  0  0  0  0
 20 36  1  0  0  0  0
 20 37  1  0  0  0  0
 21 22  1  0  0  0  0
 21 24  1  0  0  0  0
 21 38  1  0  0  0  0
 22 23  1  0  0  0  0
 22 39  1  0  0  0  0
 22 40  1  0  0  0  0
 23 41  1  0  0  0  0
 23 42  1  0  0  0  0
 24 43  1  0  0  0  0
 24 44  1  0  0  0  0
M  END
> <ConfClashScore>
0 

> <ConfOneFourInteractionScore>
-0.984337 

> <ConfScore>
-0.0469183 

> <ConfScorePBest>
0.00368653 

> <ConfTolerance>
0.310336 

$$$$
c13.sdf
 OpenBabel04162418043D

 44 47  0  0  0  0  0  0  0  0999 V2000
    2.1079   -0.3774   -1.8532 N   0  0  0  1  0  0  0  0  0  0  0  0
    2.5364    0.5907   -2.6454 C   0  0  0  1  0  0  0  0  0  0  0  0
    2.1526    0.6996   -3.8968 N   0  0  0  1  0  0  0  0  0  0  0  0
    1.2985   -0.1837   -4.4202 C   0  0  0  1  0  0  0  0  0  0  0  0
    0.8205   -1.2304   -3.6034 C   0  0  0  1  0  0  0  0  0  0  0  0
    1.2614   -1.2960   -2.2850 C   0  0  0  1  0  0  0  0  0  0  0  0
    0.7020   -0.3513   -5.6890 C   0  0  0  1  0  0  0  0  0  0  0  0
   -0.0689   -1.4011   -5.6538 N   0  0  0  1  0  0  0  0  0  0  0  0
   -0.0256   -1.9781   -4.3778 N   0  0  0  1  0  0  0  0  0  0  0  0
   -0.8017   -3.1437   -4.1242 C   0  0  0  1  0  0  0  0  0  0  0  0
   -1.3901   -3.8195   -5.1765 C   0  0  0  1  0  0  0  0  0  0  0  0
   -2.0643   -5.0085   -4.9460 C   0  0  0  1  0  0  0  0  0  0  0  0
   -2.1529   -5.5156   -3.6633 C   0  0  0  1  0  0  0  0  0  0  0  0
   -1.5628   -4.8377   -2.6081 C   0  0  0  1  0  0  0  0  0  0  0  0
   -0.8905   -3.6521   -2.8376 C   0  0  0  1  0  0  0  0  0  0  0  0
   -2.7838   -6.6548   -3.3184 O   0  0  0  1  0  0  0  0  0  0  0  0
   -3.3708   -7.3869   -4.4194 C   0  0  0  1  0  0  0  0  0  0  0  0
    3.4009    1.5022   -2.1508 N   0  0  0  1  0  0  0  0  0  0  0  0
    3.9735    2.5950   -2.9383 C   0  0  0  1  0  0  0  0  0  0  0  0
    4.4576    3.7178   -2.0146 C   0  0  0  1  0  0  0  0  0  0  0  0
    5.9367    3.4334   -1.8120 C   0  0  0  1  0  0  0  0  0  0  0  0
    6.3673    2.9787   -3.2108 C   0  0  0  1  0  0  0  0  0  0  0  0
    5.2099    2.1066   -3.7049 C   0  0  0  1  0  0  0  0  0  0  0  0
    6.6729    4.6625   -1.3902 N   0  0  0  1  0  0  0  0  0  0  0  0
    0.9317   -2.0526   -1.6523 H   0  0  0  1  0  0  0  0  0  0  0  0
    0.8530    0.2620   -6.5152 H   0  0  0  1  0  0  0  0  0  0  0  0
   -1.3270   -3.4359   -6.1411 H   0  0  0  1  0  0  0  0  0  0  0  0
   -2.5037   -5.5191   -5.7385 H   0  0  0  1  0  0  0  0  0  0  0  0
   -1.6259   -5.2213   -1.6435 H   0  0  0  1  0  0  0  0  0  0  0  0
   -0.4511   -3.1415   -2.0452 H   0  0  0  1  0  0  0  0  0  0  0  0
   -2.8256   -7.1805   -5.3166 H   0  0  0  1  0  0  0  0  0  0  0  0
   -4.3900   -7.0861   -4.5444 H   0  0  0  1  0  0  0  0  0  0  0  0
   -3.3309   -8.4358   -4.2114 H   0  0  0  1  0  0  0  0  0  0  0  0
    3.6603    1.4278   -1.2087 H   0  0  0  1  0  0  0  0  0  0  0  0
    3.2379    2.9676   -3.6203 H   0  0  0  1  0  0  0  0  0  0  0  0
    3.9359    3.6903   -1.0808 H   0  0  0  1  0  0  0  0  0  0  0  0
    4.3160    4.6735   -2.4748 H   0  0  0  1  0  0  0  0  0  0  0  0
    6.0882    2.6601   -1.0880 H   0  0  0  1  0  0  0  0  0  0  0  0
    7.2735    2.4117   -3.1615 H   0  0  0  1  0  0  0  0  0  0  0  0
    6.5077    3.8211   -3.8554 H   0  0  0  1  0  0  0  0  0  0  0  0
    5.4000    1.0758   -3.4900 H   0  0  0  1  0  0  0  0  0  0  0  0
    5.0704    2.2320   -4.7584 H   0  0  0  1  0  0  0  0  0  0  0  0
    6.3243    4.9731   -0.5287 H   0  0  0  1  0  0  0  0  0  0  0  0
    6.5504    5.3636   -2.0638 H   0  0  0  1  0  0  0  0  0  0  0  0
  1  2  4  0  0  0  0
  1  6  4  0  0  0  0
  2  3  4  0  0  0  0
  2 18  1  0  0  0  0
  3  4  4  0  0  0  0
  4  5  4  0  0  0  0
  4  7  4  0  0  0  0
  5  6  4  0  0  0  0
  5  9  4  0  0  0  0
  6 25  1  0  0  0  0
  7  8  4  0  0  0  0
  7 26  1  0  0  0  0
  8  9  4  0  0  0  0
  9 10  1  0  0  0  0
 10 11  4  0  0  0  0
 10 15  4  0  0  0  0
 11 12  4  0  0  0  0
 11 27  1  0  0  0  0
 12 13  4  0  0  0  0
 12 28  1  0  0  0  0
 13 14  4  0  0  0  0
 13 16  1  0  0  0  0
 14 15  4  0  0  0  0
 14 29  1  0  0  0  0
 15 30  1  0  0  0  0
 16 17  1  0  0  0  0
 17 31  1  0  0  0  0
 17 32  1  0  0  0  0
 17 33  1  0  0  0  0
 18 19  1  0  0  0  0
 18 34  1  0  0  0  0
 19 20  1  0  0  0  0
 19 23  1  0  0  0  0
 19 35  1  0  0  0  0
 20 21  1  0  0  0  0
 20 36  1  0  0  0  0
 20 37  1  0  0  0  0
 21 22  1  0  0  0  0
 21 24  1  0  0  0  0
 21 38  1  0  0  0  0
 22 23  1  0  0  0  0
 22 39  1  0  0  0  0
 22 40  1  0  0  0  0
 23 41  1  0  0  0  0
 23 42  1  0  0  0  0
 24 43  1  0  0  0  0
 24 44  1  0  0  0  0
M  END
> <ConfClashScore>
0 

> <ConfOneFourInteractionScore>
-0.984337 

> <ConfScore>
-0.0468955 

> <ConfScorePBest>
0.0036732 

> <ConfTolerance>
0.238324 

$$$$
c13.sdf
 OpenBabel04162418043D

 44 47  0  0  0  0  0  0  0  0999 V2000
    2.1080   -0.3774   -1.8532 N   0  0  0  1  0  0  0  0  0  0  0  0
    2.5363    0.5907   -2.6455 C   0  0  0  1  0  0  0  0  0  0  0  0
    2.1526    0.6996   -3.8968 N   0  0  0  1  0  0  0  0  0  0  0  0
    1.2985   -0.1837   -4.4201 C   0  0  0  1  0  0  0  0  0  0  0  0
    0.8205   -1.2305   -3.6034 C   0  0  0  1  0  0  0  0  0  0  0  0
    1.2616   -1.2960   -2.2850 C   0  0  0  1  0  0  0  0  0  0  0  0
    0.7020   -0.3513   -5.6890 C   0  0  0  1  0  0  0  0  0  0  0  0
   -0.0689   -1.4010   -5.6538 N   0  0  0  1  0  0  0  0  0  0  0  0
   -0.0256   -1.9781   -4.3778 N   0  0  0  1  0  0  0  0  0  0  0  0
   -0.8399   -3.0914   -4.0234 C   0  0  0  1  0  0  0  0  0  0  0  0
   -0.2682   -4.3372   -3.8469 C   0  0  0  1  0  0  0  0  0  0  0  0
   -1.0601   -5.4197   -3.4966 C   0  0  0  1  0  0  0  0  0  0  0  0
   -2.4219   -5.2543   -3.3292 C   0  0  0  1  0  0  0  0  0  0  0  0
   -2.9953   -4.0046   -3.5062 C   0  0  0  1  0  0  0  0  0  0  0  0
   -2.2057   -2.9252   -3.8555 C   0  0  0  1  0  0  0  0  0  0  0  0
   -3.2940   -6.2347   -2.9940 O   0  0  0  1  0  0  0  0  0  0  0  0
   -2.7495   -7.5400   -2.7444 C   0  0  0  1  0  0  0  0  0  0  0  0
    3.3977    1.4989   -2.1526 N   0  0  0  1  0  0  0  0  0  0  0  0
    3.9652    2.6790   -2.8124 C   0  0  0  1  0  0  0  0  0  0  0  0
    4.3970    3.7116   -1.7685 C   0  0  0  1  0  0  0  0  0  0  0  0
    5.7464    4.2483   -2.2522 C   0  0  0  1  0  0  0  0  0  0  0  0
    6.3809    3.0046   -2.8750 C   0  0  0  1  0  0  0  0  0  0  0  0
    5.2283    2.2934   -3.5927 C   0  0  0  1  0  0  0  0  0  0  0  0
    5.5691    5.3210   -3.2566 N   0  0  0  1  0  0  0  0  0  0  0  0
    0.9318   -2.0527   -1.6523 H   0  0  0  1  0  0  0  0  0  0  0  0
    0.8529    0.2621   -6.5152 H   0  0  0  1  0  0  0  0  0  0  0  0
    0.7560   -4.4625   -3.9768 H   0  0  0  1  0  0  0  0  0  0  0  0
   -0.6293   -6.3563   -3.3598 H   0  0  0  1  0  0  0  0  0  0  0  0
   -4.0195   -3.8793   -3.3763 H   0  0  0  1  0  0  0  0  0  0  0  0
   -2.6365   -1.9886   -3.9923 H   0  0  0  1  0  0  0  0  0  0  0  0
   -1.7293   -7.4483   -2.4351 H   0  0  0  1  0  0  0  0  0  0  0  0
   -2.7993   -8.1241   -3.6395 H   0  0  0  1  0  0  0  0  0  0  0  0
   -3.3141   -8.0201   -1.9728 H   0  0  0  1  0  0  0  0  0  0  0  0
    3.6848    1.3518   -1.2272 H   0  0  0  1  0  0  0  0  0  0  0  0
    3.2381    3.1032   -3.4729 H   0  0  0  1  0  0  0  0  0  0  0  0
    3.6802    4.5037   -1.7085 H   0  0  0  1  0  0  0  0  0  0  0  0
    4.5011    3.2507   -0.8085 H   0  0  0  1  0  0  0  0  0  0  0  0
    6.3329    4.6162   -1.4363 H   0  0  0  1  0  0  0  0  0  0  0  0
    6.7982    2.3750   -2.1172 H   0  0  0  1  0  0  0  0  0  0  0  0
    7.1452    3.2802   -3.5712 H   0  0  0  1  0  0  0  0  0  0  0  0
    5.3720    1.2333   -3.5726 H   0  0  0  1  0  0  0  0  0  0  0  0
    5.1576    2.6251   -4.6074 H   0  0  0  1  0  0  0  0  0  0  0  0
    6.4458    5.6068   -3.5882 H   0  0  0  1  0  0  0  0  0  0  0  0
    5.1123    6.0831   -2.8430 H   0  0  0  1  0  0  0  0  0  0  0  0
  1  2  4  0  0  0  0
  1  6  4  0  0  0  0
  2  3  4  0  0  0  0
  2 18  1  0  0  0  0
  3  4  4  0  0  0  0
  4  5  4  0  0  0  0
  4  7  4  0  0  0  0
  5  6  4  0  0  0  0
  5  9  4  0  0  0  0
  6 25  1  0  0  0  0
  7  8  4  0  0  0  0
  7 26  1  0  0  0  0
  8  9  4  0  0  0  0
  9 10  1  0  0  0  0
 10 11  4  0  0  0  0
 10 15  4  0  0  0  0
 11 12  4  0  0  0  0
 11 27  1  0  0  0  0
 12 13  4  0  0  0  0
 12 28  1  0  0  0  0
 13 14  4  0  0  0  0
 13 16  1  0  0  0  0
 14 15  4  0  0  0  0
 14 29  1  0  0  0  0
 15 30  1  0  0  0  0
 16 17  1  0  0  0  0
 17 31  1  0  0  0  0
 17 32  1  0  0  0  0
 17 33  1  0  0  0  0
 18 19  1  0  0  0  0
 18 34  1  0  0  0  0
 19 20  1  0  0  0  0
 19 23  1  0  0  0  0
 19 35  1  0  0  0  0
 20 21  1  0  0  0  0
 20 36  1  0  0  0  0
 20 37  1  0  0  0  0
 21 22  1  0  0  0  0
 21 24  1  0  0  0  0
 21 38  1  0  0  0  0
 22 23  1  0  0  0  0
 22 39  1  0  0  0  0
 22 40  1  0  0  0  0
 23 41  1  0  0  0  0
 23 42  1  0  0  0  0
 24 43  1  0  0  0  0
 24 44  1  0  0  0  0
M  END
> <ConfClashScore>
0 

> <ConfOneFourInteractionScore>
-0.984337 

> <ConfScore>
-0.0467279 

> <ConfScorePBest>
0.00365987 

> <ConfTolerance>
0.394857 

$$$$
c13.sdf
 OpenBabel04162418043D

 44 47  0  0  0  0  0  0  0  0999 V2000
    2.1080   -0.3774   -1.8532 N   0  0  0  1  0  0  0  0  0  0  0  0
    2.5364    0.5907   -2.6455 C   0  0  0  1  0  0  0  0  0  0  0  0
    2.1526    0.6996   -3.8969 N   0  0  0  1  0  0  0  0  0  0  0  0
    1.2985   -0.1837   -4.4201 C   0  0  0  1  0  0  0  0  0  0  0  0
    0.8204   -1.2304   -3.6033 C   0  0  0  1  0  0  0  0  0  0  0  0
    1.2615   -1.2960   -2.2849 C   0  0  0  1  0  0  0  0  0  0  0  0
    0.7019   -0.3513   -5.6890 C   0  0  0  1  0  0  0  0  0  0  0  0
   -0.0689   -1.4010   -5.6537 N   0  0  0  1  0  0  0  0  0  0  0  0
   -0.0256   -1.9781   -4.3778 N   0  0  0  1  0  0  0  0  0  0  0  0
   -0.7842   -3.1423   -4.0796 C   0  0  0  1  0  0  0  0  0  0  0  0
   -0.1424   -4.3376   -3.8159 C   0  0  0  1  0  0  0  0  0  0  0  0
   -0.8830   -5.4914   -3.6115 C   0  0  0  1  0  0  0  0  0  0  0  0
   -2.2629   -5.4477   -3.6769 C   0  0  0  1  0  0  0  0  0  0  0  0
   -2.9065   -4.2488   -3.9415 C   0  0  0  1  0  0  0  0  0  0  0  0
   -2.1681   -3.0983   -4.1452 C   0  0  0  1  0  0  0  0  0  0  0  0
   -3.0886   -6.5065   -3.5005 O   0  0  0  1  0  0  0  0  0  0  0  0
   -2.4765   -7.7934   -3.3222 C   0  0  0  1  0  0  0  0  0  0  0  0
    3.4042    1.4827   -2.1027 N   0  0  0  1  0  0  0  0  0  0  0  0
    4.0940    2.5230   -2.8712 C   0  0  0  1  0  0  0  0  0  0  0  0
    3.7925    3.9166   -2.3147 C   0  0  0  1  0  0  0  0  0  0  0  0
    4.7654    4.1154   -1.1500 C   0  0  0  1  0  0  0  0  0  0  0  0
    5.8899    3.0897   -1.3414 C   0  0  0  1  0  0  0  0  0  0  0  0
    5.6098    2.4293   -2.6957 C   0  0  0  1  0  0  0  0  0  0  0  0
    5.3236    5.5050   -1.1739 N   0  0  0  1  0  0  0  0  0  0  0  0
    0.9318   -2.0526   -1.6522 H   0  0  0  1  0  0  0  0  0  0  0  0
    0.8529    0.2620   -6.5152 H   0  0  0  1  0  0  0  0  0  0  0  0
    0.8961   -4.3714   -3.7706 H   0  0  0  1  0  0  0  0  0  0  0  0
   -0.4003   -6.3901   -3.4090 H   0  0  0  1  0  0  0  0  0  0  0  0
   -3.9449   -4.2150   -3.9867 H   0  0  0  1  0  0  0  0  0  0  0  0
   -2.6508   -2.1996   -4.3477 H   0  0  0  1  0  0  0  0  0  0  0  0
   -1.9303   -8.0544   -4.2045 H   0  0  0  1  0  0  0  0  0  0  0  0
   -3.2347   -8.5267   -3.1425 H   0  0  0  1  0  0  0  0  0  0  0  0
   -1.8088   -7.7579   -2.4870 H   0  0  0  1  0  0  0  0  0  0  0  0
    3.5799    1.4278   -1.1402 H   0  0  0  1  0  0  0  0  0  0  0  0
    3.8172    2.4484   -3.9021 H   0  0  0  1  0  0  0  0  0  0  0  0
    2.7812    3.9698   -1.9693 H   0  0  0  1  0  0  0  0  0  0  0  0
    3.9529    4.6613   -3.0660 H   0  0  0  1  0  0  0  0  0  0  0  0
    4.2662    3.9470   -0.2187 H   0  0  0  1  0  0  0  0  0  0  0  0
    5.8693    2.3610   -0.5580 H   0  0  0  1  0  0  0  0  0  0  0  0
    6.8428    3.5762   -1.3517 H   0  0  0  1  0  0  0  0  0  0  0  0
    6.1130    2.9532   -3.4814 H   0  0  0  1  0  0  0  0  0  0  0  0
    5.9255    1.4070   -2.6887 H   0  0  0  1  0  0  0  0  0  0  0  0
    4.5910    6.1529   -1.1102 H   0  0  0  1  0  0  0  0  0  0  0  0
    5.8123    5.6461   -2.0116 H   0  0  0  1  0  0  0  0  0  0  0  0
  1  2  4  0  0  0  0
  1  6  4  0  0  0  0
  2  3  4  0  0  0  0
  2 18  1  0  0  0  0
  3  4  4  0  0  0  0
  4  5  4  0  0  0  0
  4  7  4  0  0  0  0
  5  6  4  0  0  0  0
  5  9  4  0  0  0  0
  6 25  1  0  0  0  0
  7  8  4  0  0  0  0
  7 26  1  0  0  0  0
  8  9  4  0  0  0  0
  9 10  1  0  0  0  0
 10 11  4  0  0  0  0
 10 15  4  0  0  0  0
 11 12  4  0  0  0  0
 11 27  1  0  0  0  0
 12 13  4  0  0  0  0
 12 28  1  0  0  0  0
 13 14  4  0  0  0  0
 13 16  1  0  0  0  0
 14 15  4  0  0  0  0
 14 29  1  0  0  0  0
 15 30  1  0  0  0  0
 16 17  1  0  0  0  0
 17 31  1  0  0  0  0
 17 32  1  0  0  0  0
 17 33  1  0  0  0  0
 18 19  1  0  0  0  0
 18 34  1  0  0  0  0
 19 20  1  0  0  0  0
 19 23  1  0  0  0  0
 19 35  1  0  0  0  0
 20 21  1  0  0  0  0
 20 36  1  0  0  0  0
 20 37  1  0  0  0  0
 21 22  1  0  0  0  0
 21 24  1  0  0  0  0
 21 38  1  0  0  0  0
 22 23  1  0  0  0  0
 22 39  1  0  0  0  0
 22 40  1  0  0  0  0
 23 41  1  0  0  0  0
 23 42  1  0  0  0  0
 24 43  1  0  0  0  0
 24 44  1  0  0  0  0
M  END
> <ConfClashScore>
0 

> <ConfOneFourInteractionScore>
-0.984337 

> <ConfScore>
-0.0466443 

> <ConfScorePBest>
0.00364655 

> <ConfTolerance>
0.359527 

$$$$
c13.sdf
 OpenBabel04162418043D

 44 47  0  0  0  0  0  0  0  0999 V2000
    2.1080   -0.3773   -1.8533 N   0  0  0  1  0  0  0  0  0  0  0  0
    2.5364    0.5907   -2.6455 C   0  0  0  1  0  0  0  0  0  0  0  0
    2.1526    0.6996   -3.8968 N   0  0  0  1  0  0  0  0  0  0  0  0
    1.2985   -0.1837   -4.4201 C   0  0  0  1  0  0  0  0  0  0  0  0
    0.8204   -1.2305   -3.6033 C   0  0  0  1  0  0  0  0  0  0  0  0
    1.2616   -1.2960   -2.2850 C   0  0  0  1  0  0  0  0  0  0  0  0
    0.7019   -0.3512   -5.6890 C   0  0  0  1  0  0  0  0  0  0  0  0
   -0.0690   -1.4010   -5.6538 N   0  0  0  1  0  0  0  0  0  0  0  0
   -0.0256   -1.9781   -4.3778 N   0  0  0  1  0  0  0  0  0  0  0  0
   -0.7969   -3.1366   -4.1258 C   0  0  0  1  0  0  0  0  0  0  0  0
   -0.5317   -4.3062   -4.8126 C   0  0  0  1  0  0  0  0  0  0  0  0
   -1.2841   -5.4430   -4.5618 C   0  0  0  1  0  0  0  0  0  0  0  0
   -2.3030   -5.4055   -3.6286 C   0  0  0  1  0  0  0  0  0  0  0  0
   -2.5690   -4.2323   -2.9398 C   0  0  0  1  0  0  0  0  0  0  0  0
   -1.8188   -3.0987   -3.1899 C   0  0  0  1  0  0  0  0  0  0  0  0
   -2.9678   -6.5670   -3.4738 O   0  0  0  1  0  0  0  0  0  0  0  0
   -3.8989   -6.5966   -2.3670 C   0  0  0  1  0  0  0  0  0  0  0  0
    3.4009    1.5022   -2.1507 N   0  0  0  1  0  0  0  0  0  0  0  0
    3.8722    1.5131   -0.7597 C   0  0  0  1  0  0  0  0  0  0  0  0
    5.0101    0.5040   -0.5709 C   0  0  0  1  0  0  0  0  0  0  0  0
    6.2877    1.3001   -0.8377 C   0  0  0  1  0  0  0  0  0  0  0  0
    5.9723    2.6436   -0.1756 C   0  0  0  1  0  0  0  0  0  0  0  0
    4.4779    2.8780   -0.4088 C   0  0  0  1  0  0  0  0  0  0  0  0
    7.4573    0.6583   -0.2136 N   0  0  0  1  0  0  0  0  0  0  0  0
    0.9318   -2.0527   -1.6524 H   0  0  0  1  0  0  0  0  0  0  0  0
    0.8529    0.2622   -6.5152 H   0  0  0  1  0  0  0  0  0  0  0  0
    0.2324   -4.3334   -5.5177 H   0  0  0  1  0  0  0  0  0  0  0  0
   -1.0819   -6.3243   -5.0757 H   0  0  0  1  0  0  0  0  0  0  0  0
   -3.3330   -4.2051   -2.2348 H   0  0  0  1  0  0  0  0  0  0  0  0
   -2.0209   -2.2175   -2.6759 H   0  0  0  1  0  0  0  0  0  0  0  0
   -3.3956   -6.9358   -1.4858 H   0  0  0  1  0  0  0  0  0  0  0  0
   -4.7041   -7.2628   -2.5964 H   0  0  0  1  0  0  0  0  0  0  0  0
   -4.2856   -5.6130   -2.2003 H   0  0  0  1  0  0  0  0  0  0  0  0
    3.7337    2.1978   -2.7558 H   0  0  0  1  0  0  0  0  0  0  0  0
    3.0572    1.2855   -0.1049 H   0  0  0  1  0  0  0  0  0  0  0  0
    5.0088    0.1171    0.4266 H   0  0  0  1  0  0  0  0  0  0  0  0
    4.9170   -0.3032   -1.2672 H   0  0  0  1  0  0  0  0  0  0  0  0
    6.4613    1.4156   -1.8871 H   0  0  0  1  0  0  0  0  0  0  0  0
    6.5473    3.4256   -0.6258 H   0  0  0  1  0  0  0  0  0  0  0  0
    6.1845    2.6022    0.8723 H   0  0  0  1  0  0  0  0  0  0  0  0
    4.0223    3.2675    0.4776 H   0  0  0  1  0  0  0  0  0  0  0  0
    4.3333    3.5649   -1.2163 H   0  0  0  1  0  0  0  0  0  0  0  0
    7.5941   -0.2277   -0.6093 H   0  0  0  1  0  0  0  0  0  0  0  0
    7.3034    0.5654    0.7497 H   0  0  0  1  0  0  0  0  0  0  0  0
  1  2  4  0  0  0  0
  1  6  4  0  0  0  0
  2  3  4  0  0  0  0
  2 18  1  0  0  0  0
  3  4  4  0  0  0  0
  4  5  4  0  0  0  0
  4  7  4  0  0  0  0
  5  6  4  0  0  0  0
  5  9  4  0  0  0  0
  6 25  1  0  0  0  0
  7  8  4  0  0  0  0
  7 26  1  0  0  0  0
  8  9  4  0  0  0  0
  9 10  1  0  0  0  0
 10 11  4  0  0  0  0
 10 15  4  0  0  0  0
 11 12  4  0  0  0  0
 11 27  1  0  0  0  0
 12 13  4  0  0  0  0
 12 28  1  0  0  0  0
 13 14  4  0  0  0  0
 13 16  1  0  0  0  0
 14 15  4  0  0  0  0
 14 29  1  0  0  0  0
 15 30  1  0  0  0  0
 16 17  1  0  0  0  0
 17 31  1  0  0  0  0
 17 32  1  0  0  0  0
 17 33  1  0  0  0  0
 18 19  1  0  0  0  0
 18 34  1  0  0  0  0
 19 20  1  0  0  0  0
 19 23  1  0  0  0  0
 19 35  1  0  0  0  0
 20 21  1  0  0  0  0
 20 36  1  0  0  0  0
 20 37  1  0  0  0  0
 21 22  1  0  0  0  0
 21 24  1  0  0  0  0
 21 38  1  0  0  0  0
 22 23  1  0  0  0  0
 22 39  1  0  0  0  0
 22 40  1  0  0  0  0
 23 41  1  0  0  0  0
 23 42  1  0  0  0  0
 24 43  1  0  0  0  0
 24 44  1  0  0  0  0
M  END
> <ConfClashScore>
0 

> <ConfOneFourInteractionScore>
-0.984337 

> <ConfScore>
-0.0465807 

> <ConfScorePBest>
0.00363322 

> <ConfTolerance>
0.268638 

$$$$
c13.sdf
 OpenBabel04162418043D

 44 47  0  0  0  0  0  0  0  0999 V2000
    2.1079   -0.3775   -1.8532 N   0  0  0  1  0  0  0  0  0  0  0  0
    2.5363    0.5907   -2.6455 C   0  0  0  1  0  0  0  0  0  0  0  0
    2.1525    0.6996   -3.8968 N   0  0  0  1  0  0  0  0  0  0  0  0
    1.2985   -0.1837   -4.4201 C   0  0  0  1  0  0  0  0  0  0  0  0
    0.8204   -1.2305   -3.6033 C   0  0  0  1  0  0  0  0  0  0  0  0
    1.2615   -1.2961   -2.2850 C   0  0  0  1  0  0  0  0  0  0  0  0
    0.7019   -0.3512   -5.6889 C   0  0  0  1  0  0  0  0  0  0  0  0
   -0.0690   -1.4010   -5.6537 N   0  0  0  1  0  0  0  0  0  0  0  0
   -0.0256   -1.9781   -4.3778 N   0  0  0  1  0  0  0  0  0  0  0  0
   -0.8666   -3.0845   -4.0670 C   0  0  0  1  0  0  0  0  0  0  0  0
   -0.5123   -4.3543   -4.4818 C   0  0  0  1  0  0  0  0  0  0  0  0
   -1.2750   -5.4465   -4.0986 C   0  0  0  1  0  0  0  0  0  0  0  0
   -2.3930   -5.2652   -3.3064 C   0  0  0  1  0  0  0  0  0  0  0  0
   -2.7482   -3.9914   -2.8904 C   0  0  0  1  0  0  0  0  0  0  0  0
   -1.9877   -2.9023   -3.2724 C   0  0  0  1  0  0  0  0  0  0  0  0
   -3.1953   -6.3164   -3.0145 O   0  0  0  1  0  0  0  0  0  0  0  0
   -4.2950   -6.0748   -2.1231 C   0  0  0  1  0  0  0  0  0  0  0  0
    3.4219    1.5244   -2.1387 N   0  0  0  1  0  0  0  0  0  0  0  0
    3.8376    2.6250   -3.0190 C   0  0  0  1  0  0  0  0  0  0  0  0
    2.8912    3.8230   -2.8634 C   0  0  0  1  0  0  0  0  0  0  0  0
    3.7507    4.9856   -2.3559 C   0  0  0  1  0  0  0  0  0  0  0  0
    4.9310    4.3162   -1.6714 C   0  0  0  1  0  0  0  0  0  0  0  0
    5.2205    3.1421   -2.6128 C   0  0  0  1  0  0  0  0  0  0  0  0
    4.2089    5.8279   -3.4833 N   0  0  0  1  0  0  0  0  0  0  0  0
    0.9318   -2.0528   -1.6523 H   0  0  0  1  0  0  0  0  0  0  0  0
    0.8528    0.2621   -6.5152 H   0  0  0  1  0  0  0  0  0  0  0  0
    0.3265   -4.4905   -5.0813 H   0  0  0  1  0  0  0  0  0  0  0  0
   -1.0062   -6.4025   -4.4074 H   0  0  0  1  0  0  0  0  0  0  0  0
   -3.5871   -3.8553   -2.2910 H   0  0  0  1  0  0  0  0  0  0  0  0
   -2.2566   -1.9463   -2.9636 H   0  0  0  1  0  0  0  0  0  0  0  0
   -3.9505   -5.5268   -1.2711 H   0  0  0  1  0  0  0  0  0  0  0  0
   -4.7064   -7.0094   -1.8031 H   0  0  0  1  0  0  0  0  0  0  0  0
   -5.0476   -5.5084   -2.6306 H   0  0  0  1  0  0  0  0  0  0  0  0
    3.7614    1.4542   -1.2220 H   0  0  0  1  0  0  0  0  0  0  0  0
    3.8483    2.2862   -4.0339 H   0  0  0  1  0  0  0  0  0  0  0  0
    2.4504    4.0719   -3.8060 H   0  0  0  1  0  0  0  0  0  0  0  0
    2.1199    3.5966   -2.1571 H   0  0  0  1  0  0  0  0  0  0  0  0
    3.2018    5.5866   -1.6613 H   0  0  0  1  0  0  0  0  0  0  0  0
    5.7692    4.9781   -1.6061 H   0  0  0  1  0  0  0  0  0  0  0  0
    4.6693    3.9739   -0.6920 H   0  0  0  1  0  0  0  0  0  0  0  0
    5.7754    2.3799   -2.1068 H   0  0  0  1  0  0  0  0  0  0  0  0
    5.7677    3.4721   -3.4711 H   0  0  0  1  0  0  0  0  0  0  0  0
    3.4320    6.1964   -3.9533 H   0  0  0  1  0  0  0  0  0  0  0  0
    4.7377    5.2837   -4.1034 H   0  0  0  1  0  0  0  0  0  0  0  0
  1  2  4  0  0  0  0
  1  6  4  0  0  0  0
  2  3  4  0  0  0  0
  2 18  1  0  0  0  0
  3  4  4  0  0  0  0
  4  5  4  0  0  0  0
  4  7  4  0  0  0  0
  5  6  4  0  0  0  0
  5  9  4  0  0  0  0
  6 25  1  0  0  0  0
  7  8  4  0  0  0  0
  7 26  1  0  0  0  0
  8  9  4  0  0  0  0
  9 10  1  0  0  0  0
 10 11  4  0  0  0  0
 10 15  4  0  0  0  0
 11 12  4  0  0  0  0
 11 27  1  0  0  0  0
 12 13  4  0  0  0  0
 12 28  1  0  0  0  0
 13 14  4  0  0  0  0
 13 16  1  0  0  0  0
 14 15  4  0  0  0  0
 14 29  1  0  0  0  0
 15 30  1  0  0  0  0
 16 17  1  0  0  0  0
 17 31  1  0  0  0  0
 17 32  1  0  0  0  0
 17 33  1  0  0  0  0
 18 19  1  0  0  0  0
 18 34  1  0  0  0  0
 19 20  1  0  0  0  0
 19 23  1  0  0  0  0
 19 35  1  0  0  0  0
 20 21  1  0  0  0  0
 20 36  1  0  0  0  0
 20 37  1  0  0  0  0
 21 22  1  0  0  0  0
 21 24  1  0  0  0  0
 21 38  1  0  0  0  0
 22 23  1  0  0  0  0
 22 39  1  0  0  0  0
 22 40  1  0  0  0  0
 23 41  1  0  0  0  0
 23 42  1  0  0  0  0
 24 43  1  0  0  0  0
 24 44  1  0  0  0  0
M  END
> <ConfClashScore>
0 

> <ConfOneFourInteractionScore>
-0.984337 

> <ConfScore>
-0.0461092 

> <ConfScorePBest>
0.00361989 

> <ConfTolerance>
0.375332 

$$$$
c13.sdf
 OpenBabel04162418043D

 44 47  0  0  0  0  0  0  0  0999 V2000
    2.1080   -0.3773   -1.8533 N   0  0  0  1  0  0  0  0  0  0  0  0
    2.5364    0.5908   -2.6455 C   0  0  0  1  0  0  0  0  0  0  0  0
    2.1525    0.6996   -3.8968 N   0  0  0  1  0  0  0  0  0  0  0  0
    1.2985   -0.1838   -4.4201 C   0  0  0  1  0  0  0  0  0  0  0  0
    0.8205   -1.2305   -3.6033 C   0  0  0  1  0  0  0  0  0  0  0  0
    1.2615   -1.2960   -2.2850 C   0  0  0  1  0  0  0  0  0  0  0  0
    0.7018   -0.3513   -5.6890 C   0  0  0  1  0  0  0  0  0  0  0  0
   -0.0690   -1.4010   -5.6537 N   0  0  0  1  0  0  0  0  0  0  0  0
   -0.0256   -1.9781   -4.3778 N   0  0  0  1  0  0  0  0  0  0  0  0
   -0.8610   -3.0770   -4.0690 C   0  0  0  1  0  0  0  0  0  0  0  0
   -1.4790   -3.7819   -5.0845 C   0  0  0  1  0  0  0  0  0  0  0  0
   -2.2933   -4.8621   -4.7822 C   0  0  0  1  0  0  0  0  0  0  0  0
   -2.4915   -5.2310   -3.4650 C   0  0  0  1  0  0  0  0  0  0  0  0
   -1.8715   -4.5239   -2.4465 C   0  0  0  1  0  0  0  0  0  0  0  0
   -1.0595   -3.4467   -2.7478 C   0  0  0  1  0  0  0  0  0  0  0  0
   -3.3098   -6.2962   -3.2923 O   0  0  0  1  0  0  0  0  0  0  0  0
   -3.7149   -6.6016   -1.9489 C   0  0  0  1  0  0  0  0  0  0  0  0
    3.3977    1.4989   -2.1527 N   0  0  0  1  0  0  0  0  0  0  0  0
    4.0882    2.5013   -2.9733 C   0  0  0  1  0  0  0  0  0  0  0  0
    4.2197    3.8328   -2.2297 C   0  0  0  1  0  0  0  0  0  0  0  0
    5.4580    3.6894   -1.3419 C   0  0  0  1  0  0  0  0  0  0  0  0
    6.2699    2.5192   -1.9117 C   0  0  0  1  0  0  0  0  0  0  0  0
    5.5501    2.1178   -3.2038 C   0  0  0  1  0  0  0  0  0  0  0  0
    6.2678    4.9458   -1.3785 N   0  0  0  1  0  0  0  0  0  0  0  0
    0.9318   -2.0526   -1.6522 H   0  0  0  1  0  0  0  0  0  0  0  0
    0.8529    0.2620   -6.5152 H   0  0  0  1  0  0  0  0  0  0  0  0
   -1.3331   -3.5019   -6.0754 H   0  0  0  1  0  0  0  0  0  0  0  0
   -2.7551   -5.3951   -5.5465 H   0  0  0  1  0  0  0  0  0  0  0  0
   -2.0174   -4.8039   -1.4556 H   0  0  0  1  0  0  0  0  0  0  0  0
   -0.5977   -2.9138   -1.9836 H   0  0  0  1  0  0  0  0  0  0  0  0
   -4.4713   -7.3582   -1.9672 H   0  0  0  1  0  0  0  0  0  0  0  0
   -4.1043   -5.7195   -1.4848 H   0  0  0  1  0  0  0  0  0  0  0  0
   -2.8711   -6.9546   -1.3937 H   0  0  0  1  0  0  0  0  0  0  0  0
    3.5747    1.4908   -1.1888 H   0  0  0  1  0  0  0  0  0  0  0  0
    3.5681    2.6239   -3.9003 H   0  0  0  1  0  0  0  0  0  0  0  0
    3.3508    4.0138   -1.6320 H   0  0  0  1  0  0  0  0  0  0  0  0
    4.3493    4.6366   -2.9240 H   0  0  0  1  0  0  0  0  0  0  0  0
    5.1674    3.4809   -0.3334 H   0  0  0  1  0  0  0  0  0  0  0  0
    7.2730    2.8265   -2.1217 H   0  0  0  1  0  0  0  0  0  0  0  0
    6.2838    1.7018   -1.2214 H   0  0  0  1  0  0  0  0  0  0  0  0
    5.6410    1.0654   -3.3742 H   0  0  0  1  0  0  0  0  0  0  0  0
    5.9519    2.6511   -4.0400 H   0  0  0  1  0  0  0  0  0  0  0  0
    5.7224    5.6957   -1.0615 H   0  0  0  1  0  0  0  0  0  0  0  0
    6.5592    5.1197   -2.2979 H   0  0  0  1  0  0  0  0  0  0  0  0
  1  2  4  0  0  0  0
  1  6  4  0  0  0  0
  2  3  4  0  0  0  0
  2 18  1  0  0  0  0
  3  4  4  0  0  0  0
  4  5  4  0  0  0  0
  4  7  4  0  0  0  0
  5  6  4  0  0  0  0
  5  9  4  0  0  0  0
  6 25  1  0  0  0  0
  7  8  4  0  0  0  0
  7 26  1  0  0  0  0
  8  9  4  0  0  0  0
  9 10  1  0  0  0  0
 10 11  4  0  0  0  0
 10 15  4  0  0  0  0
 11 12  4  0  0  0  0
 11 27  1  0  0  0  0
 12 13  4  0  0  0  0
 12 28  1  0  0  0  0
 13 14  4  0  0  0  0
 13 16  1  0  0  0  0
 14 15  4  0  0  0  0
 14 29  1  0  0  0  0
 15 30  1  0  0  0  0
 16 17  1  0  0  0  0
 17 31  1  0  0  0  0
 17 32  1  0  0  0  0
 17 33  1  0  0  0  0
 18 19  1  0  0  0  0
 18 34  1  0  0  0  0
 19 20  1  0  0  0  0
 19 23  1  0  0  0  0
 19 35  1  0  0  0  0
 20 21  1  0  0  0  0
 20 36  1  0  0  0  0
 20 37  1  0  0  0  0
 21 22  1  0  0  0  0
 21 24  1  0  0  0  0
 21 38  1  0  0  0  0
 22 23  1  0  0  0  0
 22 39  1  0  0  0  0
 22 40  1  0  0  0  0
 23 41  1  0  0  0  0
 23 42  1  0  0  0  0
 24 43  1  0  0  0  0
 24 44  1  0  0  0  0
M  END
> <ConfClashScore>
0 

> <ConfOneFourInteractionScore>
-0.984337 

> <ConfScore>
-0.0455346 

> <ConfScorePBest>
0.00360656 

> <ConfTolerance>
0.387146 

$$$$
c13.sdf
 OpenBabel04162418043D

 44 47  0  0  0  0  0  0  0  0999 V2000
    2.1080   -0.3774   -1.8532 N   0  0  0  1  0  0  0  0  0  0  0  0
    2.5364    0.5907   -2.6454 C   0  0  0  1  0  0  0  0  0  0  0  0
    2.1525    0.6996   -3.8968 N   0  0  0  1  0  0  0  0  0  0  0  0
    1.2985   -0.1838   -4.4202 C   0  0  0  1  0  0  0  0  0  0  0  0
    0.8204   -1.2305   -3.6033 C   0  0  0  1  0  0  0  0  0  0  0  0
    1.2615   -1.2960   -2.2849 C   0  0  0  1  0  0  0  0  0  0  0  0
    0.7019   -0.3513   -5.6889 C   0  0  0  1  0  0  0  0  0  0  0  0
   -0.0689   -1.4010   -5.6537 N   0  0  0  1  0  0  0  0  0  0  0  0
   -0.0256   -1.9781   -4.3778 N   0  0  0  1  0  0  0  0  0  0  0  0
   -0.7670   -3.1160   -4.0865 C   0  0  0  1  0  0  0  0  0  0  0  0
   -1.3718   -3.7737   -5.1410 C   0  0  0  1  0  0  0  0  0  0  0  0
   -2.1191   -4.9175   -4.9071 C   0  0  0  1  0  0  0  0  0  0  0  0
   -2.2636   -5.3975   -3.6191 C   0  0  0  1  0  0  0  0  0  0  0  0
   -1.6569   -4.7378   -2.5616 C   0  0  0  1  0  0  0  0  0  0  0  0
   -0.9119   -3.5972   -2.7946 C   0  0  0  1  0  0  0  0  0  0  0  0
   -3.0268   -6.5283   -3.5124 O   0  0  0  1  0  0  0  0  0  0  0  0
   -3.1581   -6.9902   -2.1478 C   0  0  0  1  0  0  0  0  0  0  0  0
    3.4293    1.5322   -2.1345 N   0  0  0  1  0  0  0  0  0  0  0  0
    3.9042    2.5212   -3.1067 C   0  0  0  1  0  0  0  0  0  0  0  0
    4.7829    3.5981   -2.3927 C   0  0  0  1  0  0  0  0  0  0  0  0
    6.2133    2.9492   -2.5026 C   0  0  0  1  0  0  0  0  0  0  0  0
    6.2001    2.3805   -3.9149 C   0  0  0  1  0  0  0  0  0  0  0  0
    4.7942    1.8462   -4.1524 C   0  0  0  1  0  0  0  0  0  0  0  0
    7.2881    3.9761   -2.3417 N   0  0  0  1  0  0  0  0  0  0  0  0
    0.9317   -2.0527   -1.6522 H   0  0  0  1  0  0  0  0  0  0  0  0
    0.8529    0.2621   -6.5152 H   0  0  0  1  0  0  0  0  0  0  0  0
   -1.2665   -3.4103   -6.1097 H   0  0  0  1  0  0  0  0  0  0  0  0
   -2.5710   -5.4147   -5.7010 H   0  0  0  1  0  0  0  0  0  0  0  0
   -1.7623   -5.1012   -1.5929 H   0  0  0  1  0  0  0  0  0  0  0  0
   -0.4600   -3.1001   -2.0007 H   0  0  0  1  0  0  0  0  0  0  0  0
   -3.5009   -6.1866   -1.5301 H   0  0  0  1  0  0  0  0  0  0  0  0
   -2.2077   -7.3313   -1.7940 H   0  0  0  1  0  0  0  0  0  0  0  0
   -3.8629   -7.7944   -2.1100 H   0  0  0  1  0  0  0  0  0  0  0  0
    3.7171    1.5326   -1.1977 H   0  0  0  1  0  0  0  0  0  0  0  0
    3.0657    2.9862   -3.5817 H   0  0  0  1  0  0  0  0  0  0  0  0
    4.4896    3.7292   -1.3722 H   0  0  0  1  0  0  0  0  0  0  0  0
    4.7394    4.5388   -2.9006 H   0  0  0  1  0  0  0  0  0  0  0  0
    6.3457    2.1765   -1.7744 H   0  0  0  1  0  0  0  0  0  0  0  0
    6.4286    3.1479   -4.6246 H   0  0  0  1  0  0  0  0  0  0  0  0
    6.9155    1.5895   -4.0014 H   0  0  0  1  0  0  0  0  0  0  0  0
    4.4635    2.0959   -5.1389 H   0  0  0  1  0  0  0  0  0  0  0  0
    4.7743    0.7837   -4.0273 H   0  0  0  1  0  0  0  0  0  0  0  0
    7.2641    4.5963   -3.1001 H   0  0  0  1  0  0  0  0  0  0  0  0
    8.1614    3.5325   -2.3104 H   0  0  0  1  0  0  0  0  0  0  0  0
  1  2  4  0  0  0  0
  1  6  4  0  0  0  0
  2  3  4  0  0  0  0
  2 18  1  0  0  0  0
  3  4  4  0  0  0  0
  4  5  4  0  0  0  0
  4  7  4  0  0  0  0
  5  6  4  0  0  0  0
  5  9  4  0  0  0  0
  6 25  1  0  0  0  0
  7  8  4  0  0  0  0
  7 26  1  0  0  0  0
  8  9  4  0  0  0  0
  9 10  1  0  0  0  0
 10 11  4  0  0  0  0
 10 15  4  0  0  0  0
 11 12  4  0  0  0  0
 11 27  1  0  0  0  0
 12 13  4  0  0  0  0
 12 28  1  0  0  0  0
 13 14  4  0  0  0  0
 13 16  1  0  0  0  0
 14 15  4  0  0  0  0
 14 29  1  0  0  0  0
 15 30  1  0  0  0  0
 16 17  1  0  0  0  0
 17 31  1  0  0  0  0
 17 32  1  0  0  0  0
 17 33  1  0  0  0  0
 18 19  1  0  0  0  0
 18 34  1  0  0  0  0
 19 20  1  0  0  0  0
 19 23  1  0  0  0  0
 19 35  1  0  0  0  0
 20 21  1  0  0  0  0
 20 36  1  0  0  0  0
 20 37  1  0  0  0  0
 21 22  1  0  0  0  0
 21 24  1  0  0  0  0
 21 38  1  0  0  0  0
 22 23  1  0  0  0  0
 22 39  1  0  0  0  0
 22 40  1  0  0  0  0
 23 41  1  0  0  0  0
 23 42  1  0  0  0  0
 24 43  1  0  0  0  0
 24 44  1  0  0  0  0
M  END
> <ConfClashScore>
0 

> <ConfOneFourInteractionScore>
-0.981848 

> <ConfScore>
-0.0455105 

> <ConfScorePBest>
0.00359323 

> <ConfTolerance>
0.298779 

$$$$
c13.sdf
 OpenBabel04162418043D

 44 47  0  0  0  0  0  0  0  0999 V2000
    2.1079   -0.3773   -1.8532 N   0  0  0  1  0  0  0  0  0  0  0  0
    2.5363    0.5907   -2.6455 C   0  0  0  1  0  0  0  0  0  0  0  0
    2.1526    0.6996   -3.8968 N   0  0  0  1  0  0  0  0  0  0  0  0
    1.2985   -0.1838   -4.4201 C   0  0  0  1  0  0  0  0  0  0  0  0
    0.8204   -1.2305   -3.6033 C   0  0  0  1  0  0  0  0  0  0  0  0
    1.2615   -1.2959   -2.2849 C   0  0  0  1  0  0  0  0  0  0  0  0
    0.7019   -0.3513   -5.6889 C   0  0  0  1  0  0  0  0  0  0  0  0
   -0.0689   -1.4010   -5.6537 N   0  0  0  1  0  0  0  0  0  0  0  0
   -0.0256   -1.9781   -4.3778 N   0  0  0  1  0  0  0  0  0  0  0  0
   -0.7862   -3.1453   -4.0790 C   0  0  0  1  0  0  0  0  0  0  0  0
   -0.7571   -4.2237   -4.9428 C   0  0  0  1  0  0  0  0  0  0  0  0
   -1.4159   -5.3968   -4.6092 C   0  0  0  1  0  0  0  0  0  0  0  0
   -2.1061   -5.4864   -3.4151 C   0  0  0  1  0  0  0  0  0  0  0  0
   -2.1351   -4.4047   -2.5487 C   0  0  0  1  0  0  0  0  0  0  0  0
   -1.4784   -3.2349   -2.8813 C   0  0  0  1  0  0  0  0  0  0  0  0
   -2.8241   -6.5806   -3.1364 O   0  0  0  1  0  0  0  0  0  0  0  0
   -3.5225   -6.7389   -1.8557 C   0  0  0  1  0  0  0  0  0  0  0  0
    3.3977    1.4989   -2.1527 N   0  0  0  1  0  0  0  0  0  0  0  0
    3.8857    2.6427   -2.9033 C   0  0  0  1  0  0  0  0  0  0  0  0
    3.0810    3.8986   -2.5509 C   0  0  0  1  0  0  0  0  0  0  0  0
    3.8444    4.5405   -1.3922 C   0  0  0  1  0  0  0  0  0  0  0  0
    5.3011    4.3253   -1.8098 C   0  0  0  1  0  0  0  0  0  0  0  0
    5.3331    2.9649   -2.5103 C   0  0  0  1  0  0  0  0  0  0  0  0
    3.5266    5.9836   -1.2725 N   0  0  0  1  0  0  0  0  0  0  0  0
    0.9317   -2.0526   -1.6523 H   0  0  0  1  0  0  0  0  0  0  0  0
    0.8529    0.2620   -6.5152 H   0  0  0  1  0  0  0  0  0  0  0  0
   -0.2412   -4.1551   -5.8432 H   0  0  0  1  0  0  0  0  0  0  0  0
   -1.3908   -6.2097   -5.2574 H   0  0  0  1  0  0  0  0  0  0  0  0
   -2.6511   -4.4733   -1.6483 H   0  0  0  1  0  0  0  0  0  0  0  0
   -1.5034   -2.4221   -2.2331 H   0  0  0  1  0  0  0  0  0  0  0  0
   -4.0779   -7.6534   -1.8625 H   0  0  0  1  0  0  0  0  0  0  0  0
   -4.1916   -5.9166   -1.7107 H   0  0  0  1  0  0  0  0  0  0  0  0
   -2.8074   -6.7621   -1.0602 H   0  0  0  1  0  0  0  0  0  0  0  0
    3.7146    1.3819   -1.2328 H   0  0  0  1  0  0  0  0  0  0  0  0
    3.8190    2.4371   -3.9512 H   0  0  0  1  0  0  0  0  0  0  0  0
    2.0883    3.6374   -2.2490 H   0  0  0  1  0  0  0  0  0  0  0  0
    3.0365    4.5644   -3.3873 H   0  0  0  1  0  0  0  0  0  0  0  0
    3.6294    4.0495   -0.4662 H   0  0  0  1  0  0  0  0  0  0  0  0
    5.9385    4.3175   -0.9504 H   0  0  0  1  0  0  0  0  0  0  0  0
    5.6151    5.0977   -2.4804 H   0  0  0  1  0  0  0  0  0  0  0  0
    5.9507    3.0129   -3.3827 H   0  0  0  1  0  0  0  0  0  0  0  0
    5.7109    2.2160   -1.8460 H   0  0  0  1  0  0  0  0  0  0  0  0
    2.5744    6.0931   -1.0685 H   0  0  0  1  0  0  0  0  0  0  0  0
    3.7332    6.4345   -2.1178 H   0  0  0  1  0  0  0  0  0  0  0  0
  1  2  4  0  0  0  0
  1  6  4  0  0  0  0
  2  3  4  0  0  0  0
  2 18  1  0  0  0  0
  3  4  4  0  0  0  0
  4  5  4  0  0  0  0
  4  7  4  0  0  0  0
  5  6  4  0  0  0  0
  5  9  4  0  0  0  0
  6 25  1  0  0  0  0
  7  8  4  0  0  0  0
  7 26  1  0  0  0  0
  8  9  4  0  0  0  0
  9 10  1  0  0  0  0
 10 11  4  0  0  0  0
 10 15  4  0  0  0  0
 11 12  4  0  0  0  0
 11 27  1  0  0  0  0
 12 13  4  0  0  0  0
 12 28  1  0  0  0  0
 13 14  4  0  0  0  0
 13 16  1  0  0  0  0
 14 15  4  0  0  0  0
 14 29  1  0  0  0  0
 15 30  1  0  0  0  0
 16 17  1  0  0  0  0
 17 31  1  0  0  0  0
 17 32  1  0  0  0  0
 17 33  1  0  0  0  0
 18 19  1  0  0  0  0
 18 34  1  0  0  0  0
 19 20  1  0  0  0  0
 19 23  1  0  0  0  0
 19 35  1  0  0  0  0
 20 21  1  0  0  0  0
 20 36  1  0  0  0  0
 20 37  1  0  0  0  0
 21 22  1  0  0  0  0
 21 24  1  0  0  0  0
 21 38  1  0  0  0  0
 22 23  1  0  0  0  0
 22 39  1  0  0  0  0
 22 40  1  0  0  0  0
 23 41  1  0  0  0  0
 23 42  1  0  0  0  0
 24 43  1  0  0  0  0
 24 44  1  0  0  0  0
M  END
> <ConfClashScore>
0 

> <ConfOneFourInteractionScore>
-0.984337 

> <ConfScore>
-0.0451477 

> <ConfScorePBest>
0.0035799 

> <ConfTolerance>
0.383085 

$$$$
c13.sdf
 OpenBabel04162418043D

 44 47  0  0  0  0  0  0  0  0999 V2000
    2.1079   -0.3773   -1.8532 N   0  0  0  1  0  0  0  0  0  0  0  0
    2.5364    0.5907   -2.6455 C   0  0  0  1  0  0  0  0  0  0  0  0
    2.1525    0.6996   -3.8968 N   0  0  0  1  0  0  0  0  0  0  0  0
    1.2985   -0.1838   -4.4201 C   0  0  0  1  0  0  0  0  0  0  0  0
    0.8205   -1.2305   -3.6033 C   0  0  0  1  0  0  0  0  0  0  0  0
    1.2615   -1.2960   -2.2849 C   0  0  0  1  0  0  0  0  0  0  0  0
    0.7020   -0.3513   -5.6890 C   0  0  0  1  0  0  0  0  0  0  0  0
   -0.0689   -1.4011   -5.6537 N   0  0  0  1  0  0  0  0  0  0  0  0
   -0.0256   -1.9781   -4.3778 N   0  0  0  1  0  0  0  0  0  0  0  0
   -0.7136   -3.1949   -4.1132 C   0  0  0  1  0  0  0  0  0  0  0  0
   -0.8486   -3.6436   -2.8129 C   0  0  0  1  0  0  0  0  0  0  0  0
   -1.5236   -4.8265   -2.5547 C   0  0  0  1  0  0  0  0  0  0  0  0
   -2.0569   -5.5599   -3.5977 C   0  0  0  1  0  0  0  0  0  0  0  0
   -1.9213   -5.1098   -4.9017 C   0  0  0  1  0  0  0  0  0  0  0  0
   -1.2483   -3.9304   -5.1594 C   0  0  0  1  0  0  0  0  0  0  0  0
   -2.7297   -6.7281   -3.4692 O   0  0  0  1  0  0  0  0  0  0  0  0
   -3.1286   -7.1133   -2.1444 C   0  0  0  1  0  0  0  0  0  0  0  0
    3.4008    1.5023   -2.1507 N   0  0  0  1  0  0  0  0  0  0  0  0
    3.9334    2.6190   -2.9215 C   0  0  0  1  0  0  0  0  0  0  0  0
    4.9511    3.4091   -2.0879 C   0  0  0  1  0  0  0  0  0  0  0  0
    6.2849    3.3138   -2.8364 C   0  0  0  1  0  0  0  0  0  0  0  0
    6.1672    2.0446   -3.6642 C   0  0  0  1  0  0  0  0  0  0  0  0
    4.7110    2.1075   -4.1374 C   0  0  0  1  0  0  0  0  0  0  0  0
    6.4779    4.4849   -3.7054 N   0  0  0  1  0  0  0  0  0  0  0  0
    0.9317   -2.0527   -1.6523 H   0  0  0  1  0  0  0  0  0  0  0  0
    0.8529    0.2620   -6.5152 H   0  0  0  1  0  0  0  0  0  0  0  0
   -0.4439   -3.0939   -2.0284 H   0  0  0  1  0  0  0  0  0  0  0  0
   -1.6287   -5.1621   -1.5760 H   0  0  0  1  0  0  0  0  0  0  0  0
   -2.3261   -5.6595   -5.6863 H   0  0  0  1  0  0  0  0  0  0  0  0
   -1.1431   -3.5948   -6.1381 H   0  0  0  1  0  0  0  0  0  0  0  0
   -3.7925   -7.9506   -2.2006 H   0  0  0  1  0  0  0  0  0  0  0  0
   -3.6275   -6.2941   -1.6701 H   0  0  0  1  0  0  0  0  0  0  0  0
   -2.2632   -7.3821   -1.5756 H   0  0  0  1  0  0  0  0  0  0  0  0
    3.6871    1.4075   -1.2183 H   0  0  0  1  0  0  0  0  0  0  0  0
    3.1301    3.2544   -3.2314 H   0  0  0  1  0  0  0  0  0  0  0  0
    5.0428    2.9807   -1.1117 H   0  0  0  1  0  0  0  0  0  0  0  0
    4.6464    4.4311   -2.0024 H   0  0  0  1  0  0  0  0  0  0  0  0
    7.1006    3.2417   -2.1477 H   0  0  0  1  0  0  0  0  0  0  0  0
    6.8457    2.0557   -4.4914 H   0  0  0  1  0  0  0  0  0  0  0  0
    6.3451    1.1739   -3.0682 H   0  0  0  1  0  0  0  0  0  0  0  0
    4.3652    1.1371   -4.4262 H   0  0  0  1  0  0  0  0  0  0  0  0
    4.6103    2.7826   -4.9616 H   0  0  0  1  0  0  0  0  0  0  0  0
    5.6709    4.6307   -4.2420 H   0  0  0  1  0  0  0  0  0  0  0  0
    7.2412    4.3281   -4.2997 H   0  0  0  1  0  0  0  0  0  0  0  0
  1  2  4  0  0  0  0
  1  6  4  0  0  0  0
  2  3  4  0  0  0  0
  2 18  1  0  0  0  0
  3  4  4  0  0  0  0
  4  5  4  0  0  0  0
  4  7  4  0  0  0  0
  5  6  4  0  0  0  0
  5  9  4  0  0  0  0
  6 25  1  0  0  0  0
  7  8  4  0  0  0  0
  7 26  1  0  0  0  0
  8  9  4  0  0  0  0
  9 10  1  0  0  0  0
 10 11  4  0  0  0  0
 10 15  4  0  0  0  0
 11 12  4  0  0  0  0
 11 27  1  0  0  0  0
 12 13  4  0  0  0  0
 12 28  1  0  0  0  0
 13 14  4  0  0  0  0
 13 16  1  0  0  0  0
 14 15  4  0  0  0  0
 14 29  1  0  0  0  0
 15 30  1  0  0  0  0
 16 17  1  0  0  0  0
 17 31  1  0  0  0  0
 17 32  1  0  0  0  0
 17 33  1  0  0  0  0
 18 19  1  0  0  0  0
 18 34  1  0  0  0  0
 19 20  1  0  0  0  0
 19 23  1  0  0  0  0
 19 35  1  0  0  0  0
 20 21  1  0  0  0  0
 20 36  1  0  0  0  0
 20 37  1  0  0  0  0
 21 22  1  0  0  0  0
 21 24  1  0  0  0  0
 21 38  1  0  0  0  0
 22 23  1  0  0  0  0
 22 39  1  0  0  0  0
 22 40  1  0  0  0  0
 23 41  1  0  0  0  0
 23 42  1  0  0  0  0
 24 43  1  0  0  0  0
 24 44  1  0  0  0  0
M  END
> <ConfClashScore>
0 

> <ConfOneFourInteractionScore>
-0.985399 

> <ConfScore>
-0.0447158 

> <ConfScorePBest>
0.00356658 

> <ConfTolerance>
0.405357 

$$$$
c13.sdf
 OpenBabel04162418043D

 44 47  0  0  0  0  0  0  0  0999 V2000
    2.1080   -0.3774   -1.8533 N   0  0  0  1  0  0  0  0  0  0  0  0
    2.5364    0.5907   -2.6455 C   0  0  0  1  0  0  0  0  0  0  0  0
    2.1525    0.6996   -3.8969 N   0  0  0  1  0  0  0  0  0  0  0  0
    1.2985   -0.1838   -4.4201 C   0  0  0  1  0  0  0  0  0  0  0  0
    0.8204   -1.2305   -3.6034 C   0  0  0  1  0  0  0  0  0  0  0  0
    1.2615   -1.2960   -2.2850 C   0  0  0  1  0  0  0  0  0  0  0  0
    0.7018   -0.3512   -5.6890 C   0  0  0  1  0  0  0  0  0  0  0  0
   -0.0690   -1.4010   -5.6538 N   0  0  0  1  0  0  0  0  0  0  0  0
   -0.0256   -1.9781   -4.3778 N   0  0  0  1  0  0  0  0  0  0  0  0
   -0.7072   -3.1837   -4.1156 C   0  0  0  1  0  0  0  0  0  0  0  0
   -1.8343   -3.5649   -4.8190 C   0  0  0  1  0  0  0  0  0  0  0  0
   -2.4628   -4.7645   -4.5234 C   0  0  0  1  0  0  0  0  0  0  0  0
   -1.9657   -5.5768   -3.5217 C   0  0  0  1  0  0  0  0  0  0  0  0
   -0.8353   -5.1943   -2.8163 C   0  0  0  1  0  0  0  0  0  0  0  0
   -0.2085   -3.9983   -3.1111 C   0  0  0  1  0  0  0  0  0  0  0  0
   -2.5350   -6.7571   -3.1803 O   0  0  0  1  0  0  0  0  0  0  0  0
   -3.7865   -7.0866   -3.8033 C   0  0  0  1  0  0  0  0  0  0  0  0
    3.4220    1.5244   -2.1387 N   0  0  0  1  0  0  0  0  0  0  0  0
    3.8116    1.4080   -0.7085 C   0  0  0  1  0  0  0  0  0  0  0  0
    5.1327    0.6403   -0.5728 C   0  0  0  1  0  0  0  0  0  0  0  0
    6.0787    1.5403    0.2258 C   0  0  0  1  0  0  0  0  0  0  0  0
    5.1814    2.5629    0.9274 C   0  0  0  1  0  0  0  0  0  0  0  0
    4.0848    2.7933   -0.1125 C   0  0  0  1  0  0  0  0  0  0  0  0
    6.8293    0.7455    1.2199 N   0  0  0  1  0  0  0  0  0  0  0  0
    0.9318   -2.0527   -1.6523 H   0  0  0  1  0  0  0  0  0  0  0  0
    0.8528    0.2621   -6.5152 H   0  0  0  1  0  0  0  0  0  0  0  0
   -2.2107   -2.9518   -5.5700 H   0  0  0  1  0  0  0  0  0  0  0  0
   -3.3085   -5.0533   -5.0553 H   0  0  0  1  0  0  0  0  0  0  0  0
   -0.4588   -5.8074   -2.0654 H   0  0  0  1  0  0  0  0  0  0  0  0
    0.6372   -3.7094   -2.5791 H   0  0  0  1  0  0  0  0  0  0  0  0
   -4.5917   -6.7058   -3.2104 H   0  0  0  1  0  0  0  0  0  0  0  0
   -3.8753   -8.1497   -3.8844 H   0  0  0  1  0  0  0  0  0  0  0  0
   -3.8247   -6.6494   -4.7792 H   0  0  0  1  0  0  0  0  0  0  0  0
    3.7811    2.2398   -2.7042 H   0  0  0  1  0  0  0  0  0  0  0  0
    3.0336    0.9134   -0.1655 H   0  0  0  1  0  0  0  0  0  0  0  0
    4.9728   -0.2811   -0.0529 H   0  0  0  1  0  0  0  0  0  0  0  0
    5.5436    0.4382   -1.5398 H   0  0  0  1  0  0  0  0  0  0  0  0
    6.7657    2.0340   -0.4292 H   0  0  0  1  0  0  0  0  0  0  0  0
    5.7137    3.4671    1.1372 H   0  0  0  1  0  0  0  0  0  0  0  0
    4.7781    2.1669    1.8359 H   0  0  0  1  0  0  0  0  0  0  0  0
    4.4205    3.4699   -0.8703 H   0  0  0  1  0  0  0  0  0  0  0  0
    3.2030    3.1846    0.3505 H   0  0  0  1  0  0  0  0  0  0  0  0
    6.1999    0.2723    1.8032 H   0  0  0  1  0  0  0  0  0  0  0  0
    7.3890    1.3422    1.7595 H   0  0  0  1  0  0  0  0  0  0  0  0
  1  2  4  0  0  0  0
  1  6  4  0  0  0  0
  2  3  4  0  0  0  0
  2 18  1  0  0  0  0
  3  4  4  0  0  0  0
  4  5  4  0  0  0  0
  4  7  4  0  0  0  0
  5  6  4  0  0  0  0
  5  9  4  0  0  0  0
  6 25  1  0  0  0  0
  7  8  4  0  0  0  0
  7 26  1  0  0  0  0
  8  9  4  0  0  0  0
  9 10  1  0  0  0  0
 10 11  4  0  0  0  0
 10 15  4  0  0  0  0
 11 12  4  0  0  0  0
 11 27  1  0  0  0  0
 12 13  4  0  0  0  0
 12 28  1  0  0  0  0
 13 14  4  0  0  0  0
 13 16  1  0  0  0  0
 14 15  4  0  0  0  0
 14 29  1  0  0  0  0
 15 30  1  0  0  0  0
 16 17  1  0  0  0  0
 17 31  1  0  0  0  0
 17 32  1  0  0  0  0
 17 33  1  0  0  0  0
 18 19  1  0  0  0  0
 18 34  1  0  0  0  0
 19 20  1  0  0  0  0
 19 23  1  0  0  0  0
 19 35  1  0  0  0  0
 20 21  1  0  0  0  0
 20 36  1  0  0  0  0
 20 37  1  0  0  0  0
 21 22  1  0  0  0  0
 21 24  1  0  0  0  0
 21 38  1  0  0  0  0
 22 23  1  0  0  0  0
 22 39  1  0  0  0  0
 22 40  1  0  0  0  0
 23 41  1  0  0  0  0
 23 42  1  0  0  0  0
 24 43  1  0  0  0  0
 24 44  1  0  0  0  0
M  END
> <ConfClashScore>
0 

> <ConfOneFourInteractionScore>
-0.984337 

> <ConfScore>
-0.0445139 

> <ConfScorePBest>
0.00355325 

> <ConfTolerance>
0.398562 

$$$$
c13.sdf
 OpenBabel04162418043D

 44 47  0  0  0  0  0  0  0  0999 V2000
    2.1079   -0.3774   -1.8533 N   0  0  0  1  0  0  0  0  0  0  0  0
    2.5364    0.5907   -2.6455 C   0  0  0  1  0  0  0  0  0  0  0  0
    2.1526    0.6996   -3.8969 N   0  0  0  1  0  0  0  0  0  0  0  0
    1.2986   -0.1837   -4.4201 C   0  0  0  1  0  0  0  0  0  0  0  0
    0.8204   -1.2305   -3.6033 C   0  0  0  1  0  0  0  0  0  0  0  0
    1.2616   -1.2960   -2.2849 C   0  0  0  1  0  0  0  0  0  0  0  0
    0.7018   -0.3513   -5.6889 C   0  0  0  1  0  0  0  0  0  0  0  0
   -0.0690   -1.4011   -5.6537 N   0  0  0  1  0  0  0  0  0  0  0  0
   -0.0256   -1.9781   -4.3778 N   0  0  0  1  0  0  0  0  0  0  0  0
   -0.6820   -3.2116   -4.1579 C   0  0  0  1  0  0  0  0  0  0  0  0
   -0.8316   -3.6950   -2.8718 C   0  0  0  1  0  0  0  0  0  0  0  0
   -1.4796   -4.9013   -2.6560 C   0  0  0  1  0  0  0  0  0  0  0  0
   -1.9714   -5.6231   -3.7271 C   0  0  0  1  0  0  0  0  0  0  0  0
   -1.8213   -5.1380   -5.0170 C   0  0  0  1  0  0  0  0  0  0  0  0
   -1.1752   -3.9354   -5.2323 C   0  0  0  1  0  0  0  0  0  0  0  0
   -2.6819   -6.7546   -3.5063 O   0  0  0  1  0  0  0  0  0  0  0  0
   -2.8899   -7.1426   -2.1393 C   0  0  0  1  0  0  0  0  0  0  0  0
    3.4042    1.4827   -2.1027 N   0  0  0  1  0  0  0  0  0  0  0  0
    3.9411    2.5959   -2.8749 C   0  0  0  1  0  0  0  0  0  0  0  0
    3.3990    3.9152   -2.3478 C   0  0  0  1  0  0  0  0  0  0  0  0
    4.5950    4.8298   -2.0365 C   0  0  0  1  0  0  0  0  0  0  0  0
    5.7389    4.1730   -2.7892 C   0  0  0  1  0  0  0  0  0  0  0  0
    5.4712    2.6724   -2.7117 C   0  0  0  1  0  0  0  0  0  0  0  0
    4.3513    6.2232   -2.5372 N   0  0  0  1  0  0  0  0  0  0  0  0
    0.9317   -2.0526   -1.6522 H   0  0  0  1  0  0  0  0  0  0  0  0
    0.8528    0.2620   -6.5152 H   0  0  0  1  0  0  0  0  0  0  0  0
   -0.4580   -3.1538   -2.0661 H   0  0  0  1  0  0  0  0  0  0  0  0
   -1.5957   -5.2631   -1.6879 H   0  0  0  1  0  0  0  0  0  0  0  0
   -2.1949   -5.6792   -5.8227 H   0  0  0  1  0  0  0  0  0  0  0  0
   -1.0591   -3.5734   -6.2003 H   0  0  0  1  0  0  0  0  0  0  0  0
   -3.3472   -8.1094   -2.1081 H   0  0  0  1  0  0  0  0  0  0  0  0
   -3.5288   -6.4306   -1.6599 H   0  0  0  1  0  0  0  0  0  0  0  0
   -1.9489   -7.1768   -1.6313 H   0  0  0  1  0  0  0  0  0  0  0  0
    3.6765    1.3752   -1.1675 H   0  0  0  1  0  0  0  0  0  0  0  0
    3.6827    2.4729   -3.9060 H   0  0  0  1  0  0  0  0  0  0  0  0
    2.7750    4.3725   -3.0871 H   0  0  0  1  0  0  0  0  0  0  0  0
    2.8311    3.7444   -1.4572 H   0  0  0  1  0  0  0  0  0  0  0  0
    4.7932    4.8576   -0.9853 H   0  0  0  1  0  0  0  0  0  0  0  0
    6.6746    4.4099   -2.3276 H   0  0  0  1  0  0  0  0  0  0  0  0
    5.7509    4.4982   -3.8085 H   0  0  0  1  0  0  0  0  0  0  0  0
    5.9705    2.1498   -3.5008 H   0  0  0  1  0  0  0  0  0  0  0  0
    5.7794    2.2732   -1.7680 H   0  0  0  1  0  0  0  0  0  0  0  0
    3.5803    6.6084   -2.0706 H   0  0  0  1  0  0  0  0  0  0  0  0
    4.1706    6.1972   -3.5000 H   0  0  0  1  0  0  0  0  0  0  0  0
  1  2  4  0  0  0  0
  1  6  4  0  0  0  0
  2  3  4  0  0  0  0
  2 18  1  0  0  0  0
  3  4  4  0  0  0  0
  4  5  4  0  0  0  0
  4  7  4  0  0  0  0
  5  6  4  0  0  0  0
  5  9  4  0  0  0  0
  6 25  1  0  0  0  0
  7  8  4  0  0  0  0
  7 26  1  0  0  0  0
  8  9  4  0  0  0  0
  9 10  1  0  0  0  0
 10 11  4  0  0  0  0
 10 15  4  0  0  0  0
 11 12  4  0  0  0  0
 11 27  1  0  0  0  0
 12 13  4  0  0  0  0
 12 28  1  0  0  0  0
 13 14  4  0  0  0  0
 13 16  1  0  0  0  0
 14 15  4  0  0  0  0
 14 29  1  0  0  0  0
 15 30  1  0  0  0  0
 16 17  1  0  0  0  0
 17 31  1  0  0  0  0
 17 32  1  0  0  0  0
 17 33  1  0  0  0  0
 18 19  1  0  0  0  0
 18 34  1  0  0  0  0
 19 20  1  0  0  0  0
 19 23  1  0  0  0  0
 19 35  1  0  0  0  0
 20 21  1  0  0  0  0
 20 36  1  0  0  0  0
 20 37  1  0  0  0  0
 21 22  1  0  0  0  0
 21 24  1  0  0  0  0
 21 38  1  0  0  0  0
 22 23  1  0  0  0  0
 22 39  1  0  0  0  0
 22 40  1  0  0  0  0
 23 41  1  0  0  0  0
 23 42  1  0  0  0  0
 24 43  1  0  0  0  0
 24 44  1  0  0  0  0
M  END
> <ConfClashScore>
0 

> <ConfOneFourInteractionScore>
-0.984337 

> <ConfScore>
-0.0441625 

> <ConfScorePBest>
0.00353992 

> <ConfTolerance>
0.342564 

$$$$
c13.sdf
 OpenBabel04162418043D

 44 47  0  0  0  0  0  0  0  0999 V2000
    2.1079   -0.3773   -1.8532 N   0  0  0  1  0  0  0  0  0  0  0  0
    2.5363    0.5907   -2.6455 C   0  0  0  1  0  0  0  0  0  0  0  0
    2.1526    0.6996   -3.8968 N   0  0  0  1  0  0  0  0  0  0  0  0
    1.2985   -0.1837   -4.4201 C   0  0  0  1  0  0  0  0  0  0  0  0
    0.8204   -1.2305   -3.6033 C   0  0  0  1  0  0  0  0  0  0  0  0
    1.2615   -1.2959   -2.2850 C   0  0  0  1  0  0  0  0  0  0  0  0
    0.7019   -0.3514   -5.6890 C   0  0  0  1  0  0  0  0  0  0  0  0
   -0.0689   -1.4010   -5.6538 N   0  0  0  1  0  0  0  0  0  0  0  0
   -0.0256   -1.9781   -4.3778 N   0  0  0  1  0  0  0  0  0  0  0  0
   -0.7073   -3.1837   -4.1155 C   0  0  0  1  0  0  0  0  0  0  0  0
   -1.8114   -3.5834   -4.8445 C   0  0  0  1  0  0  0  0  0  0  0  0
   -2.4409   -4.7820   -4.5474 C   0  0  0  1  0  0  0  0  0  0  0  0
   -1.9679   -5.5749   -3.5188 C   0  0  0  1  0  0  0  0  0  0  0  0
   -0.8605   -5.1739   -2.7878 C   0  0  0  1  0  0  0  0  0  0  0  0
   -0.2327   -3.9787   -3.0839 C   0  0  0  1  0  0  0  0  0  0  0  0
   -2.6384   -6.6923   -3.1625 O   0  0  0  1  0  0  0  0  0  0  0  0
   -3.7281   -7.1631   -3.9893 C   0  0  0  1  0  0  0  0  0  0  0  0
    3.3976    1.4989   -2.1526 N   0  0  0  1  0  0  0  0  0  0  0  0
    3.9875    2.6228   -2.8816 C   0  0  0  1  0  0  0  0  0  0  0  0
    5.1834    3.2201   -2.0727 C   0  0  0  1  0  0  0  0  0  0  0  0
    6.3842    2.3623   -2.6214 C   0  0  0  1  0  0  0  0  0  0  0  0
    6.0663    2.2793   -4.1081 C   0  0  0  1  0  0  0  0  0  0  0  0
    4.5539    2.1433   -4.2197 C   0  0  0  1  0  0  0  0  0  0  0  0
    7.6729    3.0365   -2.3877 N   0  0  0  1  0  0  0  0  0  0  0  0
    0.9317   -2.0526   -1.6521 H   0  0  0  1  0  0  0  0  0  0  0  0
    0.8529    0.2619   -6.5153 H   0  0  0  1  0  0  0  0  0  0  0  0
   -2.1698   -2.9849   -5.6158 H   0  0  0  1  0  0  0  0  0  0  0  0
   -3.2694   -5.0848   -5.0985 H   0  0  0  1  0  0  0  0  0  0  0  0
   -0.5020   -5.7723   -2.0164 H   0  0  0  1  0  0  0  0  0  0  0  0
    0.5957   -3.6759   -2.5329 H   0  0  0  1  0  0  0  0  0  0  0  0
   -4.5608   -6.4976   -3.8956 H   0  0  0  1  0  0  0  0  0  0  0  0
   -4.0180   -8.1432   -3.6727 H   0  0  0  1  0  0  0  0  0  0  0  0
   -3.4118   -7.1966   -5.0108 H   0  0  0  1  0  0  0  0  0  0  0  0
    3.6558    1.3981   -1.2127 H   0  0  0  1  0  0  0  0  0  0  0  0
    3.2423    3.3731   -3.0450 H   0  0  0  1  0  0  0  0  0  0  0  0
    5.3174    4.2608   -2.2823 H   0  0  0  1  0  0  0  0  0  0  0  0
    5.0522    3.0819   -1.0198 H   0  0  0  1  0  0  0  0  0  0  0  0
    6.4032    1.3906   -2.1740 H   0  0  0  1  0  0  0  0  0  0  0  0
    6.5470    1.4274   -4.5419 H   0  0  0  1  0  0  0  0  0  0  0  0
    6.3953    3.1673   -4.6065 H   0  0  0  1  0  0  0  0  0  0  0  0
    4.2845    1.1224   -4.3929 H   0  0  0  1  0  0  0  0  0  0  0  0
    4.1841    2.7509   -5.0190 H   0  0  0  1  0  0  0  0  0  0  0  0
    8.3994    2.4890   -2.7522 H   0  0  0  1  0  0  0  0  0  0  0  0
    7.8076    3.1583   -1.4246 H   0  0  0  1  0  0  0  0  0  0  0  0
  1  2  4  0  0  0  0
  1  6  4  0  0  0  0
  2  3  4  0  0  0  0
  2 18  1  0  0  0  0
  3  4  4  0  0  0  0
  4  5  4  0  0  0  0
  4  7  4  0  0  0  0
  5  6  4  0  0  0  0
  5  9  4  0  0  0  0
  6 25  1  0  0  0  0
  7  8  4  0  0  0  0
  7 26  1  0  0  0  0
  8  9  4  0  0  0  0
  9 10  1  0  0  0  0
 10 11  4  0  0  0  0
 10 15  4  0  0  0  0
 11 12  4  0  0  0  0
 11 27  1  0  0  0  0
 12 13  4  0  0  0  0
 12 28  1  0  0  0  0
 13 14  4  0  0  0  0
 13 16  1  0  0  0  0
 14 15  4  0  0  0  0
 14 29  1  0  0  0  0
 15 30  1  0  0  0  0
 16 17  1  0  0  0  0
 17 31  1  0  0  0  0
 17 32  1  0  0  0  0
 17 33  1  0  0  0  0
 18 19  1  0  0  0  0
 18 34  1  0  0  0  0
 19 20  1  0  0  0  0
 19 23  1  0  0  0  0
 19 35  1  0  0  0  0
 20 21  1  0  0  0  0
 20 36  1  0  0  0  0
 20 37  1  0  0  0  0
 21 22  1  0  0  0  0
 21 24  1  0  0  0  0
 21 38  1  0  0  0  0
 22 23  1  0  0  0  0
 22 39  1  0  0  0  0
 22 40  1  0  0  0  0
 23 41  1  0  0  0  0
 23 42  1  0  0  0  0
 24 43  1  0  0  0  0
 24 44  1  0  0  0  0
M  END
> <ConfClashScore>
0 

> <ConfOneFourInteractionScore>
-0.985399 

> <ConfScore>
-0.0435206 

> <ConfScorePBest>
0.00352659 

> <ConfTolerance>
0.289888 

$$$$
c13.sdf
 OpenBabel04162418043D

 44 47  0  0  0  0  0  0  0  0999 V2000
    2.1080   -0.3774   -1.8533 N   0  0  0  1  0  0  0  0  0  0  0  0
    2.5363    0.5907   -2.6454 C   0  0  0  1  0  0  0  0  0  0  0  0
    2.1525    0.6997   -3.8968 N   0  0  0  1  0  0  0  0  0  0  0  0
    1.2985   -0.1837   -4.4202 C   0  0  0  1  0  0  0  0  0  0  0  0
    0.8205   -1.2305   -3.6033 C   0  0  0  1  0  0  0  0  0  0  0  0
    1.2616   -1.2960   -2.2850 C   0  0  0  1  0  0  0  0  0  0  0  0
    0.7018   -0.3512   -5.6890 C   0  0  0  1  0  0  0  0  0  0  0  0
   -0.0689   -1.4010   -5.6537 N   0  0  0  1  0  0  0  0  0  0  0  0
   -0.0256   -1.9781   -4.3778 N   0  0  0  1  0  0  0  0  0  0  0  0
   -0.7848   -3.1434   -4.0794 C   0  0  0  1  0  0  0  0  0  0  0  0
   -0.6797   -4.3012   -4.8270 C   0  0  0  1  0  0  0  0  0  0  0  0
   -1.3635   -5.4421   -4.4372 C   0  0  0  1  0  0  0  0  0  0  0  0
   -2.1546   -5.4207   -3.3040 C   0  0  0  1  0  0  0  0  0  0  0  0
   -2.2599   -4.2595   -2.5543 C   0  0  0  1  0  0  0  0  0  0  0  0
   -1.5781   -3.1217   -2.9429 C   0  0  0  1  0  0  0  0  0  0  0  0
   -2.8267   -6.5340   -2.9262 O   0  0  0  1  0  0  0  0  0  0  0  0
   -3.6197   -6.4480   -1.7319 C   0  0  0  1  0  0  0  0  0  0  0  0
    3.3977    1.4989   -2.1527 N   0  0  0  1  0  0  0  0  0  0  0  0
    3.9840    1.4251   -0.8119 C   0  0  0  1  0  0  0  0  0  0  0  0
    4.6685    2.7764   -0.4165 C   0  0  0  1  0  0  0  0  0  0  0  0
    4.6944    2.7076    1.1216 C   0  0  0  1  0  0  0  0  0  0  0  0
    3.4758    1.8265    1.5673 C   0  0  0  1  0  0  0  0  0  0  0  0
    2.8988    1.2863    0.2627 C   0  0  0  1  0  0  0  0  0  0  0  0
    5.9727    2.0853    1.5849 N   0  0  0  1  0  0  0  0  0  0  0  0
    0.9318   -2.0527   -1.6522 H   0  0  0  1  0  0  0  0  0  0  0  0
    0.8528    0.2620   -6.5151 H   0  0  0  1  0  0  0  0  0  0  0  0
   -0.0877   -4.3162   -5.6819 H   0  0  0  1  0  0  0  0  0  0  0  0
   -1.2814   -6.3145   -4.9975 H   0  0  0  1  0  0  0  0  0  0  0  0
   -2.8519   -4.2444   -1.6993 H   0  0  0  1  0  0  0  0  0  0  0  0
   -1.6603   -2.2494   -2.3826 H   0  0  0  1  0  0  0  0  0  0  0  0
   -4.4349   -5.7737   -1.8921 H   0  0  0  1  0  0  0  0  0  0  0  0
   -3.0134   -6.0894   -0.9265 H   0  0  0  1  0  0  0  0  0  0  0  0
   -4.0017   -7.4171   -1.4872 H   0  0  0  1  0  0  0  0  0  0  0  0
    3.6479    2.2546   -2.7243 H   0  0  0  1  0  0  0  0  0  0  0  0
    4.6779    0.6117   -0.7698 H   0  0  0  1  0  0  0  0  0  0  0  0
    4.0939    3.6132   -0.7552 H   0  0  0  1  0  0  0  0  0  0  0  0
    5.6591    2.8382   -0.8162 H   0  0  0  1  0  0  0  0  0  0  0  0
    4.6059    3.6909    1.5341 H   0  0  0  1  0  0  0  0  0  0  0  0
    2.7504    2.4185    2.0852 H   0  0  0  1  0  0  0  0  0  0  0  0
    3.7990    1.0252    2.1984 H   0  0  0  1  0  0  0  0  0  0  0  0
    2.6303    0.2573    0.3803 H   0  0  0  1  0  0  0  0  0  0  0  0
    2.0340    1.8515   -0.0161 H   0  0  0  1  0  0  0  0  0  0  0  0
    6.0033    2.0915    2.5644 H   0  0  0  1  0  0  0  0  0  0  0  0
    6.7310    2.5955    1.2313 H   0  0  0  1  0  0  0  0  0  0  0  0
  1  2  4  0  0  0  0
  1  6  4  0  0  0  0
  2  3  4  0  0  0  0
  2 18  1  0  0  0  0
  3  4  4  0  0  0  0
  4  5  4  0  0  0  0
  4  7  4  0  0  0  0
  5  6  4  0  0  0  0
  5  9  4  0  0  0  0
  6 25  1  0  0  0  0
  7  8  4  0  0  0  0
  7 26  1  0  0  0  0
  8  9  4  0  0  0  0
  9 10  1  0  0  0  0
 10 11  4  0  0  0  0
 10 15  4  0  0  0  0
 11 12  4  0  0  0  0
 11 27  1  0  0  0  0
 12 13  4  0  0  0  0
 12 28  1  0  0  0  0
 13 14  4  0  0  0  0
 13 16  1  0  0  0  0
 14 15  4  0  0  0  0
 14 29  1  0  0  0  0
 15 30  1  0  0  0  0
 16 17  1  0  0  0  0
 17 31  1  0  0  0  0
 17 32  1  0  0  0  0
 17 33  1  0  0  0  0
 18 19  1  0  0  0  0
 18 34  1  0  0  0  0
 19 20  1  0  0  0  0
 19 23  1  0  0  0  0
 19 35  1  0  0  0  0
 20 21  1  0  0  0  0
 20 36  1  0  0  0  0
 20 37  1  0  0  0  0
 21 22  1  0  0  0  0
 21 24  1  0  0  0  0
 21 38  1  0  0  0  0
 22 23  1  0  0  0  0
 22 39  1  0  0  0  0
 22 40  1  0  0  0  0
 23 41  1  0  0  0  0
 23 42  1  0  0  0  0
 24 43  1  0  0  0  0
 24 44  1  0  0  0  0
M  END
> <ConfClashScore>
0 

> <ConfOneFourInteractionScore>
-0.985399 

> <ConfScore>
-0.042585 

> <ConfScorePBest>
0.00351326 

> <ConfTolerance>
0.308845 

$$$$
c13.sdf
 OpenBabel04162418043D

 44 47  0  0  0  0  0  0  0  0999 V2000
    2.1079   -0.3774   -1.8533 N   0  0  0  1  0  0  0  0  0  0  0  0
    2.5364    0.5907   -2.6455 C   0  0  0  1  0  0  0  0  0  0  0  0
    2.1525    0.6997   -3.8968 N   0  0  0  1  0  0  0  0  0  0  0  0
    1.2985   -0.1837   -4.4201 C   0  0  0  1  0  0  0  0  0  0  0  0
    0.8205   -1.2305   -3.6033 C   0  0  0  1  0  0  0  0  0  0  0  0
    1.2615   -1.2960   -2.2849 C   0  0  0  1  0  0  0  0  0  0  0  0
    0.7019   -0.3512   -5.6889 C   0  0  0  1  0  0  0  0  0  0  0  0
   -0.0690   -1.4010   -5.6537 N   0  0  0  1  0  0  0  0  0  0  0  0
   -0.0256   -1.9781   -4.3778 N   0  0  0  1  0  0  0  0  0  0  0  0
   -0.8277   -3.0747   -4.0286 C   0  0  0  1  0  0  0  0  0  0  0  0
   -1.7343   -3.4766   -4.9912 C   0  0  0  1  0  0  0  0  0  0  0  0
   -2.5711   -4.5546   -4.7478 C   0  0  0  1  0  0  0  0  0  0  0  0
   -2.5025   -5.2242   -3.5407 C   0  0  0  1  0  0  0  0  0  0  0  0
   -1.5931   -4.8209   -2.5752 C   0  0  0  1  0  0  0  0  0  0  0  0
   -0.7587   -3.7460   -2.8178 C   0  0  0  1  0  0  0  0  0  0  0  0
   -3.2942   -6.2804   -3.2384 O   0  0  0  1  0  0  0  0  0  0  0  0
   -4.2075   -6.7273   -4.2527 C   0  0  0  1  0  0  0  0  0  0  0  0
    3.4220    1.5244   -2.1388 N   0  0  0  1  0  0  0  0  0  0  0  0
    3.8630    2.6039   -3.0281 C   0  0  0  1  0  0  0  0  0  0  0  0
    4.3322    3.8134   -2.2119 C   0  0  0  1  0  0  0  0  0  0  0  0
    5.8309    3.5907   -2.0082 C   0  0  0  1  0  0  0  0  0  0  0  0
    6.2584    3.0261   -3.3651 C   0  0  0  1  0  0  0  0  0  0  0  0
    5.0870    2.1637   -3.8409 C   0  0  0  1  0  0  0  0  0  0  0  0
    6.5274    4.8626   -1.7122 N   0  0  0  1  0  0  0  0  0  0  0  0
    0.9318   -2.0527   -1.6522 H   0  0  0  1  0  0  0  0  0  0  0  0
    0.8528    0.2620   -6.5151 H   0  0  0  1  0  0  0  0  0  0  0  0
   -1.7888   -2.9703   -5.8980 H   0  0  0  1  0  0  0  0  0  0  0  0
   -3.2506   -4.8596   -5.4736 H   0  0  0  1  0  0  0  0  0  0  0  0
   -1.5386   -5.3271   -1.6685 H   0  0  0  1  0  0  0  0  0  0  0  0
   -0.0793   -3.4409   -2.0920 H   0  0  0  1  0  0  0  0  0  0  0  0
   -4.6002   -5.8816   -4.7775 H   0  0  0  1  0  0  0  0  0  0  0  0
   -5.0103   -7.2678   -3.7964 H   0  0  0  1  0  0  0  0  0  0  0  0
   -3.6923   -7.3655   -4.9400 H   0  0  0  1  0  0  0  0  0  0  0  0
    3.7445    1.4666   -1.2151 H   0  0  0  1  0  0  0  0  0  0  0  0
    3.0604    2.8803   -3.6796 H   0  0  0  1  0  0  0  0  0  0  0  0
    4.1560    4.7217   -2.7494 H   0  0  0  1  0  0  0  0  0  0  0  0
    3.8257    3.8516   -1.2702 H   0  0  0  1  0  0  0  0  0  0  0  0
    6.0158    2.8905   -1.2206 H   0  0  0  1  0  0  0  0  0  0  0  0
    7.1415    2.4311   -3.2602 H   0  0  0  1  0  0  0  0  0  0  0  0
    6.4430    3.8201   -4.0583 H   0  0  0  1  0  0  0  0  0  0  0  0
    5.2947    1.1289   -3.6648 H   0  0  0  1  0  0  0  0  0  0  0  0
    4.9130    2.3203   -4.8850 H   0  0  0  1  0  0  0  0  0  0  0  0
    6.3577    5.5040   -2.4334 H   0  0  0  1  0  0  0  0  0  0  0  0
    7.4909    4.6983   -1.6415 H   0  0  0  1  0  0  0  0  0  0  0  0
  1  2  4  0  0  0  0
  1  6  4  0  0  0  0
  2  3  4  0  0  0  0
  2 18  1  0  0  0  0
  3  4  4  0  0  0  0
  4  5  4  0  0  0  0
  4  7  4  0  0  0  0
  5  6  4  0  0  0  0
  5  9  4  0  0  0  0
  6 25  1  0  0  0  0
  7  8  4  0  0  0  0
  7 26  1  0  0  0  0
  8  9  4  0  0  0  0
  9 10  1  0  0  0  0
 10 11  4  0  0  0  0
 10 15  4  0  0  0  0
 11 12  4  0  0  0  0
 11 27  1  0  0  0  0
 12 13  4  0  0  0  0
 12 28  1  0  0  0  0
 13 14  4  0  0  0  0
 13 16  1  0  0  0  0
 14 15  4  0  0  0  0
 14 29  1  0  0  0  0
 15 30  1  0  0  0  0
 16 17  1  0  0  0  0
 17 31  1  0  0  0  0
 17 32  1  0  0  0  0
 17 33  1  0  0  0  0
 18 19  1  0  0  0  0
 18 34  1  0  0  0  0
 19 20  1  0  0  0  0
 19 23  1  0  0  0  0
 19 35  1  0  0  0  0
 20 21  1  0  0  0  0
 20 36  1  0  0  0  0
 20 37  1  0  0  0  0
 21 22  1  0  0  0  0
 21 24  1  0  0  0  0
 21 38  1  0  0  0  0
 22 23  1  0  0  0  0
 22 39  1  0  0  0  0
 22 40  1  0  0  0  0
 23 41  1  0  0  0  0
 23 42  1  0  0  0  0
 24 43  1  0  0  0  0
 24 44  1  0  0  0  0
M  END
> <ConfClashScore>
0 

> <ConfOneFourInteractionScore>
-0.984337 

> <ConfScore>
-0.041071 

> <ConfScorePBest>
0.00349994 

> <ConfTolerance>
0.343417 

$$$$
c13.sdf
 OpenBabel04162418043D

 44 47  0  0  0  0  0  0  0  0999 V2000
    2.1080   -0.3774   -1.8532 N   0  0  0  1  0  0  0  0  0  0  0  0
    2.5363    0.5907   -2.6455 C   0  0  0  1  0  0  0  0  0  0  0  0
    2.1526    0.6996   -3.8968 N   0  0  0  1  0  0  0  0  0  0  0  0
    1.2985   -0.1837   -4.4201 C   0  0  0  1  0  0  0  0  0  0  0  0
    0.8205   -1.2304   -3.6034 C   0  0  0  1  0  0  0  0  0  0  0  0
    1.2616   -1.2960   -2.2850 C   0  0  0  1  0  0  0  0  0  0  0  0
    0.7019   -0.3512   -5.6890 C   0  0  0  1  0  0  0  0  0  0  0  0
   -0.0689   -1.4010   -5.6538 N   0  0  0  1  0  0  0  0  0  0  0  0
   -0.0256   -1.9781   -4.3778 N   0  0  0  1  0  0  0  0  0  0  0  0
   -0.7849   -3.1435   -4.0795 C   0  0  0  1  0  0  0  0  0  0  0  0
   -0.2067   -4.3934   -4.1957 C   0  0  0  1  0  0  0  0  0  0  0  0
   -0.9450   -5.5288   -3.8998 C   0  0  0  1  0  0  0  0  0  0  0  0
   -2.2609   -5.4111   -3.4937 C   0  0  0  1  0  0  0  0  0  0  0  0
   -2.8407   -4.1573   -3.3771 C   0  0  0  1  0  0  0  0  0  0  0  0
   -2.1046   -3.0253   -3.6722 C   0  0  0  1  0  0  0  0  0  0  0  0
   -2.9799   -6.5147   -3.2112 O   0  0  0  1  0  0  0  0  0  0  0  0
   -2.3201   -7.7676   -3.5071 C   0  0  0  1  0  0  0  0  0  0  0  0
    3.4099    1.5117   -2.1457 N   0  0  0  1  0  0  0  0  0  0  0  0
    4.0392    2.5186   -3.0017 C   0  0  0  1  0  0  0  0  0  0  0  0
    3.2648    3.8394   -2.9346 C   0  0  0  1  0  0  0  0  0  0  0  0
    3.9275    4.6248   -1.8027 C   0  0  0  1  0  0  0  0  0  0  0  0
    5.4087    4.3003   -2.0117 C   0  0  0  1  0  0  0  0  0  0  0  0
    5.4490    2.8487   -2.4950 C   0  0  0  1  0  0  0  0  0  0  0  0
    3.6719    6.0769   -1.9351 N   0  0  0  1  0  0  0  0  0  0  0  0
    0.9317   -2.0526   -1.6523 H   0  0  0  1  0  0  0  0  0  0  0  0
    0.8528    0.2621   -6.5152 H   0  0  0  1  0  0  0  0  0  0  0  0
    0.7823   -4.4822   -4.5051 H   0  0  0  1  0  0  0  0  0  0  0  0
   -0.5087   -6.4690   -3.9834 H   0  0  0  1  0  0  0  0  0  0  0  0
   -3.8296   -4.0686   -3.0677 H   0  0  0  1  0  0  0  0  0  0  0  0
   -2.5410   -2.0850   -3.5886 H   0  0  0  1  0  0  0  0  0  0  0  0
   -1.5634   -7.9547   -2.7741 H   0  0  0  1  0  0  0  0  0  0  0  0
   -1.8712   -7.7137   -4.4770 H   0  0  0  1  0  0  0  0  0  0  0  0
   -3.0376   -8.5612   -3.4893 H   0  0  0  1  0  0  0  0  0  0  0  0
    3.6216    1.4988   -1.1889 H   0  0  0  1  0  0  0  0  0  0  0  0
    4.0779    2.1578   -4.0082 H   0  0  0  1  0  0  0  0  0  0  0  0
    2.2331    3.6603   -2.7149 H   0  0  0  1  0  0  0  0  0  0  0  0
    3.3460    4.3710   -3.8596 H   0  0  0  1  0  0  0  0  0  0  0  0
    3.5876    4.2881   -0.8456 H   0  0  0  1  0  0  0  0  0  0  0  0
    5.9464    4.4026   -1.0923 H   0  0  0  1  0  0  0  0  0  0  0  0
    5.8329    4.9506   -2.7479 H   0  0  0  1  0  0  0  0  0  0  0  0
    6.1604    2.7427   -3.2872 H   0  0  0  1  0  0  0  0  0  0  0  0
    5.7133    2.1978   -1.6880 H   0  0  0  1  0  0  0  0  0  0  0  0
    4.2493    6.5686   -1.3144 H   0  0  0  1  0  0  0  0  0  0  0  0
    2.7331    6.2635   -1.7251 H   0  0  0  1  0  0  0  0  0  0  0  0
  1  2  4  0  0  0  0
  1  6  4  0  0  0  0
  2  3  4  0  0  0  0
  2 18  1  0  0  0  0
  3  4  4  0  0  0  0
  4  5  4  0  0  0  0
  4  7  4  0  0  0  0
  5  6  4  0  0  0  0
  5  9  4  0  0  0  0
  6 25  1  0  0  0  0
  7  8  4  0  0  0  0
  7 26  1  0  0  0  0
  8  9  4  0  0  0  0
  9 10  1  0  0  0  0
 10 11  4  0  0  0  0
 10 15  4  0  0  0  0
 11 12  4  0  0  0  0
 11 27  1  0  0  0  0
 12 13  4  0  0  0  0
 12 28  1  0  0  0  0
 13 14  4  0  0  0  0
 13 16  1  0  0  0  0
 14 15  4  0  0  0  0
 14 29  1  0  0  0  0
 15 30  1  0  0  0  0
 16 17  1  0  0  0  0
 17 31  1  0  0  0  0
 17 32  1  0  0  0  0
 17 33  1  0  0  0  0
 18 19  1  0  0  0  0
 18 34  1  0  0  0  0
 19 20  1  0  0  0  0
 19 23  1  0  0  0  0
 19 35  1  0  0  0  0
 20 21  1  0  0  0  0
 20 36  1  0  0  0  0
 20 37  1  0  0  0  0
 21 22  1  0  0  0  0
 21 24  1  0  0  0  0
 21 38  1  0  0  0  0
 22 23  1  0  0  0  0
 22 39  1  0  0  0  0
 22 40  1  0  0  0  0
 23 41  1  0  0  0  0
 23 42  1  0  0  0  0
 24 43  1  0  0  0  0
 24 44  1  0  0  0  0
M  END
> <ConfClashScore>
0 

> <ConfOneFourInteractionScore>
-0.990106 

> <ConfScore>
-0.0408641 

> <ConfScorePBest>
0.00348661 

> <ConfTolerance>
0.39438 

$$$$
c13.sdf
 OpenBabel04162418043D

 44 47  0  0  0  0  0  0  0  0999 V2000
    2.1080   -0.3774   -1.8533 N   0  0  0  1  0  0  0  0  0  0  0  0
    2.5364    0.5907   -2.6455 C   0  0  0  1  0  0  0  0  0  0  0  0
    2.1525    0.6996   -3.8968 N   0  0  0  1  0  0  0  0  0  0  0  0
    1.2985   -0.1838   -4.4201 C   0  0  0  1  0  0  0  0  0  0  0  0
    0.8205   -1.2305   -3.6034 C   0  0  0  1  0  0  0  0  0  0  0  0
    1.2616   -1.2960   -2.2850 C   0  0  0  1  0  0  0  0  0  0  0  0
    0.7019   -0.3512   -5.6891 C   0  0  0  1  0  0  0  0  0  0  0  0
   -0.0689   -1.4010   -5.6538 N   0  0  0  1  0  0  0  0  0  0  0  0
   -0.0256   -1.9781   -4.3778 N   0  0  0  1  0  0  0  0  0  0  0  0
   -0.8022   -3.1445   -4.1240 C   0  0  0  1  0  0  0  0  0  0  0  0
   -1.5950   -3.2144   -2.9941 C   0  0  0  1  0  0  0  0  0  0  0  0
   -2.3549   -4.3477   -2.7499 C   0  0  0  1  0  0  0  0  0  0  0  0
   -2.3159   -5.4097   -3.6335 C   0  0  0  1  0  0  0  0  0  0  0  0
   -1.5208   -5.3395   -4.7668 C   0  0  0  1  0  0  0  0  0  0  0  0
   -0.7629   -4.2095   -5.0104 C   0  0  0  1  0  0  0  0  0  0  0  0
   -2.9893   -6.5807   -3.5375 O   0  0  0  1  0  0  0  0  0  0  0  0
   -3.8185   -6.7679   -2.3800 C   0  0  0  1  0  0  0  0  0  0  0  0
    3.4009    1.5022   -2.1508 N   0  0  0  1  0  0  0  0  0  0  0  0
    3.8728    2.6747   -2.9003 C   0  0  0  1  0  0  0  0  0  0  0  0
    3.3374    3.9724   -2.2950 C   0  0  0  1  0  0  0  0  0  0  0  0
    4.3051    5.0589   -2.7766 C   0  0  0  1  0  0  0  0  0  0  0  0
    5.6480    4.3455   -2.9784 C   0  0  0  1  0  0  0  0  0  0  0  0
    5.3860    2.8541   -2.7559 C   0  0  0  1  0  0  0  0  0  0  0  0
    3.8290    5.6503   -4.0628 N   0  0  0  1  0  0  0  0  0  0  0  0
    0.9318   -2.0527   -1.6522 H   0  0  0  1  0  0  0  0  0  0  0  0
    0.8529    0.2621   -6.5153 H   0  0  0  1  0  0  0  0  0  0  0  0
   -1.6213   -2.4168   -2.3272 H   0  0  0  1  0  0  0  0  0  0  0  0
   -2.9546   -4.3986   -1.9016 H   0  0  0  1  0  0  0  0  0  0  0  0
   -1.4945   -6.1369   -5.4337 H   0  0  0  1  0  0  0  0  0  0  0  0
   -0.1633   -4.1585   -5.8586 H   0  0  0  1  0  0  0  0  0  0  0  0
   -3.2014   -6.9288   -1.5207 H   0  0  0  1  0  0  0  0  0  0  0  0
   -4.4514   -7.6178   -2.5286 H   0  0  0  1  0  0  0  0  0  0  0  0
   -4.4207   -5.8964   -2.2282 H   0  0  0  1  0  0  0  0  0  0  0  0
    3.7334    1.3743   -1.2379 H   0  0  0  1  0  0  0  0  0  0  0  0
    3.5894    2.5796   -3.9277 H   0  0  0  1  0  0  0  0  0  0  0  0
    3.3353    3.9167   -1.2264 H   0  0  0  1  0  0  0  0  0  0  0  0
    2.3455    4.1698   -2.6443 H   0  0  0  1  0  0  0  0  0  0  0  0
    4.3979    5.8306   -2.0413 H   0  0  0  1  0  0  0  0  0  0  0  0
    6.3666    4.7038   -2.2712 H   0  0  0  1  0  0  0  0  0  0  0  0
    6.0098    4.5129   -3.9713 H   0  0  0  1  0  0  0  0  0  0  0  0
    5.9026    2.2709   -3.4895 H   0  0  0  1  0  0  0  0  0  0  0  0
    5.7048    2.5610   -1.7774 H   0  0  0  1  0  0  0  0  0  0  0  0
    4.4991    6.2804   -4.4009 H   0  0  0  1  0  0  0  0  0  0  0  0
    2.9837    6.1225   -3.9117 H   0  0  0  1  0  0  0  0  0  0  0  0
  1  2  4  0  0  0  0
  1  6  4  0  0  0  0
  2  3  4  0  0  0  0
  2 18  1  0  0  0  0
  3  4  4  0  0  0  0
  4  5  4  0  0  0  0
  4  7  4  0  0  0  0
  5  6  4  0  0  0  0
  5  9  4  0  0  0  0
  6 25  1  0  0  0  0
  7  8  4  0  0  0  0
  7 26  1  0  0  0  0
  8  9  4  0  0  0  0
  9 10  1  0  0  0  0
 10 11  4  0  0  0  0
 10 15  4  0  0  0  0
 11 12  4  0  0  0  0
 11 27  1  0  0  0  0
 12 13  4  0  0  0  0
 12 28  1  0  0  0  0
 13 14  4  0  0  0  0
 13 16  1  0  0  0  0
 14 15  4  0  0  0  0
 14 29  1  0  0  0  0
 15 30  1  0  0  0  0
 16 17  1  0  0  0  0
 17 31  1  0  0  0  0
 17 32  1  0  0  0  0
 17 33  1  0  0  0  0
 18 19  1  0  0  0  0
 18 34  1  0  0  0  0
 19 20  1  0  0  0  0
 19 23  1  0  0  0  0
 19 35  1  0  0  0  0
 20 21  1  0  0  0  0
 20 36  1  0  0  0  0
 20 37  1  0  0  0  0
 21 22  1  0  0  0  0
 21 24  1  0  0  0  0
 21 38  1  0  0  0  0
 22 23  1  0  0  0  0
 22 39  1  0  0  0  0
 22 40  1  0  0  0  0
 23 41  1  0  0  0  0
 23 42  1  0  0  0  0
 24 43  1  0  0  0  0
 24 44  1  0  0  0  0
M  END
> <ConfClashScore>
0 

> <ConfOneFourInteractionScore>
-0.984337 

> <ConfScore>
-0.0390292 

> <ConfScorePBest>
0.00347328 

> <ConfTolerance>
0.268231 

$$$$
c13.sdf
 OpenBabel04162418043D

 44 47  0  0  0  0  0  0  0  0999 V2000
    2.1080   -0.3773   -1.8533 N   0  0  0  1  0  0  0  0  0  0  0  0
    2.5364    0.5907   -2.6455 C   0  0  0  1  0  0  0  0  0  0  0  0
    2.1526    0.6996   -3.8968 N   0  0  0  1  0  0  0  0  0  0  0  0
    1.2985   -0.1838   -4.4201 C   0  0  0  1  0  0  0  0  0  0  0  0
    0.8204   -1.2305   -3.6033 C   0  0  0  1  0  0  0  0  0  0  0  0
    1.2616   -1.2960   -2.2850 C   0  0  0  1  0  0  0  0  0  0  0  0
    0.7019   -0.3513   -5.6890 C   0  0  0  1  0  0  0  0  0  0  0  0
   -0.0689   -1.4010   -5.6538 N   0  0  0  1  0  0  0  0  0  0  0  0
   -0.0256   -1.9781   -4.3778 N   0  0  0  1  0  0  0  0  0  0  0  0
   -0.7644   -3.1411   -4.0293 C   0  0  0  1  0  0  0  0  0  0  0  0
   -0.1024   -4.2837   -3.6214 C   0  0  0  1  0  0  0  0  0  0  0  0
   -0.8232   -5.4162   -3.2763 C   0  0  0  1  0  0  0  0  0  0  0  0
   -2.2036   -5.4048   -3.3452 C   0  0  0  1  0  0  0  0  0  0  0  0
   -2.8673   -4.2586   -3.7543 C   0  0  0  1  0  0  0  0  0  0  0  0
   -2.1488   -3.1292   -4.0985 C   0  0  0  1  0  0  0  0  0  0  0  0
   -3.0111   -6.4479   -3.0394 O   0  0  0  1  0  0  0  0  0  0  0  0
   -2.3897   -7.6187   -2.4865 C   0  0  0  1  0  0  0  0  0  0  0  0
    3.4098    1.5117   -2.1456 N   0  0  0  1  0  0  0  0  0  0  0  0
    3.8990    2.6301   -2.9583 C   0  0  0  1  0  0  0  0  0  0  0  0
    2.7274    3.4819   -3.4593 C   0  0  0  1  0  0  0  0  0  0  0  0
    2.5385    4.5566   -2.3885 C   0  0  0  1  0  0  0  0  0  0  0  0
    3.9839    4.8967   -2.0173 C   0  0  0  1  0  0  0  0  0  0  0  0
    4.7548    3.5776   -2.1081 C   0  0  0  1  0  0  0  0  0  0  0  0
    1.8327    5.7359   -2.9312 N   0  0  0  1  0  0  0  0  0  0  0  0
    0.9318   -2.0526   -1.6523 H   0  0  0  1  0  0  0  0  0  0  0  0
    0.8528    0.2622   -6.5152 H   0  0  0  1  0  0  0  0  0  0  0  0
    0.9364   -4.2937   -3.5733 H   0  0  0  1  0  0  0  0  0  0  0  0
   -0.3253   -6.2748   -2.9654 H   0  0  0  1  0  0  0  0  0  0  0  0
   -3.9062   -4.2485   -3.8024 H   0  0  0  1  0  0  0  0  0  0  0  0
   -2.6466   -2.2707   -4.4093 H   0  0  0  1  0  0  0  0  0  0  0  0
   -1.7307   -8.0492   -3.2112 H   0  0  0  1  0  0  0  0  0  0  0  0
   -3.1431   -8.3310   -2.2223 H   0  0  0  1  0  0  0  0  0  0  0  0
   -1.8323   -7.3481   -1.6142 H   0  0  0  1  0  0  0  0  0  0  0  0
    3.7184    1.4236   -1.2197 H   0  0  0  1  0  0  0  0  0  0  0  0
    4.4661    2.2514   -3.7828 H   0  0  0  1  0  0  0  0  0  0  0  0
    2.9626    3.9279   -4.4031 H   0  0  0  1  0  0  0  0  0  0  0  0
    1.8434    2.8869   -3.5558 H   0  0  0  1  0  0  0  0  0  0  0  0
    2.0008    4.1749   -1.5459 H   0  0  0  1  0  0  0  0  0  0  0  0
    4.3869    5.6124   -2.7032 H   0  0  0  1  0  0  0  0  0  0  0  0
    4.0314    5.2889   -1.0229 H   0  0  0  1  0  0  0  0  0  0  0  0
    5.7047    3.7362   -2.5745 H   0  0  0  1  0  0  0  0  0  0  0  0
    4.9007    3.1670   -1.1309 H   0  0  0  1  0  0  0  0  0  0  0  0
    0.9307    5.4762   -3.2129 H   0  0  0  1  0  0  0  0  0  0  0  0
    2.3269    6.0865   -3.7013 H   0  0  0  1  0  0  0  0  0  0  0  0
  1  2  4  0  0  0  0
  1  6  4  0  0  0  0
  2  3  4  0  0  0  0
  2 18  1  0  0  0  0
  3  4  4  0  0  0  0
  4  5  4  0  0  0  0
  4  7  4  0  0  0  0
  5  6  4  0  0  0  0
  5  9  4  0  0  0  0
  6 25  1  0  0  0  0
  7  8  4  0  0  0  0
  7 26  1  0  0  0  0
  8  9  4  0  0  0  0
  9 10  1  0  0  0  0
 10 11  4  0  0  0  0
 10 15  4  0  0  0  0
 11 12  4  0  0  0  0
 11 27  1  0  0  0  0
 12 13  4  0  0  0  0
 12 28  1  0  0  0  0
 13 14  4  0  0  0  0
 13 16  1  0  0  0  0
 14 15  4  0  0  0  0
 14 29  1  0  0  0  0
 15 30  1  0  0  0  0
 16 17  1  0  0  0  0
 17 31  1  0  0  0  0
 17 32  1  0  0  0  0
 17 33  1  0  0  0  0
 18 19  1  0  0  0  0
 18 34  1  0  0  0  0
 19 20  1  0  0  0  0
 19 23  1  0  0  0  0
 19 35  1  0  0  0  0
 20 21  1  0  0  0  0
 20 36  1  0  0  0  0
 20 37  1  0  0  0  0
 21 22  1  0  0  0  0
 21 24  1  0  0  0  0
 21 38  1  0  0  0  0
 22 23  1  0  0  0  0
 22 39  1  0  0  0  0
 22 40  1  0  0  0  0
 23 41  1  0  0  0  0
 23 42  1  0  0  0  0
 24 43  1  0  0  0  0
 24 44  1  0  0  0  0
M  END
> <ConfClashScore>
0 

> <ConfOneFourInteractionScore>
-0.981848 

> <ConfScore>
-0.038887 

> <ConfScorePBest>
0.00345995 

> <ConfTolerance>
0.23419 

$$$$
c13.sdf
 OpenBabel04162418043D

 44 47  0  0  0  0  0  0  0  0999 V2000
    2.1080   -0.3774   -1.8533 N   0  0  0  1  0  0  0  0  0  0  0  0
    2.5364    0.5907   -2.6455 C   0  0  0  1  0  0  0  0  0  0  0  0
    2.1525    0.6997   -3.8968 N   0  0  0  1  0  0  0  0  0  0  0  0
    1.2986   -0.1837   -4.4201 C   0  0  0  1  0  0  0  0  0  0  0  0
    0.8205   -1.2304   -3.6033 C   0  0  0  1  0  0  0  0  0  0  0  0
    1.2616   -1.2961   -2.2850 C   0  0  0  1  0  0  0  0  0  0  0  0
    0.7017   -0.3512   -5.6890 C   0  0  0  1  0  0  0  0  0  0  0  0
   -0.0690   -1.4009   -5.6537 N   0  0  0  1  0  0  0  0  0  0  0  0
   -0.0256   -1.9781   -4.3778 N   0  0  0  1  0  0  0  0  0  0  0  0
   -0.7779   -3.1329   -4.0822 C   0  0  0  1  0  0  0  0  0  0  0  0
   -0.1899   -4.3665   -3.8755 C   0  0  0  1  0  0  0  0  0  0  0  0
   -0.9774   -5.4690   -3.5823 C   0  0  0  1  0  0  0  0  0  0  0  0
   -2.3507   -5.3358   -3.5020 C   0  0  0  1  0  0  0  0  0  0  0  0
   -2.9403   -4.0985   -3.7093 C   0  0  0  1  0  0  0  0  0  0  0  0
   -2.1552   -2.9991   -4.0017 C   0  0  0  1  0  0  0  0  0  0  0  0
   -3.1707   -6.4026   -3.3487 O   0  0  0  1  0  0  0  0  0  0  0  0
   -4.5685   -6.1337   -3.1579 C   0  0  0  1  0  0  0  0  0  0  0  0
    3.3977    1.4989   -2.1526 N   0  0  0  1  0  0  0  0  0  0  0  0
    3.8692    1.5087   -0.7654 C   0  0  0  1  0  0  0  0  0  0  0  0
    5.3927    1.3783   -0.6957 C   0  0  0  1  0  0  0  0  0  0  0  0
    5.9380    2.7932   -0.9033 C   0  0  0  1  0  0  0  0  0  0  0  0
    4.7766    3.7541   -0.6195 C   0  0  0  1  0  0  0  0  0  0  0  0
    3.6340    2.8692   -0.1091 C   0  0  0  1  0  0  0  0  0  0  0  0
    7.0599    3.0532    0.0348 N   0  0  0  1  0  0  0  0  0  0  0  0
    0.9319   -2.0528   -1.6523 H   0  0  0  1  0  0  0  0  0  0  0  0
    0.8527    0.2622   -6.5152 H   0  0  0  1  0  0  0  0  0  0  0  0
    0.8431   -4.4676   -3.9399 H   0  0  0  1  0  0  0  0  0  0  0  0
   -0.5347   -6.3964   -3.4228 H   0  0  0  1  0  0  0  0  0  0  0  0
   -3.9733   -3.9973   -3.6449 H   0  0  0  1  0  0  0  0  0  0  0  0
   -2.5979   -2.0715   -4.1612 H   0  0  0  1  0  0  0  0  0  0  0  0
   -4.7275   -5.7530   -2.1707 H   0  0  0  1  0  0  0  0  0  0  0  0
   -5.1261   -7.0380   -3.2852 H   0  0  0  1  0  0  0  0  0  0  0  0
   -4.8935   -5.4098   -3.8757 H   0  0  0  1  0  0  0  0  0  0  0  0
    3.7295    2.1951   -2.7572 H   0  0  0  1  0  0  0  0  0  0  0  0
    3.3871    0.7254   -0.2188 H   0  0  0  1  0  0  0  0  0  0  0  0
    5.6915    0.9996    0.2595 H   0  0  0  1  0  0  0  0  0  0  0  0
    5.7469    0.7250   -1.4656 H   0  0  0  1  0  0  0  0  0  0  0  0
    6.2794    2.9134   -1.9102 H   0  0  0  1  0  0  0  0  0  0  0  0
    4.4849    4.2635   -1.5141 H   0  0  0  1  0  0  0  0  0  0  0  0
    5.0565    4.4704    0.1243 H   0  0  0  1  0  0  0  0  0  0  0  0
    2.6868    3.2705   -0.4033 H   0  0  0  1  0  0  0  0  0  0  0  0
    3.6706    2.7846    0.9569 H   0  0  0  1  0  0  0  0  0  0  0  0
    7.7786    2.4071   -0.1276 H   0  0  0  1  0  0  0  0  0  0  0  0
    6.7416    2.9624    0.9573 H   0  0  0  1  0  0  0  0  0  0  0  0
  1  2  4  0  0  0  0
  1  6  4  0  0  0  0
  2  3  4  0  0  0  0
  2 18  1  0  0  0  0
  3  4  4  0  0  0  0
  4  5  4  0  0  0  0
  4  7  4  0  0  0  0
  5  6  4  0  0  0  0
  5  9  4  0  0  0  0
  6 25  1  0  0  0  0
  7  8  4  0  0  0  0
  7 26  1  0  0  0  0
  8  9  4  0  0  0  0
  9 10  1  0  0  0  0
 10 11  4  0  0  0  0
 10 15  4  0  0  0  0
 11 12  4  0  0  0  0
 11 27  1  0  0  0  0
 12 13  4  0  0  0  0
 12 28  1  0  0  0  0
 13 14  4  0  0  0  0
 13 16  1  0  0  0  0
 14 15  4  0  0  0  0
 14 29  1  0  0  0  0
 15 30  1  0  0  0  0
 16 17  1  0  0  0  0
 17 31  1  0  0  0  0
 17 32  1  0  0  0  0
 17 33  1  0  0  0  0
 18 19  1  0  0  0  0
 18 34  1  0  0  0  0
 19 20  1  0  0  0  0
 19 23  1  0  0  0  0
 19 35  1  0  0  0  0
 20 21  1  0  0  0  0
 20 36  1  0  0  0  0
 20 37  1  0  0  0  0
 21 22  1  0  0  0  0
 21 24  1  0  0  0  0
 21 38  1  0  0  0  0
 22 23  1  0  0  0  0
 22 39  1  0  0  0  0
 22 40  1  0  0  0  0
 23 41  1  0  0  0  0
 23 42  1  0  0  0  0
 24 43  1  0  0  0  0
 24 44  1  0  0  0  0
M  END
> <ConfClashScore>
0 

> <ConfOneFourInteractionScore>
-0.984337 

> <ConfScore>
-0.0385484 

> <ConfScorePBest>
0.00344662 

> <ConfTolerance>
0.3852 

$$$$
c13.sdf
 OpenBabel04162418043D

 44 47  0  0  0  0  0  0  0  0999 V2000
    2.1080   -0.3774   -1.8532 N   0  0  0  1  0  0  0  0  0  0  0  0
    2.5363    0.5907   -2.6455 C   0  0  0  1  0  0  0  0  0  0  0  0
    2.1526    0.6996   -3.8967 N   0  0  0  1  0  0  0  0  0  0  0  0
    1.2985   -0.1838   -4.4201 C   0  0  0  1  0  0  0  0  0  0  0  0
    0.8205   -1.2305   -3.6034 C   0  0  0  1  0  0  0  0  0  0  0  0
    1.2616   -1.2961   -2.2849 C   0  0  0  1  0  0  0  0  0  0  0  0
    0.7019   -0.3512   -5.6890 C   0  0  0  1  0  0  0  0  0  0  0  0
   -0.0689   -1.4010   -5.6537 N   0  0  0  1  0  0  0  0  0  0  0  0
   -0.0256   -1.9780   -4.3778 N   0  0  0  1  0  0  0  0  0  0  0  0
   -0.7857   -3.1447   -4.0791 C   0  0  0  1  0  0  0  0  0  0  0  0
   -0.1424   -4.3358   -3.8003 C   0  0  0  1  0  0  0  0  0  0  0  0
   -0.8821   -5.4702   -3.5043 C   0  0  0  1  0  0  0  0  0  0  0  0
   -2.2630   -5.4114   -3.4934 C   0  0  0  1  0  0  0  0  0  0  0  0
   -2.9080   -4.2167   -3.7731 C   0  0  0  1  0  0  0  0  0  0  0  0
   -2.1705   -3.0857   -4.0682 C   0  0  0  1  0  0  0  0  0  0  0  0
   -2.8769   -6.5814   -3.1965 O   0  0  0  1  0  0  0  0  0  0  0  0
   -4.3108   -6.5685   -3.1180 C   0  0  0  1  0  0  0  0  0  0  0  0
    3.4099    1.5117   -2.1456 N   0  0  0  1  0  0  0  0  0  0  0  0
    3.9297    2.6089   -2.9708 C   0  0  0  1  0  0  0  0  0  0  0  0
    5.1801    3.2704   -2.2981 C   0  0  0  1  0  0  0  0  0  0  0  0
    5.9272    3.9257   -3.5083 C   0  0  0  1  0  0  0  0  0  0  0  0
    5.5474    3.0878   -4.7616 C   0  0  0  1  0  0  0  0  0  0  0  0
    4.4774    2.0783   -4.3097 C   0  0  0  1  0  0  0  0  0  0  0  0
    5.4830    5.3579   -3.6830 N   0  0  0  1  0  0  0  0  0  0  0  0
    0.9319   -2.0527   -1.6522 H   0  0  0  1  0  0  0  0  0  0  0  0
    0.8528    0.2621   -6.5151 H   0  0  0  1  0  0  0  0  0  0  0  0
    0.8966   -4.3810   -3.8125 H   0  0  0  1  0  0  0  0  0  0  0  0
   -0.3980   -6.3654   -3.2905 H   0  0  0  1  0  0  0  0  0  0  0  0
   -3.9469   -4.1715   -3.7609 H   0  0  0  1  0  0  0  0  0  0  0  0
   -2.6545   -2.1903   -4.2820 H   0  0  0  1  0  0  0  0  0  0  0  0
   -4.6234   -5.8250   -2.4148 H   0  0  0  1  0  0  0  0  0  0  0  0
   -4.6590   -7.5289   -2.7996 H   0  0  0  1  0  0  0  0  0  0  0  0
   -4.7186   -6.3421   -4.0810 H   0  0  0  1  0  0  0  0  0  0  0  0
    3.6977    1.4390   -1.2117 H   0  0  0  1  0  0  0  0  0  0  0  0
    3.1568    3.3307   -3.1333 H   0  0  0  1  0  0  0  0  0  0  0  0
    4.8855    4.0094   -1.5826 H   0  0  0  1  0  0  0  0  0  0  0  0
    5.7935    2.5352   -1.8203 H   0  0  0  1  0  0  0  0  0  0  0  0
    6.9851    3.8966   -3.3500 H   0  0  0  1  0  0  0  0  0  0  0  0
    5.1539    3.7250   -5.5258 H   0  0  0  1  0  0  0  0  0  0  0  0
    6.4073    2.5717   -5.1347 H   0  0  0  1  0  0  0  0  0  0  0  0
    3.6927    2.0193   -5.0348 H   0  0  0  1  0  0  0  0  0  0  0  0
    4.9132    1.1104   -4.1755 H   0  0  0  1  0  0  0  0  0  0  0  0
    4.5160    5.3836   -3.8402 H   0  0  0  1  0  0  0  0  0  0  0  0
    5.9490    5.7530   -4.4492 H   0  0  0  1  0  0  0  0  0  0  0  0
  1  2  4  0  0  0  0
  1  6  4  0  0  0  0
  2  3  4  0  0  0  0
  2 18  1  0  0  0  0
  3  4  4  0  0  0  0
  4  5  4  0  0  0  0
  4  7  4  0  0  0  0
  5  6  4  0  0  0  0
  5  9  4  0  0  0  0
  6 25  1  0  0  0  0
  7  8  4  0  0  0  0
  7 26  1  0  0  0  0
  8  9  4  0  0  0  0
  9 10  1  0  0  0  0
 10 11  4  0  0  0  0
 10 15  4  0  0  0  0
 11 12  4  0  0  0  0
 11 27  1  0  0  0  0
 12 13  4  0  0  0  0
 12 28  1  0  0  0  0
 13 14  4  0  0  0  0
 13 16  1  0  0  0  0
 14 15  4  0  0  0  0
 14 29  1  0  0  0  0
 15 30  1  0  0  0  0
 16 17  1  0  0  0  0
 17 31  1  0  0  0  0
 17 32  1  0  0  0  0
 17 33  1  0  0  0  0
 18 19  1  0  0  0  0
 18 34  1  0  0  0  0
 19 20  1  0  0  0  0
 19 23  1  0  0  0  0
 19 35  1  0  0  0  0
 20 21  1  0  0  0  0
 20 36  1  0  0  0  0
 20 37  1  0  0  0  0
 21 22  1  0  0  0  0
 21 24  1  0  0  0  0
 21 38  1  0  0  0  0
 22 23  1  0  0  0  0
 22 39  1  0  0  0  0
 22 40  1  0  0  0  0
 23 41  1  0  0  0  0
 23 42  1  0  0  0  0
 24 43  1  0  0  0  0
 24 44  1  0  0  0  0
M  END
> <ConfClashScore>
0 

> <ConfOneFourInteractionScore>
-0.985399 

> <ConfScore>
-0.0385221 

> <ConfScorePBest>
0.00343329 

> <ConfTolerance>
0.328779 

$$$$
c13.sdf
 OpenBabel04162418043D

 44 47  0  0  0  0  0  0  0  0999 V2000
    2.1079   -0.3774   -1.8532 N   0  0  0  1  0  0  0  0  0  0  0  0
    2.5364    0.5907   -2.6454 C   0  0  0  1  0  0  0  0  0  0  0  0
    2.1526    0.6996   -3.8969 N   0  0  0  1  0  0  0  0  0  0  0  0
    1.2985   -0.1837   -4.4202 C   0  0  0  1  0  0  0  0  0  0  0  0
    0.8205   -1.2305   -3.6033 C   0  0  0  1  0  0  0  0  0  0  0  0
    1.2616   -1.2960   -2.2850 C   0  0  0  1  0  0  0  0  0  0  0  0
    0.7019   -0.3512   -5.6890 C   0  0  0  1  0  0  0  0  0  0  0  0
   -0.0689   -1.4010   -5.6538 N   0  0  0  1  0  0  0  0  0  0  0  0
   -0.0256   -1.9781   -4.3778 N   0  0  0  1  0  0  0  0  0  0  0  0
   -0.7779   -3.1328   -4.0822 C   0  0  0  1  0  0  0  0  0  0  0  0
   -1.8171   -3.4556   -4.9342 C   0  0  0  1  0  0  0  0  0  0  0  0
   -2.5858   -4.5836   -4.6933 C   0  0  0  1  0  0  0  0  0  0  0  0
   -2.3165   -5.3826   -3.5981 C   0  0  0  1  0  0  0  0  0  0  0  0
   -1.2741   -5.0587   -2.7436 C   0  0  0  1  0  0  0  0  0  0  0  0
   -0.5076   -3.9340   -2.9838 C   0  0  0  1  0  0  0  0  0  0  0  0
   -3.0282   -6.4884   -3.3053 O   0  0  0  1  0  0  0  0  0  0  0  0
   -4.2233   -6.6751   -4.0987 C   0  0  0  1  0  0  0  0  0  0  0  0
    3.3929    1.4938   -2.1554 N   0  0  0  1  0  0  0  0  0  0  0  0
    3.9820    2.6214   -2.8851 C   0  0  0  1  0  0  0  0  0  0  0  0
    3.0241    3.8221   -2.8787 C   0  0  0  1  0  0  0  0  0  0  0  0
    3.9578    5.0239   -2.9658 C   0  0  0  1  0  0  0  0  0  0  0  0
    5.1214    4.6189   -2.0436 C   0  0  0  1  0  0  0  0  0  0  0  0
    5.2470    3.1001   -2.1894 C   0  0  0  1  0  0  0  0  0  0  0  0
    4.4306    5.2373   -4.3663 N   0  0  0  1  0  0  0  0  0  0  0  0
    0.9318   -2.0527   -1.6522 H   0  0  0  1  0  0  0  0  0  0  0  0
    0.8529    0.2621   -6.5153 H   0  0  0  1  0  0  0  0  0  0  0  0
   -2.0224   -2.8523   -5.7560 H   0  0  0  1  0  0  0  0  0  0  0  0
   -3.3654   -4.8288   -5.3365 H   0  0  0  1  0  0  0  0  0  0  0  0
   -1.0688   -5.6622   -1.9218 H   0  0  0  1  0  0  0  0  0  0  0  0
    0.2719   -3.6889   -2.3405 H   0  0  0  1  0  0  0  0  0  0  0  0
   -4.7561   -7.5332   -3.7455 H   0  0  0  1  0  0  0  0  0  0  0  0
   -3.9517   -6.8209   -5.1233 H   0  0  0  1  0  0  0  0  0  0  0  0
   -4.8462   -5.8092   -4.0140 H   0  0  0  1  0  0  0  0  0  0  0  0
    3.6524    1.3919   -1.2159 H   0  0  0  1  0  0  0  0  0  0  0  0
    4.1988    2.3227   -3.8893 H   0  0  0  1  0  0  0  0  0  0  0  0
    2.4504    3.8486   -1.9759 H   0  0  0  1  0  0  0  0  0  0  0  0
    2.3642    3.7891   -3.7204 H   0  0  0  1  0  0  0  0  0  0  0  0
    3.4768    5.9119   -2.6121 H   0  0  0  1  0  0  0  0  0  0  0  0
    4.9034    4.8807   -1.0293 H   0  0  0  1  0  0  0  0  0  0  0  0
    6.0266    5.1004   -2.3501 H   0  0  0  1  0  0  0  0  0  0  0  0
    6.1064    2.8563   -2.7784 H   0  0  0  1  0  0  0  0  0  0  0  0
    5.3332    2.6432   -1.2257 H   0  0  0  1  0  0  0  0  0  0  0  0
    4.9245    6.0820   -4.4198 H   0  0  0  1  0  0  0  0  0  0  0  0
    3.6591    5.2715   -4.9697 H   0  0  0  1  0  0  0  0  0  0  0  0
  1  2  4  0  0  0  0
  1  6  4  0  0  0  0
  2  3  4  0  0  0  0
  2 18  1  0  0  0  0
  3  4  4  0  0  0  0
  4  5  4  0  0  0  0
  4  7  4  0  0  0  0
  5  6  4  0  0  0  0
  5  9  4  0  0  0  0
  6 25  1  0  0  0  0
  7  8  4  0  0  0  0
  7 26  1  0  0  0  0
  8  9  4  0  0  0  0
  9 10  1  0  0  0  0
 10 11  4  0  0  0  0
 10 15  4  0  0  0  0
 11 12  4  0  0  0  0
 11 27  1  0  0  0  0
 12 13  4  0  0  0  0
 12 28  1  0  0  0  0
 13 14  4  0  0  0  0
 13 16  1  0  0  0  0
 14 15  4  0  0  0  0
 14 29  1  0  0  0  0
 15 30  1  0  0  0  0
 16 17  1  0  0  0  0
 17 31  1  0  0  0  0
 17 32  1  0  0  0  0
 17 33  1  0  0  0  0
 18 19  1  0  0  0  0
 18 34  1  0  0  0  0
 19 20  1  0  0  0  0
 19 23  1  0  0  0  0
 19 35  1  0  0  0  0
 20 21  1  0  0  0  0
 20 36  1  0  0  0  0
 20 37  1  0  0  0  0
 21 22  1  0  0  0  0
 21 24  1  0  0  0  0
 21 38  1  0  0  0  0
 22 23  1  0  0  0  0
 22 39  1  0  0  0  0
 22 40  1  0  0  0  0
 23 41  1  0  0  0  0
 23 42  1  0  0  0  0
 24 43  1  0  0  0  0
 24 44  1  0  0  0  0
M  END
> <ConfClashScore>
0 

> <ConfOneFourInteractionScore>
-0.984337 

> <ConfScore>
-0.0380876 

> <ConfScorePBest>
0.00341997 

> <ConfTolerance>
0.287678 

$$$$
c13.sdf
 OpenBabel04162418043D

 44 47  0  0  0  0  0  0  0  0999 V2000
    2.1080   -0.3774   -1.8532 N   0  0  0  1  0  0  0  0  0  0  0  0
    2.5363    0.5907   -2.6455 C   0  0  0  1  0  0  0  0  0  0  0  0
    2.1526    0.6996   -3.8968 N   0  0  0  1  0  0  0  0  0  0  0  0
    1.2986   -0.1837   -4.4201 C   0  0  0  1  0  0  0  0  0  0  0  0
    0.8205   -1.2305   -3.6033 C   0  0  0  1  0  0  0  0  0  0  0  0
    1.2616   -1.2961   -2.2850 C   0  0  0  1  0  0  0  0  0  0  0  0
    0.7019   -0.3513   -5.6890 C   0  0  0  1  0  0  0  0  0  0  0  0
   -0.0690   -1.4010   -5.6537 N   0  0  0  1  0  0  0  0  0  0  0  0
   -0.0256   -1.9781   -4.3778 N   0  0  0  1  0  0  0  0  0  0  0  0
   -0.8022   -3.1446   -4.1240 C   0  0  0  1  0  0  0  0  0  0  0  0
   -1.6621   -3.6264   -5.0927 C   0  0  0  1  0  0  0  0  0  0  0  0
   -2.4140   -4.7648   -4.8476 C   0  0  0  1  0  0  0  0  0  0  0  0
   -2.3078   -5.4151   -3.6326 C   0  0  0  1  0  0  0  0  0  0  0  0
   -1.4451   -4.9317   -2.6612 C   0  0  0  1  0  0  0  0  0  0  0  0
   -0.6954   -3.7965   -2.9054 C   0  0  0  1  0  0  0  0  0  0  0  0
   -3.0936   -6.5107   -3.5065 O   0  0  0  1  0  0  0  0  0  0  0  0
   -3.0562   -7.2037   -2.2491 C   0  0  0  1  0  0  0  0  0  0  0  0
    3.3977    1.4989   -2.1527 N   0  0  0  1  0  0  0  0  0  0  0  0
    4.0310    1.5404   -0.8337 C   0  0  0  1  0  0  0  0  0  0  0  0
    5.0298    0.3385   -0.6420 C   0  0  0  1  0  0  0  0  0  0  0  0
    5.9339    0.8750    0.5140 C   0  0  0  1  0  0  0  0  0  0  0  0
    5.9653    2.3990    0.3801 C   0  0  0  1  0  0  0  0  0  0  0  0
    4.9508    2.7464   -0.7007 C   0  0  0  1  0  0  0  0  0  0  0  0
    5.3606    0.4874    1.8365 N   0  0  0  1  0  0  0  0  0  0  0  0
    0.9318   -2.0527   -1.6523 H   0  0  0  1  0  0  0  0  0  0  0  0
    0.8528    0.2621   -6.5152 H   0  0  0  1  0  0  0  0  0  0  0  0
   -1.7451   -3.1348   -6.0055 H   0  0  0  1  0  0  0  0  0  0  0  0
   -3.0581   -5.1297   -5.5781 H   0  0  0  1  0  0  0  0  0  0  0  0
   -1.3622   -5.4232   -1.7484 H   0  0  0  1  0  0  0  0  0  0  0  0
   -0.0512   -3.4316   -2.1750 H   0  0  0  1  0  0  0  0  0  0  0  0
   -3.6238   -8.1078   -2.3225 H   0  0  0  1  0  0  0  0  0  0  0  0
   -3.4750   -6.5809   -1.4863 H   0  0  0  1  0  0  0  0  0  0  0  0
   -2.0421   -7.4386   -2.0016 H   0  0  0  1  0  0  0  0  0  0  0  0
    3.6331    2.2320   -2.7588 H   0  0  0  1  0  0  0  0  0  0  0  0
    3.2763    1.5424   -0.0751 H   0  0  0  1  0  0  0  0  0  0  0  0
    5.5973    0.1552   -1.5304 H   0  0  0  1  0  0  0  0  0  0  0  0
    4.5165   -0.5555   -0.3553 H   0  0  0  1  0  0  0  0  0  0  0  0
    6.9229    0.4770    0.4229 H   0  0  0  1  0  0  0  0  0  0  0  0
    5.6931    2.8591    1.3070 H   0  0  0  1  0  0  0  0  0  0  0  0
    6.9423    2.7267    0.0920 H   0  0  0  1  0  0  0  0  0  0  0  0
    5.4493    2.9352   -1.6285 H   0  0  0  1  0  0  0  0  0  0  0  0
    4.3881    3.6106   -0.4154 H   0  0  0  1  0  0  0  0  0  0  0  0
    5.3065   -0.4894    1.8959 H   0  0  0  1  0  0  0  0  0  0  0  0
    4.4631    0.8702    1.9282 H   0  0  0  1  0  0  0  0  0  0  0  0
  1  2  4  0  0  0  0
  1  6  4  0  0  0  0
  2  3  4  0  0  0  0
  2 18  1  0  0  0  0
  3  4  4  0  0  0  0
  4  5  4  0  0  0  0
  4  7  4  0  0  0  0
  5  6  4  0  0  0  0
  5  9  4  0  0  0  0
  6 25  1  0  0  0  0
  7  8  4  0  0  0  0
  7 26  1  0  0  0  0
  8  9  4  0  0  0  0
  9 10  1  0  0  0  0
 10 11  4  0  0  0  0
 10 15  4  0  0  0  0
 11 12  4  0  0  0  0
 11 27  1  0  0  0  0
 12 13  4  0  0  0  0
 12 28  1  0  0  0  0
 13 14  4  0  0  0  0
 13 16  1  0  0  0  0
 14 15  4  0  0  0  0
 14 29  1  0  0  0  0
 15 30  1  0  0  0  0
 16 17  1  0  0  0  0
 17 31  1  0  0  0  0
 17 32  1  0  0  0  0
 17 33  1  0  0  0  0
 18 19  1  0  0  0  0
 18 34  1  0  0  0  0
 19 20  1  0  0  0  0
 19 23  1  0  0  0  0
 19 35  1  0  0  0  0
 20 21  1  0  0  0  0
 20 36  1  0  0  0  0
 20 37  1  0  0  0  0
 21 22  1  0  0  0  0
 21 24  1  0  0  0  0
 21 38  1  0  0  0  0
 22 23  1  0  0  0  0
 22 39  1  0  0  0  0
 22 40  1  0  0  0  0
 23 41  1  0  0  0  0
 23 42  1  0  0  0  0
 24 43  1  0  0  0  0
 24 44  1  0  0  0  0
M  END
> <ConfClashScore>
0 

> <ConfOneFourInteractionScore>
-0.987888 

> <ConfScore>
-0.0371998 

> <ConfScorePBest>
0.00340664 

> <ConfTolerance>
0.324199 

$$$$
c13.sdf
 OpenBabel04162418043D

 44 47  0  0  0  0  0  0  0  0999 V2000
    2.1079   -0.3774   -1.8532 N   0  0  0  1  0  0  0  0  0  0  0  0
    2.5364    0.5908   -2.6455 C   0  0  0  1  0  0  0  0  0  0  0  0
    2.1525    0.6996   -3.8968 N   0  0  0  1  0  0  0  0  0  0  0  0
    1.2985   -0.1838   -4.4201 C   0  0  0  1  0  0  0  0  0  0  0  0
    0.8204   -1.2304   -3.6033 C   0  0  0  1  0  0  0  0  0  0  0  0
    1.2615   -1.2961   -2.2849 C   0  0  0  1  0  0  0  0  0  0  0  0
    0.7019   -0.3513   -5.6889 C   0  0  0  1  0  0  0  0  0  0  0  0
   -0.0689   -1.4010   -5.6538 N   0  0  0  1  0  0  0  0  0  0  0  0
   -0.0256   -1.9781   -4.3778 N   0  0  0  1  0  0  0  0  0  0  0  0
   -0.7222   -3.2102   -4.1098 C   0  0  0  1  0  0  0  0  0  0  0  0
   -1.5659   -3.7483   -5.0631 C   0  0  0  1  0  0  0  0  0  0  0  0
   -2.2321   -4.9366   -4.8073 C   0  0  0  1  0  0  0  0  0  0  0  0
   -2.0568   -5.5807   -3.5970 C   0  0  0  1  0  0  0  0  0  0  0  0
   -1.2105   -5.0408   -2.6409 C   0  0  0  1  0  0  0  0  0  0  0  0
   -0.5462   -3.8558   -2.8959 C   0  0  0  1  0  0  0  0  0  0  0  0
   -2.8068   -6.6757   -3.3450 O   0  0  0  1  0  0  0  0  0  0  0  0
   -2.8474   -7.2158   -2.0096 C   0  0  0  1  0  0  0  0  0  0  0  0
    3.3976    1.4989   -2.1526 N   0  0  0  1  0  0  0  0  0  0  0  0
    3.9776    1.5055   -0.8153 C   0  0  0  1  0  0  0  0  0  0  0  0
    4.5916    0.1393   -0.4902 C   0  0  0  1  0  0  0  0  0  0  0  0
    6.0475    0.2461   -0.9442 C   0  0  0  1  0  0  0  0  0  0  0  0
    6.4102    1.6727   -0.5245 C   0  0  0  1  0  0  0  0  0  0  0  0
    5.1417    2.5015   -0.7399 C   0  0  0  1  0  0  0  0  0  0  0  0
    6.8993   -0.7494   -0.2555 N   0  0  0  1  0  0  0  0  0  0  0  0
    0.9317   -2.0526   -1.6522 H   0  0  0  1  0  0  0  0  0  0  0  0
    0.8530    0.2620   -6.5152 H   0  0  0  1  0  0  0  0  0  0  0  0
   -1.7009   -3.2617   -5.9723 H   0  0  0  1  0  0  0  0  0  0  0  0
   -2.8638   -5.3437   -5.5261 H   0  0  0  1  0  0  0  0  0  0  0  0
   -1.0755   -5.5274   -1.7318 H   0  0  0  1  0  0  0  0  0  0  0  0
    0.0855   -3.4487   -2.1771 H   0  0  0  1  0  0  0  0  0  0  0  0
   -1.8841   -7.6035   -1.7516 H   0  0  0  1  0  0  0  0  0  0  0  0
   -3.5717   -8.0022   -1.9652 H   0  0  0  1  0  0  0  0  0  0  0  0
   -3.1168   -6.4428   -1.3206 H   0  0  0  1  0  0  0  0  0  0  0  0
    3.6613    2.2281   -2.7518 H   0  0  0  1  0  0  0  0  0  0  0  0
    3.2228    1.7567   -0.0998 H   0  0  0  1  0  0  0  0  0  0  0  0
    4.0863   -0.6375   -1.0250 H   0  0  0  1  0  0  0  0  0  0  0  0
    4.5380   -0.0572    0.5603 H   0  0  0  1  0  0  0  0  0  0  0  0
    6.1342    0.1190   -2.0030 H   0  0  0  1  0  0  0  0  0  0  0  0
    7.2086    2.0481   -1.1300 H   0  0  0  1  0  0  0  0  0  0  0  0
    6.7011    1.6962    0.5050 H   0  0  0  1  0  0  0  0  0  0  0  0
    5.2132    3.0561   -1.6522 H   0  0  0  1  0  0  0  0  0  0  0  0
    4.9981    3.1764    0.0779 H   0  0  0  1  0  0  0  0  0  0  0  0
    6.5655   -1.6515   -0.4435 H   0  0  0  1  0  0  0  0  0  0  0  0
    6.8750   -0.5872    0.7107 H   0  0  0  1  0  0  0  0  0  0  0  0
  1  2  4  0  0  0  0
  1  6  4  0  0  0  0
  2  3  4  0  0  0  0
  2 18  1  0  0  0  0
  3  4  4  0  0  0  0
  4  5  4  0  0  0  0
  4  7  4  0  0  0  0
  5  6  4  0  0  0  0
  5  9  4  0  0  0  0
  6 25  1  0  0  0  0
  7  8  4  0  0  0  0
  7 26  1  0  0  0  0
  8  9  4  0  0  0  0
  9 10  1  0  0  0  0
 10 11  4  0  0  0  0
 10 15  4  0  0  0  0
 11 12  4  0  0  0  0
 11 27  1  0  0  0  0
 12 13  4  0  0  0  0
 12 28  1  0  0  0  0
 13 14  4  0  0  0  0
 13 16  1  0  0  0  0
 14 15  4  0  0  0  0
 14 29  1  0  0  0  0
 15 30  1  0  0  0  0
 16 17  1  0  0  0  0
 17 31  1  0  0  0  0
 17 32  1  0  0  0  0
 17 33  1  0  0  0  0
 18 19  1  0  0  0  0
 18 34  1  0  0  0  0
 19 20  1  0  0  0  0
 19 23  1  0  0  0  0
 19 35  1  0  0  0  0
 20 21  1  0  0  0  0
 20 36  1  0  0  0  0
 20 37  1  0  0  0  0
 21 22  1  0  0  0  0
 21 24  1  0  0  0  0
 21 38  1  0  0  0  0
 22 23  1  0  0  0  0
 22 39  1  0  0  0  0
 22 40  1  0  0  0  0
 23 41  1  0  0  0  0
 23 42  1  0  0  0  0
 24 43  1  0  0  0  0
 24 44  1  0  0  0  0
M  END
> <ConfClashScore>
0 

> <ConfOneFourInteractionScore>
-0.985399 

> <ConfScore>
-0.0371998 

> <ConfScorePBest>
0.00339331 

> <ConfTolerance>
0.254467 

$$$$
c13.sdf
 OpenBabel04162418043D

 44 47  0  0  0  0  0  0  0  0999 V2000
    2.1080   -0.3774   -1.8533 N   0  0  0  1  0  0  0  0  0  0  0  0
    2.5364    0.5907   -2.6454 C   0  0  0  1  0  0  0  0  0  0  0  0
    2.1526    0.6996   -3.8968 N   0  0  0  1  0  0  0  0  0  0  0  0
    1.2985   -0.1837   -4.4201 C   0  0  0  1  0  0  0  0  0  0  0  0
    0.8205   -1.2305   -3.6033 C   0  0  0  1  0  0  0  0  0  0  0  0
    1.2616   -1.2961   -2.2850 C   0  0  0  1  0  0  0  0  0  0  0  0
    0.7019   -0.3512   -5.6890 C   0  0  0  1  0  0  0  0  0  0  0  0
   -0.0689   -1.4009   -5.6537 N   0  0  0  1  0  0  0  0  0  0  0  0
   -0.0256   -1.9781   -4.3778 N   0  0  0  1  0  0  0  0  0  0  0  0
   -0.7779   -3.1328   -4.0822 C   0  0  0  1  0  0  0  0  0  0  0  0
   -0.1948   -4.2988   -3.6233 C   0  0  0  1  0  0  0  0  0  0  0  0
   -0.9830   -5.4040   -3.3428 C   0  0  0  1  0  0  0  0  0  0  0  0
   -2.3514   -5.3417   -3.5270 C   0  0  0  1  0  0  0  0  0  0  0  0
   -2.9361   -4.1723   -3.9872 C   0  0  0  1  0  0  0  0  0  0  0  0
   -2.1502   -3.0702   -4.2671 C   0  0  0  1  0  0  0  0  0  0  0  0
   -3.1763   -6.3862   -3.2768 O   0  0  0  1  0  0  0  0  0  0  0  0
   -2.5652   -7.6272   -2.8907 C   0  0  0  1  0  0  0  0  0  0  0  0
    3.4220    1.5245   -2.1388 N   0  0  0  1  0  0  0  0  0  0  0  0
    3.8741    1.3594   -0.7501 C   0  0  0  1  0  0  0  0  0  0  0  0
    5.2396    0.5938   -0.7122 C   0  0  0  1  0  0  0  0  0  0  0  0
    6.2945    1.7516   -0.7256 C   0  0  0  1  0  0  0  0  0  0  0  0
    5.6486    2.8400    0.1533 C   0  0  0  1  0  0  0  0  0  0  0  0
    4.1335    2.7478   -0.1002 C   0  0  0  1  0  0  0  0  0  0  0  0
    7.5986    1.2947   -0.1406 N   0  0  0  1  0  0  0  0  0  0  0  0
    0.9318   -2.0528   -1.6522 H   0  0  0  1  0  0  0  0  0  0  0  0
    0.8528    0.2621   -6.5152 H   0  0  0  1  0  0  0  0  0  0  0  0
    0.8353   -4.3470   -3.4885 H   0  0  0  1  0  0  0  0  0  0  0  0
   -0.5447   -6.2801   -2.9936 H   0  0  0  1  0  0  0  0  0  0  0  0
   -3.9662   -4.1241   -4.1221 H   0  0  0  1  0  0  0  0  0  0  0  0
   -2.5886   -2.1940   -4.6161 H   0  0  0  1  0  0  0  0  0  0  0  0
   -3.2234   -8.1615   -2.2379 H   0  0  0  1  0  0  0  0  0  0  0  0
   -1.6443   -7.4283   -2.3835 H   0  0  0  1  0  0  0  0  0  0  0  0
   -2.3726   -8.2163   -3.7629 H   0  0  0  1  0  0  0  0  0  0  0  0
    3.7379    2.2721   -2.6881 H   0  0  0  1  0  0  0  0  0  0  0  0
    3.1333    0.8231   -0.1947 H   0  0  0  1  0  0  0  0  0  0  0  0
    5.3257    0.0058    0.1776 H   0  0  0  1  0  0  0  0  0  0  0  0
    5.3504   -0.0369   -1.5693 H   0  0  0  1  0  0  0  0  0  0  0  0
    6.4555    2.1100   -1.7209 H   0  0  0  1  0  0  0  0  0  0  0  0
    5.8640    2.6601    1.1857 H   0  0  0  1  0  0  0  0  0  0  0  0
    6.0135    3.8068   -0.1246 H   0  0  0  1  0  0  0  0  0  0  0  0
    3.5996    2.8282    0.8235 H   0  0  0  1  0  0  0  0  0  0  0  0
    3.8221    3.5289   -0.7619 H   0  0  0  1  0  0  0  0  0  0  0  0
    7.9258    0.5167   -0.6385 H   0  0  0  1  0  0  0  0  0  0  0  0
    7.4667    1.0493    0.7989 H   0  0  0  1  0  0  0  0  0  0  0  0
  1  2  4  0  0  0  0
  1  6  4  0  0  0  0
  2  3  4  0  0  0  0
  2 18  1  0  0  0  0
  3  4  4  0  0  0  0
  4  5  4  0  0  0  0
  4  7  4  0  0  0  0
  5  6  4  0  0  0  0
  5  9  4  0  0  0  0
  6 25  1  0  0  0  0
  7  8  4  0  0  0  0
  7 26  1  0  0  0  0
  8  9  4  0  0  0  0
  9 10  1  0  0  0  0
 10 11  4  0  0  0  0
 10 15  4  0  0  0  0
 11 12  4  0  0  0  0
 11 27  1  0  0  0  0
 12 13  4  0  0  0  0
 12 28  1  0  0  0  0
 13 14  4  0  0  0  0
 13 16  1  0  0  0  0
 14 15  4  0  0  0  0
 14 29  1  0  0  0  0
 15 30  1  0  0  0  0
 16 17  1  0  0  0  0
 17 31  1  0  0  0  0
 17 32  1  0  0  0  0
 17 33  1  0  0  0  0
 18 19  1  0  0  0  0
 18 34  1  0  0  0  0
 19 20  1  0  0  0  0
 19 23  1  0  0  0  0
 19 35  1  0  0  0  0
 20 21  1  0  0  0  0
 20 36  1  0  0  0  0
 20 37  1  0  0  0  0
 21 22  1  0  0  0  0
 21 24  1  0  0  0  0
 21 38  1  0  0  0  0
 22 23  1  0  0  0  0
 22 39  1  0  0  0  0
 22 40  1  0  0  0  0
 23 41  1  0  0  0  0
 23 42  1  0  0  0  0
 24 43  1  0  0  0  0
 24 44  1  0  0  0  0
M  END
> <ConfClashScore>
0 

> <ConfOneFourInteractionScore>
-0.984337 

> <ConfScore>
-0.0368332 

> <ConfScorePBest>
0.00337998 

> <ConfTolerance>
0.297063 

$$$$
c13.sdf
 OpenBabel04162418043D

 44 47  0  0  0  0  0  0  0  0999 V2000
    2.1079   -0.3773   -1.8532 N   0  0  0  1  0  0  0  0  0  0  0  0
    2.5364    0.5907   -2.6455 C   0  0  0  1  0  0  0  0  0  0  0  0
    2.1526    0.6997   -3.8968 N   0  0  0  1  0  0  0  0  0  0  0  0
    1.2985   -0.1838   -4.4201 C   0  0  0  1  0  0  0  0  0  0  0  0
    0.8204   -1.2304   -3.6033 C   0  0  0  1  0  0  0  0  0  0  0  0
    1.2615   -1.2960   -2.2850 C   0  0  0  1  0  0  0  0  0  0  0  0
    0.7020   -0.3513   -5.6890 C   0  0  0  1  0  0  0  0  0  0  0  0
   -0.0688   -1.4010   -5.6537 N   0  0  0  1  0  0  0  0  0  0  0  0
   -0.0256   -1.9781   -4.3778 N   0  0  0  1  0  0  0  0  0  0  0  0
   -0.8278   -3.0746   -4.0286 C   0  0  0  1  0  0  0  0  0  0  0  0
   -0.3445   -4.2850   -3.5685 C   0  0  0  1  0  0  0  0  0  0  0  0
   -1.2256   -5.3052   -3.2453 C   0  0  0  1  0  0  0  0  0  0  0  0
   -2.5870   -5.1140   -3.3882 C   0  0  0  1  0  0  0  0  0  0  0  0
   -3.0715   -3.8999   -3.8496 C   0  0  0  1  0  0  0  0  0  0  0  0
   -2.1931   -2.8827   -4.1719 C   0  0  0  1  0  0  0  0  0  0  0  0
   -3.4428   -6.1073   -3.0789 O   0  0  0  1  0  0  0  0  0  0  0  0
   -2.8337   -7.2783   -2.4869 C   0  0  0  1  0  0  0  0  0  0  0  0
    3.3977    1.4989   -2.1526 N   0  0  0  1  0  0  0  0  0  0  0  0
    3.8804    1.4998   -0.7707 C   0  0  0  1  0  0  0  0  0  0  0  0
    4.5166    0.1157   -0.4227 C   0  0  0  1  0  0  0  0  0  0  0  0
    6.0156    0.3526   -0.8422 C   0  0  0  1  0  0  0  0  0  0  0  0
    6.2664    1.7712   -0.3495 C   0  0  0  1  0  0  0  0  0  0  0  0
    4.9810    2.5486   -0.5982 C   0  0  0  1  0  0  0  0  0  0  0  0
    6.9262   -0.6227   -0.1712 N   0  0  0  1  0  0  0  0  0  0  0  0
    0.9316   -2.0525   -1.6522 H   0  0  0  1  0  0  0  0  0  0  0  0
    0.8530    0.2620   -6.5152 H   0  0  0  1  0  0  0  0  0  0  0  0
    0.6800   -4.4303   -3.4648 H   0  0  0  1  0  0  0  0  0  0  0  0
   -0.8621   -6.2145   -2.8953 H   0  0  0  1  0  0  0  0  0  0  0  0
   -4.0960   -3.7546   -3.9534 H   0  0  0  1  0  0  0  0  0  0  0  0
   -2.5565   -1.9733   -4.5220 H   0  0  0  1  0  0  0  0  0  0  0  0
   -3.5621   -8.0578   -2.4065 H   0  0  0  1  0  0  0  0  0  0  0  0
   -2.4640   -7.0339   -1.5130 H   0  0  0  1  0  0  0  0  0  0  0  0
   -2.0242   -7.6090   -3.1036 H   0  0  0  1  0  0  0  0  0  0  0  0
    3.7211    2.2016   -2.7543 H   0  0  0  1  0  0  0  0  0  0  0  0
    3.0665    1.7078   -0.1081 H   0  0  0  1  0  0  0  0  0  0  0  0
    4.4318   -0.1030    0.6213 H   0  0  0  1  0  0  0  0  0  0  0  0
    4.0710   -0.6742   -0.9905 H   0  0  0  1  0  0  0  0  0  0  0  0
    6.1372    0.2831   -1.9030 H   0  0  0  1  0  0  0  0  0  0  0  0
    7.0763    2.2130   -0.8916 H   0  0  0  1  0  0  0  0  0  0  0  0
    6.4977    1.7642    0.6952 H   0  0  0  1  0  0  0  0  0  0  0  0
    5.0711    3.1420   -1.4840 H   0  0  0  1  0  0  0  0  0  0  0  0
    4.7628    3.1825    0.2357 H   0  0  0  1  0  0  0  0  0  0  0  0
    6.8098   -0.5640    0.8001 H   0  0  0  1  0  0  0  0  0  0  0  0
    7.8555   -0.4134   -0.4017 H   0  0  0  1  0  0  0  0  0  0  0  0
  1  2  4  0  0  0  0
  1  6  4  0  0  0  0
  2  3  4  0  0  0  0
  2 18  1  0  0  0  0
  3  4  4  0  0  0  0
  4  5  4  0  0  0  0
  4  7  4  0  0  0  0
  5  6  4  0  0  0  0
  5  9  4  0  0  0  0
  6 25  1  0  0  0  0
  7  8  4  0  0  0  0
  7 26  1  0  0  0  0
  8  9  4  0  0  0  0
  9 10  1  0  0  0  0
 10 11  4  0  0  0  0
 10 15  4  0  0  0  0
 11 12  4  0  0  0  0
 11 27  1  0  0  0  0
 12 13  4  0  0  0  0
 12 28  1  0  0  0  0
 13 14  4  0  0  0  0
 13 16  1  0  0  0  0
 14 15  4  0  0  0  0
 14 29  1  0  0  0  0
 15 30  1  0  0  0  0
 16 17  1  0  0  0  0
 17 31  1  0  0  0  0
 17 32  1  0  0  0  0
 17 33  1  0  0  0  0
 18 19  1  0  0  0  0
 18 34  1  0  0  0  0
 19 20  1  0  0  0  0
 19 23  1  0  0  0  0
 19 35  1  0  0  0  0
 20 21  1  0  0  0  0
 20 36  1  0  0  0  0
 20 37  1  0  0  0  0
 21 22  1  0  0  0  0
 21 24  1  0  0  0  0
 21 38  1  0  0  0  0
 22 23  1  0  0  0  0
 22 39  1  0  0  0  0
 22 40  1  0  0  0  0
 23 41  1  0  0  0  0
 23 42  1  0  0  0  0
 24 43  1  0  0  0  0
 24 44  1  0  0  0  0
M  END
> <ConfClashScore>
0 

> <ConfOneFourInteractionScore>
-0.985399 

> <ConfScore>
-0.0358845 

> <ConfScorePBest>
0.00336665 

> <ConfTolerance>
0.291232 

$$$$
c13.sdf
 OpenBabel04162418043D

 44 47  0  0  0  0  0  0  0  0999 V2000
    2.1080   -0.3775   -1.8533 N   0  0  0  1  0  0  0  0  0  0  0  0
    2.5364    0.5907   -2.6455 C   0  0  0  1  0  0  0  0  0  0  0  0
    2.1525    0.6996   -3.8968 N   0  0  0  1  0  0  0  0  0  0  0  0
    1.2986   -0.1837   -4.4201 C   0  0  0  1  0  0  0  0  0  0  0  0
    0.8205   -1.2305   -3.6033 C   0  0  0  1  0  0  0  0  0  0  0  0
    1.2617   -1.2961   -2.2850 C   0  0  0  1  0  0  0  0  0  0  0  0
    0.7018   -0.3512   -5.6889 C   0  0  0  1  0  0  0  0  0  0  0  0
   -0.0690   -1.4010   -5.6538 N   0  0  0  1  0  0  0  0  0  0  0  0
   -0.0256   -1.9781   -4.3778 N   0  0  0  1  0  0  0  0  0  0  0  0
   -0.8665   -3.0846   -4.0670 C   0  0  0  1  0  0  0  0  0  0  0  0
   -2.2350   -2.9103   -3.9834 C   0  0  0  1  0  0  0  0  0  0  0  0
   -3.0540   -3.9883   -3.6861 C   0  0  0  1  0  0  0  0  0  0  0  0
   -2.5017   -5.2365   -3.4680 C   0  0  0  1  0  0  0  0  0  0  0  0
   -1.1291   -5.4111   -3.5519 C   0  0  0  1  0  0  0  0  0  0  0  0
   -0.3124   -4.3362   -3.8483 C   0  0  0  1  0  0  0  0  0  0  0  0
   -3.2448   -6.3284   -3.1689 O   0  0  0  1  0  0  0  0  0  0  0  0
   -2.5471   -7.4803   -2.6700 C   0  0  0  1  0  0  0  0  0  0  0  0
    3.4058    1.5381   -2.2096 N   0  0  0  1  0  0  0  0  0  0  0  0
    3.9824    1.4972   -0.8452 C   0  0  0  1  0  0  0  0  0  0  0  0
    5.0347    0.3887   -0.7192 C   0  0  0  1  0  0  0  0  0  0  0  0
    6.3455    0.9381   -1.2729 C   0  0  0  1  0  0  0  0  0  0  0  0
    6.1555    2.4949   -1.2578 C   0  0  0  1  0  0  0  0  0  0  0  0
    4.8217    2.7841   -0.5447 C   0  0  0  1  0  0  0  0  0  0  0  0
    7.4992    0.5361   -0.4016 N   0  0  0  1  0  0  0  0  0  0  0  0
    0.9319   -2.0527   -1.6523 H   0  0  0  1  0  0  0  0  0  0  0  0
    0.8527    0.2622   -6.5152 H   0  0  0  1  0  0  0  0  0  0  0  0
   -2.6503   -1.9703   -4.1435 H   0  0  0  1  0  0  0  0  0  0  0  0
   -4.0841   -3.8581   -3.6271 H   0  0  0  1  0  0  0  0  0  0  0  0
   -0.7138   -6.3511   -3.3918 H   0  0  0  1  0  0  0  0  0  0  0  0
    0.7177   -4.4665   -3.9073 H   0  0  0  1  0  0  0  0  0  0  0  0
   -1.8026   -7.7810   -3.3773 H   0  0  0  1  0  0  0  0  0  0  0  0
   -3.2415   -8.2808   -2.5213 H   0  0  0  1  0  0  0  0  0  0  0  0
   -2.0775   -7.2373   -1.7398 H   0  0  0  1  0  0  0  0  0  0  0  0
    3.6584    2.2679   -2.8130 H   0  0  0  1  0  0  0  0  0  0  0  0
    3.1973    1.3700   -0.1293 H   0  0  0  1  0  0  0  0  0  0  0  0
    4.7311   -0.4691   -1.2822 H   0  0  0  1  0  0  0  0  0  0  0  0
    5.1574    0.1164    0.3082 H   0  0  0  1  0  0  0  0  0  0  0  0
    6.5117    0.5869   -2.2699 H   0  0  0  1  0  0  0  0  0  0  0  0
    6.9620    2.9574   -0.7282 H   0  0  0  1  0  0  0  0  0  0  0  0
    6.1243    2.8699   -2.2594 H   0  0  0  1  0  0  0  0  0  0  0  0
    4.3496    3.6552   -0.9487 H   0  0  0  1  0  0  0  0  0  0  0  0
    4.9671    2.9123    0.5076 H   0  0  0  1  0  0  0  0  0  0  0  0
    7.4497    1.0187    0.4500 H   0  0  0  1  0  0  0  0  0  0  0  0
    8.3410    0.7555   -0.8527 H   0  0  0  1  0  0  0  0  0  0  0  0
  1  2  4  0  0  0  0
  1  6  4  0  0  0  0
  2  3  4  0  0  0  0
  2 18  1  0  0  0  0
  3  4  4  0  0  0  0
  4  5  4  0  0  0  0
  4  7  4  0  0  0  0
  5  6  4  0  0  0  0
  5  9  4  0  0  0  0
  6 25  1  0  0  0  0
  7  8  4  0  0  0  0
  7 26  1  0  0  0  0
  8  9  4  0  0  0  0
  9 10  1  0  0  0  0
 10 11  4  0  0  0  0
 10 15  4  0  0  0  0
 11 12  4  0  0  0  0
 11 27  1  0  0  0  0
 12 13  4  0  0  0  0
 12 28  1  0  0  0  0
 13 14  4  0  0  0  0
 13 16  1  0  0  0  0
 14 15  4  0  0  0  0
 14 29  1  0  0  0  0
 15 30  1  0  0  0  0
 16 17  1  0  0  0  0
 17 31  1  0  0  0  0
 17 32  1  0  0  0  0
 17 33  1  0  0  0  0
 18 19  1  0  0  0  0
 18 34  1  0  0  0  0
 19 20  1  0  0  0  0
 19 23  1  0  0  0  0
 19 35  1  0  0  0  0
 20 21  1  0  0  0  0
 20 36  1  0  0  0  0
 20 37  1  0  0  0  0
 21 22  1  0  0  0  0
 21 24  1  0  0  0  0
 21 38  1  0  0  0  0
 22 23  1  0  0  0  0
 22 39  1  0  0  0  0
 22 40  1  0  0  0  0
 23 41  1  0  0  0  0
 23 42  1  0  0  0  0
 24 43  1  0  0  0  0
 24 44  1  0  0  0  0
M  END
> <ConfClashScore>
0 

> <ConfOneFourInteractionScore>
-0.984337 

> <ConfScore>
-0.0358845 

> <ConfScorePBest>
0.00335333 

> <ConfTolerance>
0.471994 

$$$$
c13.sdf
 OpenBabel04162418043D

 44 47  0  0  0  0  0  0  0  0999 V2000
    2.1079   -0.3774   -1.8532 N   0  0  0  1  0  0  0  0  0  0  0  0
    2.5364    0.5908   -2.6455 C   0  0  0  1  0  0  0  0  0  0  0  0
    2.1526    0.6996   -3.8968 N   0  0  0  1  0  0  0  0  0  0  0  0
    1.2985   -0.1838   -4.4201 C   0  0  0  1  0  0  0  0  0  0  0  0
    0.8205   -1.2305   -3.6033 C   0  0  0  1  0  0  0  0  0  0  0  0
    1.2615   -1.2960   -2.2850 C   0  0  0  1  0  0  0  0  0  0  0  0
    0.7019   -0.3514   -5.6890 C   0  0  0  1  0  0  0  0  0  0  0  0
   -0.0688   -1.4011   -5.6538 N   0  0  0  1  0  0  0  0  0  0  0  0
   -0.0256   -1.9781   -4.3778 N   0  0  0  1  0  0  0  0  0  0  0  0
   -0.7856   -3.1448   -4.0791 C   0  0  0  1  0  0  0  0  0  0  0  0
   -2.1658   -3.1061   -4.1411 C   0  0  0  1  0  0  0  0  0  0  0  0
   -2.9076   -4.2154   -3.7661 C   0  0  0  1  0  0  0  0  0  0  0  0
   -2.2674   -5.3582   -3.3250 C   0  0  0  1  0  0  0  0  0  0  0  0
   -0.8830   -5.3968   -3.2629 C   0  0  0  1  0  0  0  0  0  0  0  0
   -0.1433   -4.2909   -3.6369 C   0  0  0  1  0  0  0  0  0  0  0  0
   -2.8426   -6.5157   -2.9208 O   0  0  0  1  0  0  0  0  0  0  0  0
   -4.2677   -6.5132   -2.7436 C   0  0  0  1  0  0  0  0  0  0  0  0
    3.4008    1.5023   -2.1507 N   0  0  0  1  0  0  0  0  0  0  0  0
    3.8593    2.6782   -2.8920 C   0  0  0  1  0  0  0  0  0  0  0  0
    3.4478    3.9880   -2.1387 C   0  0  0  1  0  0  0  0  0  0  0  0
    4.6984    4.2898   -1.2452 C   0  0  0  1  0  0  0  0  0  0  0  0
    5.8876    3.8950   -2.1421 C   0  0  0  1  0  0  0  0  0  0  0  0
    5.4118    2.6910   -2.9740 C   0  0  0  1  0  0  0  0  0  0  0  0
    4.7597    5.7380   -0.8854 N   0  0  0  1  0  0  0  0  0  0  0  0
    0.9317   -2.0526   -1.6522 H   0  0  0  1  0  0  0  0  0  0  0  0
    0.8530    0.2620   -6.5152 H   0  0  0  1  0  0  0  0  0  0  0  0
   -2.6477   -2.2449   -4.4691 H   0  0  0  1  0  0  0  0  0  0  0  0
   -3.9460   -4.1878   -3.8164 H   0  0  0  1  0  0  0  0  0  0  0  0
   -0.4011   -6.2580   -2.9350 H   0  0  0  1  0  0  0  0  0  0  0  0
    0.8951   -4.3184   -3.5866 H   0  0  0  1  0  0  0  0  0  0  0  0
   -4.5950   -7.4939   -2.4678 H   0  0  0  1  0  0  0  0  0  0  0  0
   -4.7403   -6.2241   -3.6590 H   0  0  0  1  0  0  0  0  0  0  0  0
   -4.5298   -5.8198   -1.9719 H   0  0  0  1  0  0  0  0  0  0  0  0
    3.7415    1.3686   -1.2417 H   0  0  0  1  0  0  0  0  0  0  0  0
    3.4366    2.6681   -3.8749 H   0  0  0  1  0  0  0  0  0  0  0  0
    2.5764    3.8284   -1.5385 H   0  0  0  1  0  0  0  0  0  0  0  0
    3.2660    4.7864   -2.8274 H   0  0  0  1  0  0  0  0  0  0  0  0
    4.6812    3.7003   -0.3524 H   0  0  0  1  0  0  0  0  0  0  0  0
    6.7308    3.6222   -1.5423 H   0  0  0  1  0  0  0  0  0  0  0  0
    6.1544    4.7081   -2.7844 H   0  0  0  1  0  0  0  0  0  0  0  0
    5.7266    2.7980   -3.9910 H   0  0  0  1  0  0  0  0  0  0  0  0
    5.8099    1.7835   -2.5704 H   0  0  0  1  0  0  0  0  0  0  0  0
    4.6633    6.2807   -1.6957 H   0  0  0  1  0  0  0  0  0  0  0  0
    5.6219    5.9331   -0.4626 H   0  0  0  1  0  0  0  0  0  0  0  0
  1  2  4  0  0  0  0
  1  6  4  0  0  0  0
  2  3  4  0  0  0  0
  2 18  1  0  0  0  0
  3  4  4  0  0  0  0
  4  5  4  0  0  0  0
  4  7  4  0  0  0  0
  5  6  4  0  0  0  0
  5  9  4  0  0  0  0
  6 25  1  0  0  0  0
  7  8  4  0  0  0  0
  7 26  1  0  0  0  0
  8  9  4  0  0  0  0
  9 10  1  0  0  0  0
 10 11  4  0  0  0  0
 10 15  4  0  0  0  0
 11 12  4  0  0  0  0
 11 27  1  0  0  0  0
 12 13  4  0  0  0  0
 12 28  1  0  0  0  0
 13 14  4  0  0  0  0
 13 16  1  0  0  0  0
 14 15  4  0  0  0  0
 14 29  1  0  0  0  0
 15 30  1  0  0  0  0
 16 17  1  0  0  0  0
 17 31  1  0  0  0  0
 17 32  1  0  0  0  0
 17 33  1  0  0  0  0
 18 19  1  0  0  0  0
 18 34  1  0  0  0  0
 19 20  1  0  0  0  0
 19 23  1  0  0  0  0
 19 35  1  0  0  0  0
 20 21  1  0  0  0  0
 20 36  1  0  0  0  0
 20 37  1  0  0  0  0
 21 22  1  0  0  0  0
 21 24  1  0  0  0  0
 21 38  1  0  0  0  0
 22 23  1  0  0  0  0
 22 39  1  0  0  0  0
 22 40  1  0  0  0  0
 23 41  1  0  0  0  0
 23 42  1  0  0  0  0
 24 43  1  0  0  0  0
 24 44  1  0  0  0  0
M  END
> <ConfClashScore>
0 

> <ConfOneFourInteractionScore>
-0.984337 

> <ConfScore>
-0.035546 

> <ConfScorePBest>
0.00334 

> <ConfTolerance>
0.368183 

$$$$
c13.sdf
 OpenBabel04162418043D

 44 47  0  0  0  0  0  0  0  0999 V2000
    2.1080   -0.3774   -1.8532 N   0  0  0  1  0  0  0  0  0  0  0  0
    2.5364    0.5907   -2.6455 C   0  0  0  1  0  0  0  0  0  0  0  0
    2.1526    0.6996   -3.8968 N   0  0  0  1  0  0  0  0  0  0  0  0
    1.2985   -0.1838   -4.4201 C   0  0  0  1  0  0  0  0  0  0  0  0
    0.8205   -1.2305   -3.6033 C   0  0  0  1  0  0  0  0  0  0  0  0
    1.2616   -1.2960   -2.2849 C   0  0  0  1  0  0  0  0  0  0  0  0
    0.7018   -0.3513   -5.6890 C   0  0  0  1  0  0  0  0  0  0  0  0
   -0.0690   -1.4010   -5.6537 N   0  0  0  1  0  0  0  0  0  0  0  0
   -0.0256   -1.9781   -4.3778 N   0  0  0  1  0  0  0  0  0  0  0  0
   -0.7857   -3.1447   -4.0791 C   0  0  0  1  0  0  0  0  0  0  0  0
   -0.9139   -3.5695   -2.7702 C   0  0  0  1  0  0  0  0  0  0  0  0
   -1.6582   -4.7020   -2.4790 C   0  0  0  1  0  0  0  0  0  0  0  0
   -2.2676   -5.4096   -3.4978 C   0  0  0  1  0  0  0  0  0  0  0  0
   -2.1389   -4.9834   -4.8107 C   0  0  0  1  0  0  0  0  0  0  0  0
   -1.3968   -3.8542   -5.1012 C   0  0  0  1  0  0  0  0  0  0  0  0
   -3.0124   -6.5290   -3.3366 O   0  0  0  1  0  0  0  0  0  0  0  0
   -3.1829   -7.0163   -1.9965 C   0  0  0  1  0  0  0  0  0  0  0  0
    3.4009    1.5023   -2.1508 N   0  0  0  1  0  0  0  0  0  0  0  0
    3.9944    1.4236   -0.8128 C   0  0  0  1  0  0  0  0  0  0  0  0
    5.4757    0.9201   -0.8868 C   0  0  0  1  0  0  0  0  0  0  0  0
    6.1023    1.4690    0.4392 C   0  0  0  1  0  0  0  0  0  0  0  0
    5.2893    2.7404    0.8129 C   0  0  0  1  0  0  0  0  0  0  0  0
    4.1193    2.8245   -0.1833 C   0  0  0  1  0  0  0  0  0  0  0  0
    5.9928    0.4482    1.5238 N   0  0  0  1  0  0  0  0  0  0  0  0
    0.9318   -2.0526   -1.6522 H   0  0  0  1  0  0  0  0  0  0  0  0
    0.8528    0.2622   -6.5151 H   0  0  0  1  0  0  0  0  0  0  0  0
   -0.4521   -3.0394   -2.0038 H   0  0  0  1  0  0  0  0  0  0  0  0
   -1.7580   -5.0194   -1.4936 H   0  0  0  1  0  0  0  0  0  0  0  0
   -2.6008   -5.5135   -5.5771 H   0  0  0  1  0  0  0  0  0  0  0  0
   -1.2969   -3.5368   -6.0865 H   0  0  0  1  0  0  0  0  0  0  0  0
   -3.0749   -6.2064   -1.3055 H   0  0  0  1  0  0  0  0  0  0  0  0
   -2.4427   -7.7611   -1.7912 H   0  0  0  1  0  0  0  0  0  0  0  0
   -4.1582   -7.4443   -1.8942 H   0  0  0  1  0  0  0  0  0  0  0  0
    3.6462    2.2614   -2.7200 H   0  0  0  1  0  0  0  0  0  0  0  0
    3.4023    0.7794   -0.1968 H   0  0  0  1  0  0  0  0  0  0  0  0
    5.9758    1.3220   -1.7432 H   0  0  0  1  0  0  0  0  0  0  0  0
    5.5172   -0.1486   -0.9178 H   0  0  0  1  0  0  0  0  0  0  0  0
    7.1314    1.7192    0.2866 H   0  0  0  1  0  0  0  0  0  0  0  0
    4.9172    2.6596    1.8128 H   0  0  0  1  0  0  0  0  0  0  0  0
    5.9067    3.6104    0.7308 H   0  0  0  1  0  0  0  0  0  0  0  0
    3.2153    3.0846    0.3266 H   0  0  0  1  0  0  0  0  0  0  0  0
    4.3261    3.5540   -0.9384 H   0  0  0  1  0  0  0  0  0  0  0  0
    6.6491   -0.2634    1.3708 H   0  0  0  1  0  0  0  0  0  0  0  0
    5.0905    0.0658    1.5224 H   0  0  0  1  0  0  0  0  0  0  0  0
  1  2  4  0  0  0  0
  1  6  4  0  0  0  0
  2  3  4  0  0  0  0
  2 18  1  0  0  0  0
  3  4  4  0  0  0  0
  4  5  4  0  0  0  0
  4  7  4  0  0  0  0
  5  6  4  0  0  0  0
  5  9  4  0  0  0  0
  6 25  1  0  0  0  0
  7  8  4  0  0  0  0
  7 26  1  0  0  0  0
  8  9  4  0  0  0  0
  9 10  1  0  0  0  0
 10 11  4  0  0  0  0
 10 15  4  0  0  0  0
 11 12  4  0  0  0  0
 11 27  1  0  0  0  0
 12 13  4  0  0  0  0
 12 28  1  0  0  0  0
 13 14  4  0  0  0  0
 13 16  1  0  0  0  0
 14 15  4  0  0  0  0
 14 29  1  0  0  0  0
 15 30  1  0  0  0  0
 16 17  1  0  0  0  0
 17 31  1  0  0  0  0
 17 32  1  0  0  0  0
 17 33  1  0  0  0  0
 18 19  1  0  0  0  0
 18 34  1  0  0  0  0
 19 20  1  0  0  0  0
 19 23  1  0  0  0  0
 19 35  1  0  0  0  0
 20 21  1  0  0  0  0
 20 36  1  0  0  0  0
 20 37  1  0  0  0  0
 21 22  1  0  0  0  0
 21 24  1  0  0  0  0
 21 38  1  0  0  0  0
 22 23  1  0  0  0  0
 22 39  1  0  0  0  0
 22 40  1  0  0  0  0
 23 41  1  0  0  0  0
 23 42  1  0  0  0  0
 24 43  1  0  0  0  0
 24 44  1  0  0  0  0
M  END
> <ConfClashScore>
0 

> <ConfOneFourInteractionScore>
-0.984337 

> <ConfScore>
-0.035146 

> <ConfScorePBest>
0.00332667 

> <ConfTolerance>
0.33796 

$$$$
c13.sdf
 OpenBabel04162418043D

 44 47  0  0  0  0  0  0  0  0999 V2000
    2.1079   -0.3773   -1.8532 N   0  0  0  1  0  0  0  0  0  0  0  0
    2.5363    0.5907   -2.6455 C   0  0  0  1  0  0  0  0  0  0  0  0
    2.1526    0.6996   -3.8968 N   0  0  0  1  0  0  0  0  0  0  0  0
    1.2986   -0.1837   -4.4201 C   0  0  0  1  0  0  0  0  0  0  0  0
    0.8204   -1.2304   -3.6034 C   0  0  0  1  0  0  0  0  0  0  0  0
    1.2614   -1.2960   -2.2849 C   0  0  0  1  0  0  0  0  0  0  0  0
    0.7020   -0.3513   -5.6890 C   0  0  0  1  0  0  0  0  0  0  0  0
   -0.0689   -1.4010   -5.6537 N   0  0  0  1  0  0  0  0  0  0  0  0
   -0.0256   -1.9781   -4.3778 N   0  0  0  1  0  0  0  0  0  0  0  0
   -0.8800   -3.1020   -4.0620 C   0  0  0  1  0  0  0  0  0  0  0  0
   -0.9620   -3.5637   -2.7619 C   0  0  0  1  0  0  0  0  0  0  0  0
   -1.7847   -4.6373   -2.4585 C   0  0  0  1  0  0  0  0  0  0  0  0
   -2.5190   -5.2493   -3.4568 C   0  0  0  1  0  0  0  0  0  0  0  0
   -2.4367   -4.7860   -4.7607 C   0  0  0  1  0  0  0  0  0  0  0  0
   -1.6163   -3.7156   -5.0635 C   0  0  0  1  0  0  0  0  0  0  0  0
   -3.3451   -6.2992   -3.2833 O   0  0  0  1  0  0  0  0  0  0  0  0
   -3.4742   -6.7574   -1.9173 C   0  0  0  1  0  0  0  0  0  0  0  0
    3.4098    1.5117   -2.1457 N   0  0  0  1  0  0  0  0  0  0  0  0
    3.9766    2.5687   -2.9846 C   0  0  0  1  0  0  0  0  0  0  0  0
    2.9945    3.7860   -3.0600 C   0  0  0  1  0  0  0  0  0  0  0  0
    3.4813    4.7059   -1.8894 C   0  0  0  1  0  0  0  0  0  0  0  0
    5.0148    4.5590   -1.9274 C   0  0  0  1  0  0  0  0  0  0  0  0
    5.2925    3.1073   -2.3559 C   0  0  0  1  0  0  0  0  0  0  0  0
    3.0745    6.1283   -2.1227 N   0  0  0  1  0  0  0  0  0  0  0  0
    0.9316   -2.0526   -1.6522 H   0  0  0  1  0  0  0  0  0  0  0  0
    0.8529    0.2620   -6.5152 H   0  0  0  1  0  0  0  0  0  0  0  0
   -0.4064   -3.1059   -2.0114 H   0  0  0  1  0  0  0  0  0  0  0  0
   -1.8495   -4.9822   -1.4795 H   0  0  0  1  0  0  0  0  0  0  0  0
   -2.9923   -5.2438   -5.5112 H   0  0  0  1  0  0  0  0  0  0  0  0
   -1.5516   -3.3706   -6.0424 H   0  0  0  1  0  0  0  0  0  0  0  0
   -2.8130   -7.5825   -1.7533 H   0  0  0  1  0  0  0  0  0  0  0  0
   -4.4826   -7.0680   -1.7394 H   0  0  0  1  0  0  0  0  0  0  0  0
   -3.2227   -5.9606   -1.2488 H   0  0  0  1  0  0  0  0  0  0  0  0
    3.6644    1.4644   -1.2005 H   0  0  0  1  0  0  0  0  0  0  0  0
    4.1652    2.1839   -3.9652 H   0  0  0  1  0  0  0  0  0  0  0  0
    3.0755    4.2874   -4.0017 H   0  0  0  1  0  0  0  0  0  0  0  0
    1.9826    3.4734   -2.9075 H   0  0  0  1  0  0  0  0  0  0  0  0
    3.0887    4.3713   -0.9520 H   0  0  0  1  0  0  0  0  0  0  0  0
    5.4359    5.2423   -2.6351 H   0  0  0  1  0  0  0  0  0  0  0  0
    5.4300    4.7465   -0.9593 H   0  0  0  1  0  0  0  0  0  0  0  0
    5.5634    2.5173   -1.5054 H   0  0  0  1  0  0  0  0  0  0  0  0
    6.0835    3.0802   -3.0760 H   0  0  0  1  0  0  0  0  0  0  0  0
    2.1039    6.2126   -2.0171 H   0  0  0  1  0  0  0  0  0  0  0  0
    3.3286    6.3958   -3.0306 H   0  0  0  1  0  0  0  0  0  0  0  0
  1  2  4  0  0  0  0
  1  6  4  0  0  0  0
  2  3  4  0  0  0  0
  2 18  1  0  0  0  0
  3  4  4  0  0  0  0
  4  5  4  0  0  0  0
  4  7  4  0  0  0  0
  5  6  4  0  0  0  0
  5  9  4  0  0  0  0
  6 25  1  0  0  0  0
  7  8  4  0  0  0  0
  7 26  1  0  0  0  0
  8  9  4  0  0  0  0
  9 10  1  0  0  0  0
 10 11  4  0  0  0  0
 10 15  4  0  0  0  0
 11 12  4  0  0  0  0
 11 27  1  0  0  0  0
 12 13  4  0  0  0  0
 12 28  1  0  0  0  0
 13 14  4  0  0  0  0
 13 16  1  0  0  0  0
 14 15  4  0  0  0  0
 14 29  1  0  0  0  0
 15 30  1  0  0  0  0
 16 17  1  0  0  0  0
 17 31  1  0  0  0  0
 17 32  1  0  0  0  0
 17 33  1  0  0  0  0
 18 19  1  0  0  0  0
 18 34  1  0  0  0  0
 19 20  1  0  0  0  0
 19 23  1  0  0  0  0
 19 35  1  0  0  0  0
 20 21  1  0  0  0  0
 20 36  1  0  0  0  0
 20 37  1  0  0  0  0
 21 22  1  0  0  0  0
 21 24  1  0  0  0  0
 21 38  1  0  0  0  0
 22 23  1  0  0  0  0
 22 39  1  0  0  0  0
 22 40  1  0  0  0  0
 23 41  1  0  0  0  0
 23 42  1  0  0  0  0
 24 43  1  0  0  0  0
 24 44  1  0  0  0  0
M  END
> <ConfClashScore>
0 

> <ConfOneFourInteractionScore>
-0.984337 

> <ConfScore>
-0.035146 

> <ConfScorePBest>
0.00331334 

> <ConfTolerance>
0.332773 

$$$$
c13.sdf
 OpenBabel04162418043D

 44 47  0  0  0  0  0  0  0  0999 V2000
    2.1080   -0.3774   -1.8532 N   0  0  0  1  0  0  0  0  0  0  0  0
    2.5363    0.5907   -2.6455 C   0  0  0  1  0  0  0  0  0  0  0  0
    2.1525    0.6996   -3.8967 N   0  0  0  1  0  0  0  0  0  0  0  0
    1.2986   -0.1837   -4.4201 C   0  0  0  1  0  0  0  0  0  0  0  0
    0.8204   -1.2305   -3.6033 C   0  0  0  1  0  0  0  0  0  0  0  0
    1.2616   -1.2961   -2.2849 C   0  0  0  1  0  0  0  0  0  0  0  0
    0.7018   -0.3512   -5.6889 C   0  0  0  1  0  0  0  0  0  0  0  0
   -0.0689   -1.4010   -5.6537 N   0  0  0  1  0  0  0  0  0  0  0  0
   -0.0256   -1.9781   -4.3778 N   0  0  0  1  0  0  0  0  0  0  0  0
   -0.7969   -3.1367   -4.1258 C   0  0  0  1  0  0  0  0  0  0  0  0
   -1.4107   -3.7992   -5.1719 C   0  0  0  1  0  0  0  0  0  0  0  0
   -2.1622   -4.9377   -4.9255 C   0  0  0  1  0  0  0  0  0  0  0  0
   -2.3021   -5.4072   -3.6331 C   0  0  0  1  0  0  0  0  0  0  0  0
   -1.6863   -4.7426   -2.5840 C   0  0  0  1  0  0  0  0  0  0  0  0
   -0.9370   -3.6074   -2.8295 C   0  0  0  1  0  0  0  0  0  0  0  0
   -3.0387   -6.5137   -3.3924 O   0  0  0  1  0  0  0  0  0  0  0  0
   -3.6452   -7.2123   -4.4910 C   0  0  0  1  0  0  0  0  0  0  0  0
    3.4218    1.5243   -2.1388 N   0  0  0  1  0  0  0  0  0  0  0  0
    3.8903    1.4102   -0.7582 C   0  0  0  1  0  0  0  0  0  0  0  0
    5.4221    1.4232   -0.7087 C   0  0  0  1  0  0  0  0  0  0  0  0
    5.7961    2.8959   -0.5410 C   0  0  0  1  0  0  0  0  0  0  0  0
    4.7227    3.3905    0.4316 C   0  0  0  1  0  0  0  0  0  0  0  0
    3.4478    2.6290    0.0615 C   0  0  0  1  0  0  0  0  0  0  0  0
    7.1413    3.0426    0.0302 N   0  0  0  1  0  0  0  0  0  0  0  0
    0.9318   -2.0528   -1.6523 H   0  0  0  1  0  0  0  0  0  0  0  0
    0.8528    0.2621   -6.5151 H   0  0  0  1  0  0  0  0  0  0  0  0
   -1.3089   -3.4436   -6.1439 H   0  0  0  1  0  0  0  0  0  0  0  0
   -2.6208   -5.4385   -5.7131 H   0  0  0  1  0  0  0  0  0  0  0  0
   -1.7881   -5.0982   -1.6120 H   0  0  0  1  0  0  0  0  0  0  0  0
   -0.4784   -3.1066   -2.0419 H   0  0  0  1  0  0  0  0  0  0  0  0
   -2.8881   -7.7136   -5.0570 H   0  0  0  1  0  0  0  0  0  0  0  0
   -4.1558   -6.5131   -5.1197 H   0  0  0  1  0  0  0  0  0  0  0  0
   -4.3433   -7.9306   -4.1148 H   0  0  0  1  0  0  0  0  0  0  0  0
    3.7348    2.2612   -2.7040 H   0  0  0  1  0  0  0  0  0  0  0  0
    3.5093    0.5091   -0.3250 H   0  0  0  1  0  0  0  0  0  0  0  0
    5.8315    1.0317   -1.6165 H   0  0  0  1  0  0  0  0  0  0  0  0
    5.7771    0.8477    0.1206 H   0  0  0  1  0  0  0  0  0  0  0  0
    5.7452    3.4181   -1.4736 H   0  0  0  1  0  0  0  0  0  0  0  0
    4.5740    4.4441    0.3191 H   0  0  0  1  0  0  0  0  0  0  0  0
    5.0060    3.1755    1.4408 H   0  0  0  1  0  0  0  0  0  0  0  0
    2.9362    2.3129    0.9465 H   0  0  0  1  0  0  0  0  0  0  0  0
    2.8017    3.2515   -0.5216 H   0  0  0  1  0  0  0  0  0  0  0  0
    7.1766    2.5974    0.9026 H   0  0  0  1  0  0  0  0  0  0  0  0
    7.3470    3.9944    0.1409 H   0  0  0  1  0  0  0  0  0  0  0  0
  1  2  4  0  0  0  0
  1  6  4  0  0  0  0
  2  3  4  0  0  0  0
  2 18  1  0  0  0  0
  3  4  4  0  0  0  0
  4  5  4  0  0  0  0
  4  7  4  0  0  0  0
  5  6  4  0  0  0  0
  5  9  4  0  0  0  0
  6 25  1  0  0  0  0
  7  8  4  0  0  0  0
  7 26  1  0  0  0  0
  8  9  4  0  0  0  0
  9 10  1  0  0  0  0
 10 11  4  0  0  0  0
 10 15  4  0  0  0  0
 11 12  4  0  0  0  0
 11 27  1  0  0  0  0
 12 13  4  0  0  0  0
 12 28  1  0  0  0  0
 13 14  4  0  0  0  0
 13 16  1  0  0  0  0
 14 15  4  0  0  0  0
 14 29  1  0  0  0  0
 15 30  1  0  0  0  0
 16 17  1  0  0  0  0
 17 31  1  0  0  0  0
 17 32  1  0  0  0  0
 17 33  1  0  0  0  0
 18 19  1  0  0  0  0
 18 34  1  0  0  0  0
 19 20  1  0  0  0  0
 19 23  1  0  0  0  0
 19 35  1  0  0  0  0
 20 21  1  0  0  0  0
 20 36  1  0  0  0  0
 20 37  1  0  0  0  0
 21 22  1  0  0  0  0
 21 24  1  0  0  0  0
 21 38  1  0  0  0  0
 22 23  1  0  0  0  0
 22 39  1  0  0  0  0
 22 40  1  0  0  0  0
 23 41  1  0  0  0  0
 23 42  1  0  0  0  0
 24 43  1  0  0  0  0
 24 44  1  0  0  0  0
M  END
> <ConfClashScore>
0 

> <ConfOneFourInteractionScore>
-0.984337 

> <ConfScore>
-0.0338588 

> <ConfScorePBest>
0.00330001 

> <ConfTolerance>
0.3721 

$$$$
c13.sdf
 OpenBabel04162418043D

 44 47  0  0  0  0  0  0  0  0999 V2000
    2.1079   -0.3774   -1.8532 N   0  0  0  1  0  0  0  0  0  0  0  0
    2.5364    0.5907   -2.6455 C   0  0  0  1  0  0  0  0  0  0  0  0
    2.1526    0.6996   -3.8968 N   0  0  0  1  0  0  0  0  0  0  0  0
    1.2985   -0.1837   -4.4201 C   0  0  0  1  0  0  0  0  0  0  0  0
    0.8204   -1.2304   -3.6033 C   0  0  0  1  0  0  0  0  0  0  0  0
    1.2615   -1.2960   -2.2849 C   0  0  0  1  0  0  0  0  0  0  0  0
    0.7019   -0.3512   -5.6890 C   0  0  0  1  0  0  0  0  0  0  0  0
   -0.0689   -1.4010   -5.6537 N   0  0  0  1  0  0  0  0  0  0  0  0
   -0.0256   -1.9781   -4.3778 N   0  0  0  1  0  0  0  0  0  0  0  0
   -0.8649   -3.0822   -4.0676 C   0  0  0  1  0  0  0  0  0  0  0  0
   -0.5930   -4.3288   -4.5988 C   0  0  0  1  0  0  0  0  0  0  0  0
   -1.4604   -5.3850   -4.3670 C   0  0  0  1  0  0  0  0  0  0  0  0
   -2.5997   -5.1903   -3.6093 C   0  0  0  1  0  0  0  0  0  0  0  0
   -2.8723   -3.9398   -3.0766 C   0  0  0  1  0  0  0  0  0  0  0  0
   -2.0075   -2.8867   -3.3076 C   0  0  0  1  0  0  0  0  0  0  0  0
   -3.3705   -6.2891   -3.4559 O   0  0  0  1  0  0  0  0  0  0  0  0
   -4.4995   -6.2466   -2.5525 C   0  0  0  1  0  0  0  0  0  0  0  0
    3.4010    1.5328   -2.2120 N   0  0  0  1  0  0  0  0  0  0  0  0
    3.7369    2.7302   -2.9626 C   0  0  0  1  0  0  0  0  0  0  0  0
    4.8491    3.5049   -2.2517 C   0  0  0  1  0  0  0  0  0  0  0  0
    5.8023    3.9663   -3.3568 C   0  0  0  1  0  0  0  0  0  0  0  0
    5.7520    2.7916   -4.3339 C   0  0  0  1  0  0  0  0  0  0  0  0
    4.2835    2.3528   -4.3451 C   0  0  0  1  0  0  0  0  0  0  0  0
    5.3188    5.2271   -3.9988 N   0  0  0  1  0  0  0  0  0  0  0  0
    0.9317   -2.0527   -1.6522 H   0  0  0  1  0  0  0  0  0  0  0  0
    0.8529    0.2620   -6.5152 H   0  0  0  1  0  0  0  0  0  0  0  0
    0.2622   -4.4745   -5.1724 H   0  0  0  1  0  0  0  0  0  0  0  0
   -1.2537   -6.3240   -4.7634 H   0  0  0  1  0  0  0  0  0  0  0  0
   -3.7276   -3.7942   -2.5031 H   0  0  0  1  0  0  0  0  0  0  0  0
   -2.2142   -1.9476   -2.9113 H   0  0  0  1  0  0  0  0  0  0  0  0
   -4.1501   -6.1110   -1.5503 H   0  0  0  1  0  0  0  0  0  0  0  0
   -5.0439   -7.1654   -2.6189 H   0  0  0  1  0  0  0  0  0  0  0  0
   -5.1397   -5.4321   -2.8200 H   0  0  0  1  0  0  0  0  0  0  0  0
    3.8272    1.4010   -1.3394 H   0  0  0  1  0  0  0  0  0  0  0  0
    2.8662    3.3439   -3.0644 H   0  0  0  1  0  0  0  0  0  0  0  0
    5.3608    2.8708   -1.5581 H   0  0  0  1  0  0  0  0  0  0  0  0
    4.4436    4.3481   -1.7325 H   0  0  0  1  0  0  0  0  0  0  0  0
    6.7922    4.1147   -2.9788 H   0  0  0  1  0  0  0  0  0  0  0  0
    6.0601    3.1008   -5.3108 H   0  0  0  1  0  0  0  0  0  0  0  0
    6.3808    1.9942   -3.9968 H   0  0  0  1  0  0  0  0  0  0  0  0
    3.7450    2.8665   -5.1139 H   0  0  0  1  0  0  0  0  0  0  0  0
    4.2094    1.2969   -4.5017 H   0  0  0  1  0  0  0  0  0  0  0  0
    5.9819    5.5376   -4.6503 H   0  0  0  1  0  0  0  0  0  0  0  0
    5.1893    5.9142   -3.3122 H   0  0  0  1  0  0  0  0  0  0  0  0
  1  2  4  0  0  0  0
  1  6  4  0  0  0  0
  2  3  4  0  0  0  0
  2 18  1  0  0  0  0
  3  4  4  0  0  0  0
  4  5  4  0  0  0  0
  4  7  4  0  0  0  0
  5  6  4  0  0  0  0
  5  9  4  0  0  0  0
  6 25  1  0  0  0  0
  7  8  4  0  0  0  0
  7 26  1  0  0  0  0
  8  9  4  0  0  0  0
  9 10  1  0  0  0  0
 10 11  4  0  0  0  0
 10 15  4  0  0  0  0
 11 12  4  0  0  0  0
 11 27  1  0  0  0  0
 12 13  4  0  0  0  0
 12 28  1  0  0  0  0
 13 14  4  0  0  0  0
 13 16  1  0  0  0  0
 14 15  4  0  0  0  0
 14 29  1  0  0  0  0
 15 30  1  0  0  0  0
 16 17  1  0  0  0  0
 17 31  1  0  0  0  0
 17 32  1  0  0  0  0
 17 33  1  0  0  0  0
 18 19  1  0  0  0  0
 18 34  1  0  0  0  0
 19 20  1  0  0  0  0
 19 23  1  0  0  0  0
 19 35  1  0  0  0  0
 20 21  1  0  0  0  0
 20 36  1  0  0  0  0
 20 37  1  0  0  0  0
 21 22  1  0  0  0  0
 21 24  1  0  0  0  0
 21 38  1  0  0  0  0
 22 23  1  0  0  0  0
 22 39  1  0  0  0  0
 22 40  1  0  0  0  0
 23 41  1  0  0  0  0
 23 42  1  0  0  0  0
 24 43  1  0  0  0  0
 24 44  1  0  0  0  0
M  END
> <ConfClashScore>
0 

> <ConfOneFourInteractionScore>
-0.981704 

> <ConfScore>
-0.0330423 

> <ConfScorePBest>
0.00328668 

> <ConfTolerance>
0.404732 

$$$$
c13.sdf
 OpenBabel04162418043D

 44 47  0  0  0  0  0  0  0  0999 V2000
    2.1079   -0.3773   -1.8532 N   0  0  0  1  0  0  0  0  0  0  0  0
    2.5364    0.5907   -2.6455 C   0  0  0  1  0  0  0  0  0  0  0  0
    2.1525    0.6996   -3.8968 N   0  0  0  1  0  0  0  0  0  0  0  0
    1.2985   -0.1838   -4.4201 C   0  0  0  1  0  0  0  0  0  0  0  0
    0.8204   -1.2305   -3.6034 C   0  0  0  1  0  0  0  0  0  0  0  0
    1.2615   -1.2960   -2.2849 C   0  0  0  1  0  0  0  0  0  0  0  0
    0.7020   -0.3513   -5.6890 C   0  0  0  1  0  0  0  0  0  0  0  0
   -0.0689   -1.4011   -5.6538 N   0  0  0  1  0  0  0  0  0  0  0  0
   -0.0256   -1.9781   -4.3778 N   0  0  0  1  0  0  0  0  0  0  0  0
   -0.7780   -3.1329   -4.0822 C   0  0  0  1  0  0  0  0  0  0  0  0
   -1.4048   -3.7751   -5.1331 C   0  0  0  1  0  0  0  0  0  0  0  0
   -2.1531   -4.9184   -4.8993 C   0  0  0  1  0  0  0  0  0  0  0  0
   -2.2768   -5.4128   -3.6145 C   0  0  0  1  0  0  0  0  0  0  0  0
   -1.6479   -4.7685   -2.5606 C   0  0  0  1  0  0  0  0  0  0  0  0
   -0.9018   -3.6285   -2.7936 C   0  0  0  1  0  0  0  0  0  0  0  0
   -3.0878   -6.4692   -3.3695 O   0  0  0  1  0  0  0  0  0  0  0  0
   -3.1065   -6.9852   -2.0293 C   0  0  0  1  0  0  0  0  0  0  0  0
    3.3914    1.4695   -2.1106 N   0  0  0  1  0  0  0  0  0  0  0  0
    4.1325    2.5106   -2.8285 C   0  0  0  1  0  0  0  0  0  0  0  0
    3.2522    3.7968   -3.0041 C   0  0  0  1  0  0  0  0  0  0  0  0
    4.0553    4.9799   -2.4328 C   0  0  0  1  0  0  0  0  0  0  0  0
    4.9421    4.2992   -1.3366 C   0  0  0  1  0  0  0  0  0  0  0  0
    5.3327    2.9787   -2.0117 C   0  0  0  1  0  0  0  0  0  0  0  0
    4.9055    5.6222   -3.4962 N   0  0  0  1  0  0  0  0  0  0  0  0
    0.9316   -2.0527   -1.6522 H   0  0  0  1  0  0  0  0  0  0  0  0
    0.8530    0.2620   -6.5152 H   0  0  0  1  0  0  0  0  0  0  0  0
   -1.3152   -3.4009   -6.0993 H   0  0  0  1  0  0  0  0  0  0  0  0
   -2.6216   -5.4041   -5.6907 H   0  0  0  1  0  0  0  0  0  0  0  0
   -1.7376   -5.1427   -1.5944 H   0  0  0  1  0  0  0  0  0  0  0  0
   -0.4334   -3.1428   -2.0023 H   0  0  0  1  0  0  0  0  0  0  0  0
   -3.2800   -8.0407   -2.0553 H   0  0  0  1  0  0  0  0  0  0  0  0
   -3.8881   -6.5091   -1.4751 H   0  0  0  1  0  0  0  0  0  0  0  0
   -2.1653   -6.7901   -1.5591 H   0  0  0  1  0  0  0  0  0  0  0  0
    3.5366    1.4116   -1.1431 H   0  0  0  1  0  0  0  0  0  0  0  0
    4.4461    2.1342   -3.7798 H   0  0  0  1  0  0  0  0  0  0  0  0
    3.0458    3.9608   -4.0412 H   0  0  0  1  0  0  0  0  0  0  0  0
    2.3318    3.6865   -2.4698 H   0  0  0  1  0  0  0  0  0  0  0  0
    3.4065    5.7140   -2.0024 H   0  0  0  1  0  0  0  0  0  0  0  0
    4.3853    4.1264   -0.4393 H   0  0  0  1  0  0  0  0  0  0  0  0
    5.8051    4.8909   -1.1132 H   0  0  0  1  0  0  0  0  0  0  0  0
    5.5774    2.2475   -1.2699 H   0  0  0  1  0  0  0  0  0  0  0  0
    6.1747    3.1317   -2.6539 H   0  0  0  1  0  0  0  0  0  0  0  0
    4.3278    6.0287   -4.1756 H   0  0  0  1  0  0  0  0  0  0  0  0
    5.4734    4.9421   -3.9150 H   0  0  0  1  0  0  0  0  0  0  0  0
  1  2  4  0  0  0  0
  1  6  4  0  0  0  0
  2  3  4  0  0  0  0
  2 18  1  0  0  0  0
  3  4  4  0  0  0  0
  4  5  4  0  0  0  0
  4  7  4  0  0  0  0
  5  6  4  0  0  0  0
  5  9  4  0  0  0  0
  6 25  1  0  0  0  0
  7  8  4  0  0  0  0
  7 26  1  0  0  0  0
  8  9  4  0  0  0  0
  9 10  1  0  0  0  0
 10 11  4  0  0  0  0
 10 15  4  0  0  0  0
 11 12  4  0  0  0  0
 11 27  1  0  0  0  0
 12 13  4  0  0  0  0
 12 28  1  0  0  0  0
 13 14  4  0  0  0  0
 13 16  1  0  0  0  0
 14 15  4  0  0  0  0
 14 29  1  0  0  0  0
 15 30  1  0  0  0  0
 16 17  1  0  0  0  0
 17 31  1  0  0  0  0
 17 32  1  0  0  0  0
 17 33  1  0  0  0  0
 18 19  1  0  0  0  0
 18 34  1  0  0  0  0
 19 20  1  0  0  0  0
 19 23  1  0  0  0  0
 19 35  1  0  0  0  0
 20 21  1  0  0  0  0
 20 36  1  0  0  0  0
 20 37  1  0  0  0  0
 21 22  1  0  0  0  0
 21 24  1  0  0  0  0
 21 38  1  0  0  0  0
 22 23  1  0  0  0  0
 22 39  1  0  0  0  0
 22 40  1  0  0  0  0
 23 41  1  0  0  0  0
 23 42  1  0  0  0  0
 24 43  1  0  0  0  0
 24 44  1  0  0  0  0
M  END
> <ConfClashScore>
0 

> <ConfOneFourInteractionScore>
-0.984337 

> <ConfScore>
-0.0323241 

> <ConfScorePBest>
0.00327336 

> <ConfTolerance>
0.410664 

$$$$
c13.sdf
 OpenBabel04162418043D

 44 47  0  0  0  0  0  0  0  0999 V2000
    2.1079   -0.3774   -1.8533 N   0  0  0  1  0  0  0  0  0  0  0  0
    2.5364    0.5907   -2.6455 C   0  0  0  1  0  0  0  0  0  0  0  0
    2.1525    0.6996   -3.8968 N   0  0  0  1  0  0  0  0  0  0  0  0
    1.2985   -0.1838   -4.4201 C   0  0  0  1  0  0  0  0  0  0  0  0
    0.8204   -1.2305   -3.6033 C   0  0  0  1  0  0  0  0  0  0  0  0
    1.2615   -1.2960   -2.2849 C   0  0  0  1  0  0  0  0  0  0  0  0
    0.7019   -0.3513   -5.6890 C   0  0  0  1  0  0  0  0  0  0  0  0
   -0.0690   -1.4010   -5.6537 N   0  0  0  1  0  0  0  0  0  0  0  0
   -0.0256   -1.9781   -4.3778 N   0  0  0  1  0  0  0  0  0  0  0  0
   -0.7858   -3.1448   -4.0791 C   0  0  0  1  0  0  0  0  0  0  0  0
   -0.3947   -3.9791   -3.0491 C   0  0  0  1  0  0  0  0  0  0  0  0
   -1.1376   -5.1118   -2.7549 C   0  0  0  1  0  0  0  0  0  0  0  0
   -2.2663   -5.4098   -3.4950 C   0  0  0  1  0  0  0  0  0  0  0  0
   -2.6583   -4.5727   -4.5281 C   0  0  0  1  0  0  0  0  0  0  0  0
   -1.9177   -3.4433   -4.8215 C   0  0  0  1  0  0  0  0  0  0  0  0
   -2.9066   -6.5425   -3.1197 O   0  0  0  1  0  0  0  0  0  0  0  0
   -3.9001   -7.0626   -4.0169 C   0  0  0  1  0  0  0  0  0  0  0  0
    3.4220    1.5244   -2.1388 N   0  0  0  1  0  0  0  0  0  0  0  0
    3.8770    1.3560   -0.7643 C   0  0  0  1  0  0  0  0  0  0  0  0
    4.6833    0.0149   -0.5902 C   0  0  0  1  0  0  0  0  0  0  0  0
    5.4900    0.3114    0.7147 C   0  0  0  1  0  0  0  0  0  0  0  0
    5.7300    1.8221    0.7527 C   0  0  0  1  0  0  0  0  0  0  0  0
    4.9162    2.4055   -0.3942 C   0  0  0  1  0  0  0  0  0  0  0  0
    4.7189   -0.1073    1.8913 N   0  0  0  1  0  0  0  0  0  0  0  0
    0.9316   -2.0526   -1.6522 H   0  0  0  1  0  0  0  0  0  0  0  0
    0.8528    0.2620   -6.5152 H   0  0  0  1  0  0  0  0  0  0  0  0
    0.4568   -3.7572   -2.4947 H   0  0  0  1  0  0  0  0  0  0  0  0
   -0.8458   -5.7376   -1.9772 H   0  0  0  1  0  0  0  0  0  0  0  0
   -3.5098   -4.7946   -5.0825 H   0  0  0  1  0  0  0  0  0  0  0  0
   -2.2095   -2.8175   -5.5992 H   0  0  0  1  0  0  0  0  0  0  0  0
   -4.1775   -8.0492   -3.7094 H   0  0  0  1  0  0  0  0  0  0  0  0
   -3.5010   -7.0976   -5.0091 H   0  0  0  1  0  0  0  0  0  0  0  0
   -4.7618   -6.4286   -4.0007 H   0  0  0  1  0  0  0  0  0  0  0  0
    3.7335    2.2751   -2.6863 H   0  0  0  1  0  0  0  0  0  0  0  0
    3.0366    1.3920   -0.1029 H   0  0  0  1  0  0  0  0  0  0  0  0
    4.0289   -0.8222   -0.4645 H   0  0  0  1  0  0  0  0  0  0  0  0
    5.3337   -0.1619   -1.4213 H   0  0  0  1  0  0  0  0  0  0  0  0
    6.4245   -0.2094    0.6961 H   0  0  0  1  0  0  0  0  0  0  0  0
    5.3999    2.2275    1.6864 H   0  0  0  1  0  0  0  0  0  0  0  0
    6.7695    2.0369    0.6176 H   0  0  0  1  0  0  0  0  0  0  0  0
    5.5506    2.6088   -1.2316 H   0  0  0  1  0  0  0  0  0  0  0  0
    4.4344    3.3090   -0.0834 H   0  0  0  1  0  0  0  0  0  0  0  0
    5.2169    0.1163    2.7052 H   0  0  0  1  0  0  0  0  0  0  0  0
    4.5689   -1.0750    1.8558 H   0  0  0  1  0  0  0  0  0  0  0  0
  1  2  4  0  0  0  0
  1  6  4  0  0  0  0
  2  3  4  0  0  0  0
  2 18  1  0  0  0  0
  3  4  4  0  0  0  0
  4  5  4  0  0  0  0
  4  7  4  0  0  0  0
  5  6  4  0  0  0  0
  5  9  4  0  0  0  0
  6 25  1  0  0  0  0
  7  8  4  0  0  0  0
  7 26  1  0  0  0  0
  8  9  4  0  0  0  0
  9 10  1  0  0  0  0
 10 11  4  0  0  0  0
 10 15  4  0  0  0  0
 11 12  4  0  0  0  0
 11 27  1  0  0  0  0
 12 13  4  0  0  0  0
 12 28  1  0  0  0  0
 13 14  4  0  0  0  0
 13 16  1  0  0  0  0
 14 15  4  0  0  0  0
 14 29  1  0  0  0  0
 15 30  1  0  0  0  0
 16 17  1  0  0  0  0
 17 31  1  0  0  0  0
 17 32  1  0  0  0  0
 17 33  1  0  0  0  0
 18 19  1  0  0  0  0
 18 34  1  0  0  0  0
 19 20  1  0  0  0  0
 19 23  1  0  0  0  0
 19 35  1  0  0  0  0
 20 21  1  0  0  0  0
 20 36  1  0  0  0  0
 20 37  1  0  0  0  0
 21 22  1  0  0  0  0
 21 24  1  0  0  0  0
 21 38  1  0  0  0  0
 22 23  1  0  0  0  0
 22 39  1  0  0  0  0
 22 40  1  0  0  0  0
 23 41  1  0  0  0  0
 23 42  1  0  0  0  0
 24 43  1  0  0  0  0
 24 44  1  0  0  0  0
M  END
> <ConfClashScore>
0 

> <ConfOneFourInteractionScore>
-0.981848 

> <ConfScore>
-0.0322075 

> <ConfScorePBest>
0.00326003 

> <ConfTolerance>
0.285486 

$$$$
c13.sdf
 OpenBabel04162418043D

 44 47  0  0  0  0  0  0  0  0999 V2000
    2.1080   -0.3774   -1.8532 N   0  0  0  1  0  0  0  0  0  0  0  0
    2.5364    0.5907   -2.6454 C   0  0  0  1  0  0  0  0  0  0  0  0
    2.1526    0.6995   -3.8968 N   0  0  0  1  0  0  0  0  0  0  0  0
    1.2985   -0.1837   -4.4202 C   0  0  0  1  0  0  0  0  0  0  0  0
    0.8204   -1.2304   -3.6033 C   0  0  0  1  0  0  0  0  0  0  0  0
    1.2615   -1.2960   -2.2850 C   0  0  0  1  0  0  0  0  0  0  0  0
    0.7019   -0.3513   -5.6890 C   0  0  0  1  0  0  0  0  0  0  0  0
   -0.0689   -1.4011   -5.6538 N   0  0  0  1  0  0  0  0  0  0  0  0
   -0.0256   -1.9781   -4.3778 N   0  0  0  1  0  0  0  0  0  0  0  0
   -0.7858   -3.1447   -4.0792 C   0  0  0  1  0  0  0  0  0  0  0  0
   -0.4342   -4.3597   -4.6362 C   0  0  0  1  0  0  0  0  0  0  0  0
   -1.1709   -5.4962   -4.3412 C   0  0  0  1  0  0  0  0  0  0  0  0
   -2.2601   -5.4136   -3.4943 C   0  0  0  1  0  0  0  0  0  0  0  0
   -2.6125   -4.1948   -2.9357 C   0  0  0  1  0  0  0  0  0  0  0  0
   -1.8780   -3.0615   -3.2298 C   0  0  0  1  0  0  0  0  0  0  0  0
   -2.9400   -6.5096   -3.1053 O   0  0  0  1  0  0  0  0  0  0  0  0
   -2.5441   -7.7390   -3.7569 C   0  0  0  1  0  0  0  0  0  0  0  0
    3.4042    1.4826   -2.1026 N   0  0  0  1  0  0  0  0  0  0  0  0
    3.9795    2.6142   -2.8369 C   0  0  0  1  0  0  0  0  0  0  0  0
    5.0687    3.3143   -2.0170 C   0  0  0  1  0  0  0  0  0  0  0  0
    6.3007    2.4178   -2.1696 C   0  0  0  1  0  0  0  0  0  0  0  0
    6.1014    1.6711   -3.4953 C   0  0  0  1  0  0  0  0  0  0  0  0
    4.7559    2.1440   -4.0560 C   0  0  0  1  0  0  0  0  0  0  0  0
    7.5502    3.2474   -2.2176 N   0  0  0  1  0  0  0  0  0  0  0  0
    0.9317   -2.0527   -1.6523 H   0  0  0  1  0  0  0  0  0  0  0  0
    0.8529    0.2621   -6.5152 H   0  0  0  1  0  0  0  0  0  0  0  0
    0.3829   -4.4213   -5.2765 H   0  0  0  1  0  0  0  0  0  0  0  0
   -0.9040   -6.4113   -4.7571 H   0  0  0  1  0  0  0  0  0  0  0  0
   -3.4297   -4.1332   -2.2953 H   0  0  0  1  0  0  0  0  0  0  0  0
   -2.1449   -2.1465   -2.8138 H   0  0  0  1  0  0  0  0  0  0  0  0
   -3.0128   -7.8014   -4.7167 H   0  0  0  1  0  0  0  0  0  0  0  0
   -2.8455   -8.5729   -3.1581 H   0  0  0  1  0  0  0  0  0  0  0  0
   -1.4810   -7.7518   -3.8779 H   0  0  0  1  0  0  0  0  0  0  0  0
    3.6614    1.3632   -1.1646 H   0  0  0  1  0  0  0  0  0  0  0  0
    3.2009    3.2952   -3.1108 H   0  0  0  1  0  0  0  0  0  0  0  0
    4.7797    3.3875   -0.9893 H   0  0  0  1  0  0  0  0  0  0  0  0
    5.2630    4.2927   -2.4040 H   0  0  0  1  0  0  0  0  0  0  0  0
    6.3626    1.7255   -1.3560 H   0  0  0  1  0  0  0  0  0  0  0  0
    6.8910    1.9090   -4.1769 H   0  0  0  1  0  0  0  0  0  0  0  0
    6.0816    0.6148   -3.3263 H   0  0  0  1  0  0  0  0  0  0  0  0
    4.2451    1.3393   -4.5422 H   0  0  0  1  0  0  0  0  0  0  0  0
    4.8963    2.9480   -4.7479 H   0  0  0  1  0  0  0  0  0  0  0  0
    7.6099    3.7959   -1.4078 H   0  0  0  1  0  0  0  0  0  0  0  0
    7.5253    3.8298   -3.0053 H   0  0  0  1  0  0  0  0  0  0  0  0
  1  2  4  0  0  0  0
  1  6  4  0  0  0  0
  2  3  4  0  0  0  0
  2 18  1  0  0  0  0
  3  4  4  0  0  0  0
  4  5  4  0  0  0  0
  4  7  4  0  0  0  0
  5  6  4  0  0  0  0
  5  9  4  0  0  0  0
  6 25  1  0  0  0  0
  7  8  4  0  0  0  0
  7 26  1  0  0  0  0
  8  9  4  0  0  0  0
  9 10  1  0  0  0  0
 10 11  4  0  0  0  0
 10 15  4  0  0  0  0
 11 12  4  0  0  0  0
 11 27  1  0  0  0  0
 12 13  4  0  0  0  0
 12 28  1  0  0  0  0
 13 14  4  0  0  0  0
 13 16  1  0  0  0  0
 14 15  4  0  0  0  0
 14 29  1  0  0  0  0
 15 30  1  0  0  0  0
 16 17  1  0  0  0  0
 17 31  1  0  0  0  0
 17 32  1  0  0  0  0
 17 33  1  0  0  0  0
 18 19  1  0  0  0  0
 18 34  1  0  0  0  0
 19 20  1  0  0  0  0
 19 23  1  0  0  0  0
 19 35  1  0  0  0  0
 20 21  1  0  0  0  0
 20 36  1  0  0  0  0
 20 37  1  0  0  0  0
 21 22  1  0  0  0  0
 21 24  1  0  0  0  0
 21 38  1  0  0  0  0
 22 23  1  0  0  0  0
 22 39  1  0  0  0  0
 22 40  1  0  0  0  0
 23 41  1  0  0  0  0
 23 42  1  0  0  0  0
 24 43  1  0  0  0  0
 24 44  1  0  0  0  0
M  END
> <ConfClashScore>
0 

> <ConfOneFourInteractionScore>
-0.985399 

> <ConfScore>
-0.0320565 

> <ConfScorePBest>
0.0032467 

> <ConfTolerance>
0.426724 

$$$$
c13.sdf
 OpenBabel04162418043D

 44 47  0  0  0  0  0  0  0  0999 V2000
    2.1079   -0.3774   -1.8532 N   0  0  0  1  0  0  0  0  0  0  0  0
    2.5364    0.5907   -2.6455 C   0  0  0  1  0  0  0  0  0  0  0  0
    2.1526    0.6997   -3.8968 N   0  0  0  1  0  0  0  0  0  0  0  0
    1.2986   -0.1837   -4.4201 C   0  0  0  1  0  0  0  0  0  0  0  0
    0.8204   -1.2305   -3.6034 C   0  0  0  1  0  0  0  0  0  0  0  0
    1.2615   -1.2960   -2.2849 C   0  0  0  1  0  0  0  0  0  0  0  0
    0.7019   -0.3512   -5.6890 C   0  0  0  1  0  0  0  0  0  0  0  0
   -0.0690   -1.4010   -5.6537 N   0  0  0  1  0  0  0  0  0  0  0  0
   -0.0256   -1.9781   -4.3778 N   0  0  0  1  0  0  0  0  0  0  0  0
   -0.7943   -3.1326   -4.1266 C   0  0  0  1  0  0  0  0  0  0  0  0
   -0.6073   -4.2200   -4.9590 C   0  0  0  1  0  0  0  0  0  0  0  0
   -1.3335   -5.3828   -4.7535 C   0  0  0  1  0  0  0  0  0  0  0  0
   -2.2481   -5.4530   -3.7197 C   0  0  0  1  0  0  0  0  0  0  0  0
   -2.4355   -4.3622   -2.8850 C   0  0  0  1  0  0  0  0  0  0  0  0
   -1.7116   -3.2028   -3.0897 C   0  0  0  1  0  0  0  0  0  0  0  0
   -2.9356   -6.6989   -3.6153 O   0  0  0  1  0  0  0  0  0  0  0  0
   -2.8044   -7.7402   -4.6406 C   0  0  0  1  0  0  0  0  0  0  0  0
    3.3929    1.5241   -2.2160 N   0  0  0  1  0  0  0  0  0  0  0  0
    3.7727    2.7410   -2.9224 C   0  0  0  1  0  0  0  0  0  0  0  0
    2.6982    3.8194   -2.6765 C   0  0  0  1  0  0  0  0  0  0  0  0
    3.5026    5.0366   -2.2240 C   0  0  0  1  0  0  0  0  0  0  0  0
    4.9032    4.6732   -2.7788 C   0  0  0  1  0  0  0  0  0  0  0  0
    5.1560    3.1994   -2.4220 C   0  0  0  1  0  0  0  0  0  0  0  0
    2.9800    6.2996   -2.8303 N   0  0  0  1  0  0  0  0  0  0  0  0
    0.9317   -2.0527   -1.6522 H   0  0  0  1  0  0  0  0  0  0  0  0
    0.8529    0.2621   -6.5152 H   0  0  0  1  0  0  0  0  0  0  0  0
    0.0780   -4.1659   -5.7394 H   0  0  0  1  0  0  0  0  0  0  0  0
   -1.1899   -6.2024   -5.3773 H   0  0  0  1  0  0  0  0  0  0  0  0
   -3.1208   -4.4164   -2.1046 H   0  0  0  1  0  0  0  0  0  0  0  0
   -1.8550   -2.3831   -2.4659 H   0  0  0  1  0  0  0  0  0  0  0  0
   -3.2171   -7.3876   -5.5626 H   0  0  0  1  0  0  0  0  0  0  0  0
   -3.3305   -8.6175   -4.3268 H   0  0  0  1  0  0  0  0  0  0  0  0
   -1.7697   -7.9748   -4.7799 H   0  0  0  1  0  0  0  0  0  0  0  0
    3.8059    1.3750   -1.3399 H   0  0  0  1  0  0  0  0  0  0  0  0
    3.8312    2.5413   -3.9719 H   0  0  0  1  0  0  0  0  0  0  0  0
    2.1584    4.0318   -3.5756 H   0  0  0  1  0  0  0  0  0  0  0  0
    2.0143    3.5094   -1.9142 H   0  0  0  1  0  0  0  0  0  0  0  0
    3.5122    5.1294   -1.1581 H   0  0  0  1  0  0  0  0  0  0  0  0
    5.6496    5.2937   -2.3288 H   0  0  0  1  0  0  0  0  0  0  0  0
    4.9233    4.8032   -3.8407 H   0  0  0  1  0  0  0  0  0  0  0  0
    5.3018    3.0370   -1.3745 H   0  0  0  1  0  0  0  0  0  0  0  0
    5.9680    2.7656   -2.9672 H   0  0  0  1  0  0  0  0  0  0  0  0
    2.0554    6.4439   -2.5394 H   0  0  0  1  0  0  0  0  0  0  0  0
    3.0074    6.2285   -3.8074 H   0  0  0  1  0  0  0  0  0  0  0  0
  1  2  4  0  0  0  0
  1  6  4  0  0  0  0
  2  3  4  0  0  0  0
  2 18  1  0  0  0  0
  3  4  4  0  0  0  0
  4  5  4  0  0  0  0
  4  7  4  0  0  0  0
  5  6  4  0  0  0  0
  5  9  4  0  0  0  0
  6 25  1  0  0  0  0
  7  8  4  0  0  0  0
  7 26  1  0  0  0  0
  8  9  4  0  0  0  0
  9 10  1  0  0  0  0
 10 11  4  0  0  0  0
 10 15  4  0  0  0  0
 11 12  4  0  0  0  0
 11 27  1  0  0  0  0
 12 13  4  0  0  0  0
 12 28  1  0  0  0  0
 13 14  4  0  0  0  0
 13 16  1  0  0  0  0
 14 15  4  0  0  0  0
 14 29  1  0  0  0  0
 15 30  1  0  0  0  0
 16 17  1  0  0  0  0
 17 31  1  0  0  0  0
 17 32  1  0  0  0  0
 17 33  1  0  0  0  0
 18 19  1  0  0  0  0
 18 34  1  0  0  0  0
 19 20  1  0  0  0  0
 19 23  1  0  0  0  0
 19 35  1  0  0  0  0
 20 21  1  0  0  0  0
 20 36  1  0  0  0  0
 20 37  1  0  0  0  0
 21 22  1  0  0  0  0
 21 24  1  0  0  0  0
 21 38  1  0  0  0  0
 22 23  1  0  0  0  0
 22 39  1  0  0  0  0
 22 40  1  0  0  0  0
 23 41  1  0  0  0  0
 23 42  1  0  0  0  0
 24 43  1  0  0  0  0
 24 44  1  0  0  0  0
M  END
> <ConfClashScore>
0 

> <ConfOneFourInteractionScore>
-0.984337 

> <ConfScore>
-0.0318287 

> <ConfScorePBest>
0.00323337 

> <ConfTolerance>
0.361924 

$$$$
c13.sdf
 OpenBabel04162418043D

 44 47  0  0  0  0  0  0  0  0999 V2000
    2.1079   -0.3773   -1.8532 N   0  0  0  1  0  0  0  0  0  0  0  0
    2.5363    0.5907   -2.6455 C   0  0  0  1  0  0  0  0  0  0  0  0
    2.1526    0.6996   -3.8969 N   0  0  0  1  0  0  0  0  0  0  0  0
    1.2985   -0.1837   -4.4201 C   0  0  0  1  0  0  0  0  0  0  0  0
    0.8204   -1.2305   -3.6034 C   0  0  0  1  0  0  0  0  0  0  0  0
    1.2615   -1.2960   -2.2849 C   0  0  0  1  0  0  0  0  0  0  0  0
    0.7019   -0.3514   -5.6890 C   0  0  0  1  0  0  0  0  0  0  0  0
   -0.0689   -1.4010   -5.6538 N   0  0  0  1  0  0  0  0  0  0  0  0
   -0.0256   -1.9781   -4.3778 N   0  0  0  1  0  0  0  0  0  0  0  0
   -0.7857   -3.1448   -4.0792 C   0  0  0  1  0  0  0  0  0  0  0  0
   -2.1666   -3.0939   -4.1007 C   0  0  0  1  0  0  0  0  0  0  0  0
   -2.9065   -4.2308   -3.8151 C   0  0  0  1  0  0  0  0  0  0  0  0
   -2.2632   -5.4139   -3.5037 C   0  0  0  1  0  0  0  0  0  0  0  0
   -0.8781   -5.4647   -3.4823 C   0  0  0  1  0  0  0  0  0  0  0  0
   -0.1404   -4.3312   -3.7669 C   0  0  0  1  0  0  0  0  0  0  0  0
   -2.9847   -6.5403   -3.3144 O   0  0  0  1  0  0  0  0  0  0  0  0
   -4.4185   -6.4651   -3.2854 C   0  0  0  1  0  0  0  0  0  0  0  0
    3.3968    1.4545   -2.0655 N   0  0  0  1  0  0  0  0  0  0  0  0
    3.8328    1.3600   -0.6685 C   0  0  0  1  0  0  0  0  0  0  0  0
    4.4761   -0.0413   -0.3952 C   0  0  0  1  0  0  0  0  0  0  0  0
    5.9988    0.2105   -0.6625 C   0  0  0  1  0  0  0  0  0  0  0  0
    6.2345    1.6278   -0.1053 C   0  0  0  1  0  0  0  0  0  0  0  0
    4.9393    2.4128   -0.3776 C   0  0  0  1  0  0  0  0  0  0  0  0
    6.8434   -0.7969    0.0611 N   0  0  0  1  0  0  0  0  0  0  0  0
    0.9317   -2.0526   -1.6522 H   0  0  0  1  0  0  0  0  0  0  0  0
    0.8530    0.2620   -6.5153 H   0  0  0  1  0  0  0  0  0  0  0  0
   -2.6507   -2.2028   -4.3310 H   0  0  0  1  0  0  0  0  0  0  0  0
   -3.9456   -4.1937   -3.8352 H   0  0  0  1  0  0  0  0  0  0  0  0
   -0.3940   -6.3559   -3.2519 H   0  0  0  1  0  0  0  0  0  0  0  0
    0.8988   -4.3683   -3.7469 H   0  0  0  1  0  0  0  0  0  0  0  0
   -4.7827   -6.2115   -4.2591 H   0  0  0  1  0  0  0  0  0  0  0  0
   -4.7220   -5.7154   -2.5850 H   0  0  0  1  0  0  0  0  0  0  0  0
   -4.8192   -7.4125   -2.9907 H   0  0  0  1  0  0  0  0  0  0  0  0
    3.7511    2.1880   -2.6103 H   0  0  0  1  0  0  0  0  0  0  0  0
    2.9947    1.5152   -0.0215 H   0  0  0  1  0  0  0  0  0  0  0  0
    4.3093   -0.3501    0.6156 H   0  0  0  1  0  0  0  0  0  0  0  0
    4.0858   -0.7803   -1.0634 H   0  0  0  1  0  0  0  0  0  0  0  0
    6.2144    0.1712   -1.7098 H   0  0  0  1  0  0  0  0  0  0  0  0
    7.0608    2.0900   -0.6035 H   0  0  0  1  0  0  0  0  0  0  0  0
    6.4293    1.5858    0.9460 H   0  0  0  1  0  0  0  0  0  0  0  0
    5.0684    3.0553   -1.2235 H   0  0  0  1  0  0  0  0  0  0  0  0
    4.6757    2.9979    0.4785 H   0  0  0  1  0  0  0  0  0  0  0  0
    6.5636   -1.7011   -0.1929 H   0  0  0  1  0  0  0  0  0  0  0  0
    6.7336   -0.6807    1.0280 H   0  0  0  1  0  0  0  0  0  0  0  0
  1  2  4  0  0  0  0
  1  6  4  0  0  0  0
  2  3  4  0  0  0  0
  2 18  1  0  0  0  0
  3  4  4  0  0  0  0
  4  5  4  0  0  0  0
  4  7  4  0  0  0  0
  5  6  4  0  0  0  0
  5  9  4  0  0  0  0
  6 25  1  0  0  0  0
  7  8  4  0  0  0  0
  7 26  1  0  0  0  0
  8  9  4  0  0  0  0
  9 10  1  0  0  0  0
 10 11  4  0  0  0  0
 10 15  4  0  0  0  0
 11 12  4  0  0  0  0
 11 27  1  0  0  0  0
 12 13  4  0  0  0  0
 12 28  1  0  0  0  0
 13 14  4  0  0  0  0
 13 16  1  0  0  0  0
 14 15  4  0  0  0  0
 14 29  1  0  0  0  0
 15 30  1  0  0  0  0
 16 17  1  0  0  0  0
 17 31  1  0  0  0  0
 17 32  1  0  0  0  0
 17 33  1  0  0  0  0
 18 19  1  0  0  0  0
 18 34  1  0  0  0  0
 19 20  1  0  0  0  0
 19 23  1  0  0  0  0
 19 35  1  0  0  0  0
 20 21  1  0  0  0  0
 20 36  1  0  0  0  0
 20 37  1  0  0  0  0
 21 22  1  0  0  0  0
 21 24  1  0  0  0  0
 21 38  1  0  0  0  0
 22 23  1  0  0  0  0
 22 39  1  0  0  0  0
 22 40  1  0  0  0  0
 23 41  1  0  0  0  0
 23 42  1  0  0  0  0
 24 43  1  0  0  0  0
 24 44  1  0  0  0  0
M  END
> <ConfClashScore>
0 

> <ConfOneFourInteractionScore>
-0.985399 

> <ConfScore>
-0.0307911 

> <ConfScorePBest>
0.00322004 

> <ConfTolerance>
0.250833 

$$$$
c13.sdf
 OpenBabel04162418043D

 44 47  0  0  0  0  0  0  0  0999 V2000
    2.1080   -0.3774   -1.8532 N   0  0  0  1  0  0  0  0  0  0  0  0
    2.5364    0.5907   -2.6454 C   0  0  0  1  0  0  0  0  0  0  0  0
    2.1525    0.6996   -3.8969 N   0  0  0  1  0  0  0  0  0  0  0  0
    1.2985   -0.1837   -4.4202 C   0  0  0  1  0  0  0  0  0  0  0  0
    0.8205   -1.2305   -3.6033 C   0  0  0  1  0  0  0  0  0  0  0  0
    1.2616   -1.2960   -2.2850 C   0  0  0  1  0  0  0  0  0  0  0  0
    0.7019   -0.3513   -5.6890 C   0  0  0  1  0  0  0  0  0  0  0  0
   -0.0689   -1.4011   -5.6538 N   0  0  0  1  0  0  0  0  0  0  0  0
   -0.0256   -1.9781   -4.3778 N   0  0  0  1  0  0  0  0  0  0  0  0
   -0.7742   -3.1273   -4.0836 C   0  0  0  1  0  0  0  0  0  0  0  0
   -0.0500   -4.1976   -3.5940 C   0  0  0  1  0  0  0  0  0  0  0  0
   -0.6959   -5.3797   -3.2667 C   0  0  0  1  0  0  0  0  0  0  0  0
   -2.0633   -5.4898   -3.4352 C   0  0  0  1  0  0  0  0  0  0  0  0
   -2.7896   -4.4161   -3.9263 C   0  0  0  1  0  0  0  0  0  0  0  0
   -2.1457   -3.2374   -4.2526 C   0  0  0  1  0  0  0  0  0  0  0  0
   -2.6935   -6.6464   -3.1203 O   0  0  0  1  0  0  0  0  0  0  0  0
   -4.0893   -6.7424   -3.4444 C   0  0  0  1  0  0  0  0  0  0  0  0
    3.3977    1.4988   -2.1527 N   0  0  0  1  0  0  0  0  0  0  0  0
    3.9777    2.5880   -2.9434 C   0  0  0  1  0  0  0  0  0  0  0  0
    2.9092    3.5962   -3.3665 C   0  0  0  1  0  0  0  0  0  0  0  0
    3.6817    4.8869   -3.6603 C   0  0  0  1  0  0  0  0  0  0  0  0
    4.9251    4.8283   -2.7640 C   0  0  0  1  0  0  0  0  0  0  0  0
    4.9153    3.4513   -2.0959 C   0  0  0  1  0  0  0  0  0  0  0  0
    4.0631    4.9416   -5.0490 N   0  0  0  1  0  0  0  0  0  0  0  0
    0.9318   -2.0527   -1.6523 H   0  0  0  1  0  0  0  0  0  0  0  0
    0.8528    0.2620   -6.5152 H   0  0  0  1  0  0  0  0  0  0  0  0
    0.9795   -4.1163   -3.4709 H   0  0  0  1  0  0  0  0  0  0  0  0
   -0.1515   -6.1839   -2.8944 H   0  0  0  1  0  0  0  0  0  0  0  0
   -3.8190   -4.4974   -4.0493 H   0  0  0  1  0  0  0  0  0  0  0  0
   -2.6901   -2.4334   -4.6250 H   0  0  0  1  0  0  0  0  0  0  0  0
   -4.5133   -7.5912   -2.9497 H   0  0  0  1  0  0  0  0  0  0  0  0
   -4.2027   -6.8531   -4.5026 H   0  0  0  1  0  0  0  0  0  0  0  0
   -4.5918   -5.8543   -3.1222 H   0  0  0  1  0  0  0  0  0  0  0  0
    3.6524    1.4280   -1.2090 H   0  0  0  1  0  0  0  0  0  0  0  0
    4.4859    2.1814   -3.7927 H   0  0  0  1  0  0  0  0  0  0  0  0
    2.3966    3.2566   -4.2421 H   0  0  0  1  0  0  0  0  0  0  0  0
    2.2037    3.7510   -2.5771 H   0  0  0  1  0  0  0  0  0  0  0  0
    3.0864    5.7427   -3.4194 H   0  0  0  1  0  0  0  0  0  0  0  0
    4.8829    5.5988   -2.0227 H   0  0  0  1  0  0  0  0  0  0  0  0
    5.8108    4.9470   -3.3525 H   0  0  0  1  0  0  0  0  0  0  0  0
    5.9005    3.0339   -2.0867 H   0  0  0  1  0  0  0  0  0  0  0  0
    4.5496    3.5257   -1.0930 H   0  0  0  1  0  0  0  0  0  0  0  0
    3.2610    4.8983   -5.6104 H   0  0  0  1  0  0  0  0  0  0  0  0
    4.6485    4.1836   -5.2569 H   0  0  0  1  0  0  0  0  0  0  0  0
  1  2  4  0  0  0  0
  1  6  4  0  0  0  0
  2  3  4  0  0  0  0
  2 18  1  0  0  0  0
  3  4  4  0  0  0  0
  4  5  4  0  0  0  0
  4  7  4  0  0  0  0
  5  6  4  0  0  0  0
  5  9  4  0  0  0  0
  6 25  1  0  0  0  0
  7  8  4  0  0  0  0
  7 26  1  0  0  0  0
  8  9  4  0  0  0  0
  9 10  1  0  0  0  0
 10 11  4  0  0  0  0
 10 15  4  0  0  0  0
 11 12  4  0  0  0  0
 11 27  1  0  0  0  0
 12 13  4  0  0  0  0
 12 28  1  0  0  0  0
 13 14  4  0  0  0  0
 13 16  1  0  0  0  0
 14 15  4  0  0  0  0
 14 29  1  0  0  0  0
 15 30  1  0  0  0  0
 16 17  1  0  0  0  0
 17 31  1  0  0  0  0
 17 32  1  0  0  0  0
 17 33  1  0  0  0  0
 18 19  1  0  0  0  0
 18 34  1  0  0  0  0
 19 20  1  0  0  0  0
 19 23  1  0  0  0  0
 19 35  1  0  0  0  0
 20 21  1  0  0  0  0
 20 36  1  0  0  0  0
 20 37  1  0  0  0  0
 21 22  1  0  0  0  0
 21 24  1  0  0  0  0
 21 38  1  0  0  0  0
 22 23  1  0  0  0  0
 22 39  1  0  0  0  0
 22 40  1  0  0  0  0
 23 41  1  0  0  0  0
 23 42  1  0  0  0  0
 24 43  1  0  0  0  0
 24 44  1  0  0  0  0
M  END
> <ConfClashScore>
0 

> <ConfOneFourInteractionScore>
-0.981848 

> <ConfScore>
-0.0307911 

> <ConfScorePBest>
0.00320672 

> <ConfTolerance>
0.250645 

$$$$
c13.sdf
 OpenBabel04162418043D

 44 47  0  0  0  0  0  0  0  0999 V2000
    2.1079   -0.3774   -1.8532 N   0  0  0  1  0  0  0  0  0  0  0  0
    2.5363    0.5907   -2.6455 C   0  0  0  1  0  0  0  0  0  0  0  0
    2.1526    0.6995   -3.8968 N   0  0  0  1  0  0  0  0  0  0  0  0
    1.2985   -0.1838   -4.4201 C   0  0  0  1  0  0  0  0  0  0  0  0
    0.8204   -1.2305   -3.6033 C   0  0  0  1  0  0  0  0  0  0  0  0
    1.2615   -1.2960   -2.2849 C   0  0  0  1  0  0  0  0  0  0  0  0
    0.7019   -0.3512   -5.6889 C   0  0  0  1  0  0  0  0  0  0  0  0
   -0.0689   -1.4010   -5.6538 N   0  0  0  1  0  0  0  0  0  0  0  0
   -0.0256   -1.9781   -4.3778 N   0  0  0  1  0  0  0  0  0  0  0  0
   -0.7780   -3.1328   -4.0822 C   0  0  0  1  0  0  0  0  0  0  0  0
   -1.6184   -3.0863   -2.9860 C   0  0  0  1  0  0  0  0  0  0  0  0
   -2.3851   -4.1922   -2.6533 C   0  0  0  1  0  0  0  0  0  0  0  0
   -2.3053   -5.3430   -3.4145 C   0  0  0  1  0  0  0  0  0  0  0  0
   -1.4623   -5.3895   -4.5140 C   0  0  0  1  0  0  0  0  0  0  0  0
   -0.6978   -4.2869   -4.8458 C   0  0  0  1  0  0  0  0  0  0  0  0
   -2.9826   -6.4292   -2.9946 O   0  0  0  1  0  0  0  0  0  0  0  0
   -2.6383   -7.6630   -3.6668 C   0  0  0  1  0  0  0  0  0  0  0  0
    3.3977    1.4989   -2.1526 N   0  0  0  1  0  0  0  0  0  0  0  0
    3.8846    1.4964   -0.7723 C   0  0  0  1  0  0  0  0  0  0  0  0
    4.3473    0.1062   -0.3685 C   0  0  0  1  0  0  0  0  0  0  0  0
    5.2822    0.4112    0.8070 C   0  0  0  1  0  0  0  0  0  0  0  0
    6.0471    1.6652    0.3745 C   0  0  0  1  0  0  0  0  0  0  0  0
    5.1355    2.3715   -0.6380 C   0  0  0  1  0  0  0  0  0  0  0  0
    4.5085    0.6709    2.0329 N   0  0  0  1  0  0  0  0  0  0  0  0
    0.9317   -2.0527   -1.6522 H   0  0  0  1  0  0  0  0  0  0  0  0
    0.8529    0.2621   -6.5152 H   0  0  0  1  0  0  0  0  0  0  0  0
   -1.6756   -2.2218   -2.4107 H   0  0  0  1  0  0  0  0  0  0  0  0
   -3.0205   -4.1559   -1.8308 H   0  0  0  1  0  0  0  0  0  0  0  0
   -1.4052   -6.2540   -5.0893 H   0  0  0  1  0  0  0  0  0  0  0  0
   -0.0623   -4.3231   -5.6683 H   0  0  0  1  0  0  0  0  0  0  0  0
   -2.5242   -7.4791   -4.7147 H   0  0  0  1  0  0  0  0  0  0  0  0
   -3.4162   -8.3815   -3.5136 H   0  0  0  1  0  0  0  0  0  0  0  0
   -1.7196   -8.0410   -3.2692 H   0  0  0  1  0  0  0  0  0  0  0  0
    3.7181    2.2038   -2.7533 H   0  0  0  1  0  0  0  0  0  0  0  0
    3.1101    1.8415   -0.1197 H   0  0  0  1  0  0  0  0  0  0  0  0
    3.5235   -0.5039   -0.0619 H   0  0  0  1  0  0  0  0  0  0  0  0
    4.8714   -0.3763   -1.1669 H   0  0  0  1  0  0  0  0  0  0  0  0
    5.9557   -0.4030    0.9754 H   0  0  0  1  0  0  0  0  0  0  0  0
    6.9766    1.3972   -0.0826 H   0  0  0  1  0  0  0  0  0  0  0  0
    6.2327    2.2990    1.2163 H   0  0  0  1  0  0  0  0  0  0  0  0
    4.8702    3.3449   -0.2818 H   0  0  0  1  0  0  0  0  0  0  0  0
    5.6294    2.4593   -1.5830 H   0  0  0  1  0  0  0  0  0  0  0  0
    3.9627   -0.1143    2.2477 H   0  0  0  1  0  0  0  0  0  0  0  0
    3.9251    1.4457    1.8929 H   0  0  0  1  0  0  0  0  0  0  0  0
  1  2  4  0  0  0  0
  1  6  4  0  0  0  0
  2  3  4  0  0  0  0
  2 18  1  0  0  0  0
  3  4  4  0  0  0  0
  4  5  4  0  0  0  0
  4  7  4  0  0  0  0
  5  6  4  0  0  0  0
  5  9  4  0  0  0  0
  6 25  1  0  0  0  0
  7  8  4  0  0  0  0
  7 26  1  0  0  0  0
  8  9  4  0  0  0  0
  9 10  1  0  0  0  0
 10 11  4  0  0  0  0
 10 15  4  0  0  0  0
 11 12  4  0  0  0  0
 11 27  1  0  0  0  0
 12 13  4  0  0  0  0
 12 28  1  0  0  0  0
 13 14  4  0  0  0  0
 13 16  1  0  0  0  0
 14 15  4  0  0  0  0
 14 29  1  0  0  0  0
 15 30  1  0  0  0  0
 16 17  1  0  0  0  0
 17 31  1  0  0  0  0
 17 32  1  0  0  0  0
 17 33  1  0  0  0  0
 18 19  1  0  0  0  0
 18 34  1  0  0  0  0
 19 20  1  0  0  0  0
 19 23  1  0  0  0  0
 19 35  1  0  0  0  0
 20 21  1  0  0  0  0
 20 36  1  0  0  0  0
 20 37  1  0  0  0  0
 21 22  1  0  0  0  0
 21 24  1  0  0  0  0
 21 38  1  0  0  0  0
 22 23  1  0  0  0  0
 22 39  1  0  0  0  0
 22 40  1  0  0  0  0
 23 41  1  0  0  0  0
 23 42  1  0  0  0  0
 24 43  1  0  0  0  0
 24 44  1  0  0  0  0
M  END
> <ConfClashScore>
0 

> <ConfOneFourInteractionScore>
-0.985399 

> <ConfScore>
-0.0300635 

> <ConfScorePBest>
0.00319339 

> <ConfTolerance>
0.27738 

$$$$
c13.sdf
 OpenBabel04162418043D

 44 47  0  0  0  0  0  0  0  0999 V2000
    2.1079   -0.3774   -1.8532 N   0  0  0  1  0  0  0  0  0  0  0  0
    2.5363    0.5907   -2.6455 C   0  0  0  1  0  0  0  0  0  0  0  0
    2.1526    0.6996   -3.8967 N   0  0  0  1  0  0  0  0  0  0  0  0
    1.2985   -0.1837   -4.4201 C   0  0  0  1  0  0  0  0  0  0  0  0
    0.8204   -1.2304   -3.6033 C   0  0  0  1  0  0  0  0  0  0  0  0
    1.2614   -1.2960   -2.2850 C   0  0  0  1  0  0  0  0  0  0  0  0
    0.7020   -0.3513   -5.6890 C   0  0  0  1  0  0  0  0  0  0  0  0
   -0.0689   -1.4010   -5.6537 N   0  0  0  1  0  0  0  0  0  0  0  0
   -0.0256   -1.9781   -4.3778 N   0  0  0  1  0  0  0  0  0  0  0  0
   -0.7157   -3.1985   -4.1123 C   0  0  0  1  0  0  0  0  0  0  0  0
   -2.0370   -3.3428   -4.4911 C   0  0  0  1  0  0  0  0  0  0  0  0
   -2.7322   -4.4941   -4.1556 C   0  0  0  1  0  0  0  0  0  0  0  0
   -2.1058   -5.4955   -3.4379 C   0  0  0  1  0  0  0  0  0  0  0  0
   -0.7805   -5.3506   -3.0581 C   0  0  0  1  0  0  0  0  0  0  0  0
   -0.0872   -4.2026   -3.3925 C   0  0  0  1  0  0  0  0  0  0  0  0
   -2.7560   -6.6493   -3.1915 O   0  0  0  1  0  0  0  0  0  0  0  0
   -1.9407   -7.7039   -2.6441 C   0  0  0  1  0  0  0  0  0  0  0  0
    3.4098    1.5117   -2.1456 N   0  0  0  1  0  0  0  0  0  0  0  0
    4.0888    2.4814   -3.0138 C   0  0  0  1  0  0  0  0  0  0  0  0
    5.2121    3.1946   -2.2539 C   0  0  0  1  0  0  0  0  0  0  0  0
    6.5004    2.4216   -2.5665 C   0  0  0  1  0  0  0  0  0  0  0  0
    6.0742    1.2727   -3.4846 C   0  0  0  1  0  0  0  0  0  0  0  0
    4.7933    1.7747   -4.1600 C   0  0  0  1  0  0  0  0  0  0  0  0
    7.4774    3.2992   -3.2542 N   0  0  0  1  0  0  0  0  0  0  0  0
    0.9316   -2.0526   -1.6522 H   0  0  0  1  0  0  0  0  0  0  0  0
    0.8529    0.2620   -6.5152 H   0  0  0  1  0  0  0  0  0  0  0  0
   -2.5096   -2.5877   -5.0277 H   0  0  0  1  0  0  0  0  0  0  0  0
   -3.7253   -4.6045   -4.4440 H   0  0  0  1  0  0  0  0  0  0  0  0
   -0.3079   -6.1057   -2.5215 H   0  0  0  1  0  0  0  0  0  0  0  0
    0.9059   -4.0923   -3.1041 H   0  0  0  1  0  0  0  0  0  0  0  0
   -2.5619   -8.5323   -2.3743 H   0  0  0  1  0  0  0  0  0  0  0  0
   -1.4289   -7.3446   -1.7759 H   0  0  0  1  0  0  0  0  0  0  0  0
   -1.2258   -8.0180   -3.3757 H   0  0  0  1  0  0  0  0  0  0  0  0
    3.5886    1.5263   -1.1822 H   0  0  0  1  0  0  0  0  0  0  0  0
    3.3764    3.1878   -3.3859 H   0  0  0  1  0  0  0  0  0  0  0  0
    5.0164    3.1785   -1.2020 H   0  0  0  1  0  0  0  0  0  0  0  0
    5.2985    4.2082   -2.5857 H   0  0  0  1  0  0  0  0  0  0  0  0
    6.9352    2.0396   -1.6665 H   0  0  0  1  0  0  0  0  0  0  0  0
    5.8796    0.3871   -2.9164 H   0  0  0  1  0  0  0  0  0  0  0  0
    6.8312    1.0703   -4.2131 H   0  0  0  1  0  0  0  0  0  0  0  0
    5.0145    2.4527   -4.9576 H   0  0  0  1  0  0  0  0  0  0  0  0
    4.2071    0.9617   -4.5346 H   0  0  0  1  0  0  0  0  0  0  0  0
    7.8852    3.9077   -2.6033 H   0  0  0  1  0  0  0  0  0  0  0  0
    7.0178    3.8205   -3.9452 H   0  0  0  1  0  0  0  0  0  0  0  0
  1  2  4  0  0  0  0
  1  6  4  0  0  0  0
  2  3  4  0  0  0  0
  2 18  1  0  0  0  0
  3  4  4  0  0  0  0
  4  5  4  0  0  0  0
  4  7  4  0  0  0  0
  5  6  4  0  0  0  0
  5  9  4  0  0  0  0
  6 25  1  0  0  0  0
  7  8  4  0  0  0  0
  7 26  1  0  0  0  0
  8  9  4  0  0  0  0
  9 10  1  0  0  0  0
 10 11  4  0  0  0  0
 10 15  4  0  0  0  0
 11 12  4  0  0  0  0
 11 27  1  0  0  0  0
 12 13  4  0  0  0  0
 12 28  1  0  0  0  0
 13 14  4  0  0  0  0
 13 16  1  0  0  0  0
 14 15  4  0  0  0  0
 14 29  1  0  0  0  0
 15 30  1  0  0  0  0
 16 17  1  0  0  0  0
 17 31  1  0  0  0  0
 17 32  1  0  0  0  0
 17 33  1  0  0  0  0
 18 19  1  0  0  0  0
 18 34  1  0  0  0  0
 19 20  1  0  0  0  0
 19 23  1  0  0  0  0
 19 35  1  0  0  0  0
 20 21  1  0  0  0  0
 20 36  1  0  0  0  0
 20 37  1  0  0  0  0
 21 22  1  0  0  0  0
 21 24  1  0  0  0  0
 21 38  1  0  0  0  0
 22 23  1  0  0  0  0
 22 39  1  0  0  0  0
 22 40  1  0  0  0  0
 23 41  1  0  0  0  0
 23 42  1  0  0  0  0
 24 43  1  0  0  0  0
 24 44  1  0  0  0  0
M  END
> <ConfClashScore>
0 

> <ConfOneFourInteractionScore>
-0.985399 

> <ConfScore>
-0.0295662 

> <ConfScorePBest>
0.00318006 

> <ConfTolerance>
0.429134 

$$$$
c13.sdf
 OpenBabel04162418043D

 44 47  0  0  0  0  0  0  0  0999 V2000
    2.1079   -0.3773   -1.8532 N   0  0  0  1  0  0  0  0  0  0  0  0
    2.5364    0.5907   -2.6455 C   0  0  0  1  0  0  0  0  0  0  0  0
    2.1526    0.6995   -3.8968 N   0  0  0  1  0  0  0  0  0  0  0  0
    1.2985   -0.1837   -4.4201 C   0  0  0  1  0  0  0  0  0  0  0  0
    0.8205   -1.2305   -3.6033 C   0  0  0  1  0  0  0  0  0  0  0  0
    1.2615   -1.2960   -2.2849 C   0  0  0  1  0  0  0  0  0  0  0  0
    0.7020   -0.3513   -5.6890 C   0  0  0  1  0  0  0  0  0  0  0  0
   -0.0688   -1.4010   -5.6538 N   0  0  0  1  0  0  0  0  0  0  0  0
   -0.0256   -1.9781   -4.3778 N   0  0  0  1  0  0  0  0  0  0  0  0
   -0.6177   -3.2358   -4.1445 C   0  0  0  1  0  0  0  0  0  0  0  0
   -0.1247   -4.3601   -4.7794 C   0  0  0  1  0  0  0  0  0  0  0  0
   -0.7037   -5.5977   -4.5458 C   0  0  0  1  0  0  0  0  0  0  0  0
   -1.7774   -5.7066   -3.6823 C   0  0  0  1  0  0  0  0  0  0  0  0
   -2.2719   -4.5789   -3.0457 C   0  0  0  1  0  0  0  0  0  0  0  0
   -1.6946   -3.3447   -3.2785 C   0  0  0  1  0  0  0  0  0  0  0  0
   -2.3894   -6.8811   -3.4157 O   0  0  0  1  0  0  0  0  0  0  0  0
   -1.9200   -8.0824   -4.0474 C   0  0  0  1  0  0  0  0  0  0  0  0
    3.4117    1.5446   -2.2066 N   0  0  0  1  0  0  0  0  0  0  0  0
    3.9906    1.4958   -0.8698 C   0  0  0  1  0  0  0  0  0  0  0  0
    5.5180    1.5989   -0.9426 C   0  0  0  1  0  0  0  0  0  0  0  0
    5.8151    3.0948   -0.8388 C   0  0  0  1  0  0  0  0  0  0  0  0
    4.7933    3.5529    0.2047 C   0  0  0  1  0  0  0  0  0  0  0  0
    3.5412    2.7090   -0.0455 C   0  0  0  1  0  0  0  0  0  0  0  0
    7.2194    3.3398   -0.3699 N   0  0  0  1  0  0  0  0  0  0  0  0
    0.9317   -2.0526   -1.6522 H   0  0  0  1  0  0  0  0  0  0  0  0
    0.8530    0.2620   -6.5152 H   0  0  0  1  0  0  0  0  0  0  0  0
    0.6807   -4.2776   -5.4321 H   0  0  0  1  0  0  0  0  0  0  0  0
   -0.3301   -6.4444   -5.0204 H   0  0  0  1  0  0  0  0  0  0  0  0
   -3.0773   -4.6614   -2.3929 H   0  0  0  1  0  0  0  0  0  0  0  0
   -2.0681   -2.4981   -2.8040 H   0  0  0  1  0  0  0  0  0  0  0  0
   -2.2511   -8.9326   -3.4884 H   0  0  0  1  0  0  0  0  0  0  0  0
   -0.8506   -8.0727   -4.0814 H   0  0  0  1  0  0  0  0  0  0  0  0
   -2.3086   -8.1370   -5.0428 H   0  0  0  1  0  0  0  0  0  0  0  0
    3.6562    2.2801   -2.8063 H   0  0  0  1  0  0  0  0  0  0  0  0
    3.6991    0.5864   -0.3872 H   0  0  0  1  0  0  0  0  0  0  0  0
    5.8781    1.2069   -1.8709 H   0  0  0  1  0  0  0  0  0  0  0  0
    5.9704    1.0678   -0.1313 H   0  0  0  1  0  0  0  0  0  0  0  0
    5.6604    3.5873   -1.7761 H   0  0  0  1  0  0  0  0  0  0  0  0
    4.5734    4.5926    0.0803 H   0  0  0  1  0  0  0  0  0  0  0  0
    5.1668    3.3824    1.1927 H   0  0  0  1  0  0  0  0  0  0  0  0
    3.1200    2.3883    0.8843 H   0  0  0  1  0  0  0  0  0  0  0  0
    2.8155    3.2768   -0.5895 H   0  0  0  1  0  0  0  0  0  0  0  0
    7.3907    2.8134    0.4388 H   0  0  0  1  0  0  0  0  0  0  0  0
    7.3353    4.2922   -0.1702 H   0  0  0  1  0  0  0  0  0  0  0  0
  1  2  4  0  0  0  0
  1  6  4  0  0  0  0
  2  3  4  0  0  0  0
  2 18  1  0  0  0  0
  3  4  4  0  0  0  0
  4  5  4  0  0  0  0
  4  7  4  0  0  0  0
  5  6  4  0  0  0  0
  5  9  4  0  0  0  0
  6 25  1  0  0  0  0
  7  8  4  0  0  0  0
  7 26  1  0  0  0  0
  8  9  4  0  0  0  0
  9 10  1  0  0  0  0
 10 11  4  0  0  0  0
 10 15  4  0  0  0  0
 11 12  4  0  0  0  0
 11 27  1  0  0  0  0
 12 13  4  0  0  0  0
 12 28  1  0  0  0  0
 13 14  4  0  0  0  0
 13 16  1  0  0  0  0
 14 15  4  0  0  0  0
 14 29  1  0  0  0  0
 15 30  1  0  0  0  0
 16 17  1  0  0  0  0
 17 31  1  0  0  0  0
 17 32  1  0  0  0  0
 17 33  1  0  0  0  0
 18 19  1  0  0  0  0
 18 34  1  0  0  0  0
 19 20  1  0  0  0  0
 19 23  1  0  0  0  0
 19 35  1  0  0  0  0
 20 21  1  0  0  0  0
 20 36  1  0  0  0  0
 20 37  1  0  0  0  0
 21 22  1  0  0  0  0
 21 24  1  0  0  0  0
 21 38  1  0  0  0  0
 22 23  1  0  0  0  0
 22 39  1  0  0  0  0
 22 40  1  0  0  0  0
 23 41  1  0  0  0  0
 23 42  1  0  0  0  0
 24 43  1  0  0  0  0
 24 44  1  0  0  0  0
M  END
> <ConfClashScore>
0 

> <ConfOneFourInteractionScore>
-0.984337 

> <ConfScore>
-0.0295199 

> <ConfScorePBest>
0.00316673 

> <ConfTolerance>
0.371375 

$$$$
c13.sdf
 OpenBabel04162418043D

 44 47  0  0  0  0  0  0  0  0999 V2000
    2.1080   -0.3774   -1.8533 N   0  0  0  1  0  0  0  0  0  0  0  0
    2.5364    0.5907   -2.6455 C   0  0  0  1  0  0  0  0  0  0  0  0
    2.1526    0.6996   -3.8968 N   0  0  0  1  0  0  0  0  0  0  0  0
    1.2986   -0.1837   -4.4201 C   0  0  0  1  0  0  0  0  0  0  0  0
    0.8204   -1.2305   -3.6033 C   0  0  0  1  0  0  0  0  0  0  0  0
    1.2616   -1.2960   -2.2849 C   0  0  0  1  0  0  0  0  0  0  0  0
    0.7018   -0.3513   -5.6890 C   0  0  0  1  0  0  0  0  0  0  0  0
   -0.0690   -1.4010   -5.6537 N   0  0  0  1  0  0  0  0  0  0  0  0
   -0.0256   -1.9781   -4.3778 N   0  0  0  1  0  0  0  0  0  0  0  0
   -0.8671   -3.0852   -4.0667 C   0  0  0  1  0  0  0  0  0  0  0  0
   -1.8060   -3.5139   -4.9860 C   0  0  0  1  0  0  0  0  0  0  0  0
   -2.5589   -4.6492   -4.7294 C   0  0  0  1  0  0  0  0  0  0  0  0
   -2.3746   -5.3494   -3.5521 C   0  0  0  1  0  0  0  0  0  0  0  0
   -1.4329   -4.9194   -2.6303 C   0  0  0  1  0  0  0  0  0  0  0  0
   -0.6821   -3.7875   -2.8859 C   0  0  0  1  0  0  0  0  0  0  0  0
   -3.0504   -6.4623   -3.1918 O   0  0  0  1  0  0  0  0  0  0  0  0
   -3.9718   -7.0606   -4.1168 C   0  0  0  1  0  0  0  0  0  0  0  0
    3.4098    1.5118   -2.1457 N   0  0  0  1  0  0  0  0  0  0  0  0
    3.9795    2.5602   -2.9829 C   0  0  0  1  0  0  0  0  0  0  0  0
    2.9442    3.6561   -3.2575 C   0  0  0  1  0  0  0  0  0  0  0  0
    3.1813    4.7451   -2.2027 C   0  0  0  1  0  0  0  0  0  0  0  0
    4.3371    4.2321   -1.3393 C   0  0  0  1  0  0  0  0  0  0  0  0
    5.1067    3.2748   -2.2559 C   0  0  0  1  0  0  0  0  0  0  0  0
    3.5501    6.0294   -2.8553 N   0  0  0  1  0  0  0  0  0  0  0  0
    0.9318   -2.0527   -1.6522 H   0  0  0  1  0  0  0  0  0  0  0  0
    0.8527    0.2621   -6.5152 H   0  0  0  1  0  0  0  0  0  0  0  0
   -1.9476   -2.9848   -5.8700 H   0  0  0  1  0  0  0  0  0  0  0  0
   -3.2626   -4.9740   -5.4230 H   0  0  0  1  0  0  0  0  0  0  0  0
   -1.2913   -5.4485   -1.7462 H   0  0  0  1  0  0  0  0  0  0  0  0
    0.0215   -3.4626   -2.1924 H   0  0  0  1  0  0  0  0  0  0  0  0
   -4.5721   -7.7838   -3.6054 H   0  0  0  1  0  0  0  0  0  0  0  0
   -3.4267   -7.5411   -4.9022 H   0  0  0  1  0  0  0  0  0  0  0  0
   -4.6029   -6.3027   -4.5318 H   0  0  0  1  0  0  0  0  0  0  0  0
    3.6609    1.4673   -1.1995 H   0  0  0  1  0  0  0  0  0  0  0  0
    4.3310    2.1341   -3.8993 H   0  0  0  1  0  0  0  0  0  0  0  0
    1.9538    3.2613   -3.1665 H   0  0  0  1  0  0  0  0  0  0  0  0
    3.0801    4.0564   -4.2404 H   0  0  0  1  0  0  0  0  0  0  0  0
    2.3036    4.8863   -1.6071 H   0  0  0  1  0  0  0  0  0  0  0  0
    4.9635    5.0414   -1.0268 H   0  0  0  1  0  0  0  0  0  0  0  0
    3.9658    3.7151   -0.4792 H   0  0  0  1  0  0  0  0  0  0  0  0
    5.7011    2.5883   -1.6899 H   0  0  0  1  0  0  0  0  0  0  0  0
    5.7325    3.8099   -2.9393 H   0  0  0  1  0  0  0  0  0  0  0  0
    3.6376    6.7290   -2.1746 H   0  0  0  1  0  0  0  0  0  0  0  0
    2.8525    6.2824   -3.4955 H   0  0  0  1  0  0  0  0  0  0  0  0
  1  2  4  0  0  0  0
  1  6  4  0  0  0  0
  2  3  4  0  0  0  0
  2 18  1  0  0  0  0
  3  4  4  0  0  0  0
  4  5  4  0  0  0  0
  4  7  4  0  0  0  0
  5  6  4  0  0  0  0
  5  9  4  0  0  0  0
  6 25  1  0  0  0  0
  7  8  4  0  0  0  0
  7 26  1  0  0  0  0
  8  9  4  0  0  0  0
  9 10  1  0  0  0  0
 10 11  4  0  0  0  0
 10 15  4  0  0  0  0
 11 12  4  0  0  0  0
 11 27  1  0  0  0  0
 12 13  4  0  0  0  0
 12 28  1  0  0  0  0
 13 14  4  0  0  0  0
 13 16  1  0  0  0  0
 14 15  4  0  0  0  0
 14 29  1  0  0  0  0
 15 30  1  0  0  0  0
 16 17  1  0  0  0  0
 17 31  1  0  0  0  0
 17 32  1  0  0  0  0
 17 33  1  0  0  0  0
 18 19  1  0  0  0  0
 18 34  1  0  0  0  0
 19 20  1  0  0  0  0
 19 23  1  0  0  0  0
 19 35  1  0  0  0  0
 20 21  1  0  0  0  0
 20 36  1  0  0  0  0
 20 37  1  0  0  0  0
 21 22  1  0  0  0  0
 21 24  1  0  0  0  0
 21 38  1  0  0  0  0
 22 23  1  0  0  0  0
 22 39  1  0  0  0  0
 22 40  1  0  0  0  0
 23 41  1  0  0  0  0
 23 42  1  0  0  0  0
 24 43  1  0  0  0  0
 24 44  1  0  0  0  0
M  END
> <ConfClashScore>
0 

> <ConfOneFourInteractionScore>
-0.984337 

> <ConfScore>
-0.0292932 

> <ConfScorePBest>
0.0031534 

> <ConfTolerance>
0.37409 

$$$$
c13.sdf
 OpenBabel04162418043D

 44 47  0  0  0  0  0  0  0  0999 V2000
    2.1080   -0.3773   -1.8532 N   0  0  0  1  0  0  0  0  0  0  0  0
    2.5364    0.5907   -2.6455 C   0  0  0  1  0  0  0  0  0  0  0  0
    2.1526    0.6996   -3.8968 N   0  0  0  1  0  0  0  0  0  0  0  0
    1.2985   -0.1837   -4.4201 C   0  0  0  1  0  0  0  0  0  0  0  0
    0.8205   -1.2305   -3.6033 C   0  0  0  1  0  0  0  0  0  0  0  0
    1.2616   -1.2960   -2.2849 C   0  0  0  1  0  0  0  0  0  0  0  0
    0.7019   -0.3513   -5.6890 C   0  0  0  1  0  0  0  0  0  0  0  0
   -0.0690   -1.4010   -5.6537 N   0  0  0  1  0  0  0  0  0  0  0  0
   -0.0256   -1.9781   -4.3778 N   0  0  0  1  0  0  0  0  0  0  0  0
   -0.7942   -3.1326   -4.1266 C   0  0  0  1  0  0  0  0  0  0  0  0
   -2.1696   -3.0127   -4.1904 C   0  0  0  1  0  0  0  0  0  0  0  0
   -2.9731   -4.1179   -3.9572 C   0  0  0  1  0  0  0  0  0  0  0  0
   -2.3991   -5.3386   -3.6557 C   0  0  0  1  0  0  0  0  0  0  0  0
   -1.0196   -5.4587   -3.5917 C   0  0  0  1  0  0  0  0  0  0  0  0
   -0.2184   -4.3567   -3.8242 C   0  0  0  1  0  0  0  0  0  0  0  0
   -3.1436   -6.4616   -3.5198 O   0  0  0  1  0  0  0  0  0  0  0  0
   -2.4415   -7.7139   -3.4833 C   0  0  0  1  0  0  0  0  0  0  0  0
    3.3977    1.4989   -2.1527 N   0  0  0  1  0  0  0  0  0  0  0  0
    3.9765    2.6310   -2.8777 C   0  0  0  1  0  0  0  0  0  0  0  0
    3.6681    3.9545   -2.1773 C   0  0  0  1  0  0  0  0  0  0  0  0
    4.7446    4.9237   -2.6778 C   0  0  0  1  0  0  0  0  0  0  0  0
    5.9588    4.0462   -3.0078 C   0  0  0  1  0  0  0  0  0  0  0  0
    5.5062    2.5945   -2.8347 C   0  0  0  1  0  0  0  0  0  0  0  0
    4.2723    5.6447   -3.8997 N   0  0  0  1  0  0  0  0  0  0  0  0
    0.9318   -2.0526   -1.6522 H   0  0  0  1  0  0  0  0  0  0  0  0
    0.8529    0.2621   -6.5152 H   0  0  0  1  0  0  0  0  0  0  0  0
   -2.6017   -2.0934   -4.4133 H   0  0  0  1  0  0  0  0  0  0  0  0
   -4.0079   -4.0286   -4.0092 H   0  0  0  1  0  0  0  0  0  0  0  0
   -0.5875   -6.3780   -3.3688 H   0  0  0  1  0  0  0  0  0  0  0  0
    0.8165   -4.4459   -3.7722 H   0  0  0  1  0  0  0  0  0  0  0  0
   -2.0977   -7.9594   -4.4664 H   0  0  0  1  0  0  0  0  0  0  0  0
   -3.0999   -8.4815   -3.1339 H   0  0  0  1  0  0  0  0  0  0  0  0
   -1.6038   -7.6337   -2.8225 H   0  0  0  1  0  0  0  0  0  0  0  0
    3.6639    1.3919   -1.2155 H   0  0  0  1  0  0  0  0  0  0  0  0
    3.6163    2.6318   -3.8851 H   0  0  0  1  0  0  0  0  0  0  0  0
    3.7279    3.8412   -1.1150 H   0  0  0  1  0  0  0  0  0  0  0  0
    2.6928    4.3038   -2.4450 H   0  0  0  1  0  0  0  0  0  0  0  0
    4.9918    5.6343   -1.9170 H   0  0  0  1  0  0  0  0  0  0  0  0
    6.7648    4.2643   -2.3389 H   0  0  0  1  0  0  0  0  0  0  0  0
    6.2749    4.2170   -4.0157 H   0  0  0  1  0  0  0  0  0  0  0  0
    5.8874    1.9875   -3.6291 H   0  0  0  1  0  0  0  0  0  0  0  0
    5.8440    2.2078   -1.8960 H   0  0  0  1  0  0  0  0  0  0  0  0
    4.9768    6.2481   -4.2163 H   0  0  0  1  0  0  0  0  0  0  0  0
    3.4706    6.1647   -3.6824 H   0  0  0  1  0  0  0  0  0  0  0  0
  1  2  4  0  0  0  0
  1  6  4  0  0  0  0
  2  3  4  0  0  0  0
  2 18  1  0  0  0  0
  3  4  4  0  0  0  0
  4  5  4  0  0  0  0
  4  7  4  0  0  0  0
  5  6  4  0  0  0  0
  5  9  4  0  0  0  0
  6 25  1  0  0  0  0
  7  8  4  0  0  0  0
  7 26  1  0  0  0  0
  8  9  4  0  0  0  0
  9 10  1  0  0  0  0
 10 11  4  0  0  0  0
 10 15  4  0  0  0  0
 11 12  4  0  0  0  0
 11 27  1  0  0  0  0
 12 13  4  0  0  0  0
 12 28  1  0  0  0  0
 13 14  4  0  0  0  0
 13 16  1  0  0  0  0
 14 15  4  0  0  0  0
 14 29  1  0  0  0  0
 15 30  1  0  0  0  0
 16 17  1  0  0  0  0
 17 31  1  0  0  0  0
 17 32  1  0  0  0  0
 17 33  1  0  0  0  0
 18 19  1  0  0  0  0
 18 34  1  0  0  0  0
 19 20  1  0  0  0  0
 19 23  1  0  0  0  0
 19 35  1  0  0  0  0
 20 21  1  0  0  0  0
 20 36  1  0  0  0  0
 20 37  1  0  0  0  0
 21 22  1  0  0  0  0
 21 24  1  0  0  0  0
 21 38  1  0  0  0  0
 22 23  1  0  0  0  0
 22 39  1  0  0  0  0
 22 40  1  0  0  0  0
 23 41  1  0  0  0  0
 23 42  1  0  0  0  0
 24 43  1  0  0  0  0
 24 44  1  0  0  0  0
M  END
> <ConfClashScore>
0 

> <ConfOneFourInteractionScore>
-0.984337 

> <ConfScore>
-0.0292817 

> <ConfScorePBest>
0.00314007 

> <ConfTolerance>
0.324203 

$$$$
c13.sdf
 OpenBabel04162418043D

 44 47  0  0  0  0  0  0  0  0999 V2000
    2.1079   -0.3773   -1.8532 N   0  0  0  1  0  0  0  0  0  0  0  0
    2.5364    0.5907   -2.6455 C   0  0  0  1  0  0  0  0  0  0  0  0
    2.1526    0.6996   -3.8968 N   0  0  0  1  0  0  0  0  0  0  0  0
    1.2985   -0.1838   -4.4201 C   0  0  0  1  0  0  0  0  0  0  0  0
    0.8204   -1.2305   -3.6033 C   0  0  0  1  0  0  0  0  0  0  0  0
    1.2614   -1.2960   -2.2849 C   0  0  0  1  0  0  0  0  0  0  0  0
    0.7020   -0.3514   -5.6890 C   0  0  0  1  0  0  0  0  0  0  0  0
   -0.0689   -1.4011   -5.6538 N   0  0  0  1  0  0  0  0  0  0  0  0
   -0.0256   -1.9781   -4.3778 N   0  0  0  1  0  0  0  0  0  0  0  0
   -0.7779   -3.1328   -4.0822 C   0  0  0  1  0  0  0  0  0  0  0  0
   -1.3288   -3.8272   -5.1426 C   0  0  0  1  0  0  0  0  0  0  0  0
   -2.0734   -4.9729   -4.9089 C   0  0  0  1  0  0  0  0  0  0  0  0
   -2.2695   -5.4178   -3.6151 C   0  0  0  1  0  0  0  0  0  0  0  0
   -1.7170   -4.7211   -2.5515 C   0  0  0  1  0  0  0  0  0  0  0  0
   -0.9744   -3.5789   -2.7845 C   0  0  0  1  0  0  0  0  0  0  0  0
   -2.9871   -6.5277   -3.2608 O   0  0  0  1  0  0  0  0  0  0  0  0
   -3.7571   -7.0641   -4.3480 C   0  0  0  1  0  0  0  0  0  0  0  0
    3.4117    1.5446   -2.2067 N   0  0  0  1  0  0  0  0  0  0  0  0
    3.8906    1.5726   -0.8178 C   0  0  0  1  0  0  0  0  0  0  0  0
    4.6035    0.2711   -0.4505 C   0  0  0  1  0  0  0  0  0  0  0  0
    5.4975    0.6356    0.7398 C   0  0  0  1  0  0  0  0  0  0  0  0
    5.8273    2.1228    0.5589 C   0  0  0  1  0  0  0  0  0  0  0  0
    5.0014    2.6094   -0.6342 C   0  0  0  1  0  0  0  0  0  0  0  0
    4.7775    0.4155    2.0158 N   0  0  0  1  0  0  0  0  0  0  0  0
    0.9316   -2.0526   -1.6522 H   0  0  0  1  0  0  0  0  0  0  0  0
    0.8530    0.2620   -6.5152 H   0  0  0  1  0  0  0  0  0  0  0  0
   -1.1846   -3.4903   -6.1158 H   0  0  0  1  0  0  0  0  0  0  0  0
   -2.4846   -5.4975   -5.7070 H   0  0  0  1  0  0  0  0  0  0  0  0
   -1.8610   -5.0581   -1.5782 H   0  0  0  1  0  0  0  0  0  0  0  0
   -0.5633   -3.0541   -1.9862 H   0  0  0  1  0  0  0  0  0  0  0  0
   -4.4293   -7.8089   -3.9763 H   0  0  0  1  0  0  0  0  0  0  0  0
   -3.0990   -7.5049   -5.0673 H   0  0  0  1  0  0  0  0  0  0  0  0
   -4.3165   -6.2779   -4.8104 H   0  0  0  1  0  0  0  0  0  0  0  0
    3.7280    2.2273   -2.8346 H   0  0  0  1  0  0  0  0  0  0  0  0
    3.0684    1.7639   -0.1602 H   0  0  0  1  0  0  0  0  0  0  0  0
    5.1936   -0.0796   -1.2712 H   0  0  0  1  0  0  0  0  0  0  0  0
    3.8949   -0.4811   -0.1729 H   0  0  0  1  0  0  0  0  0  0  0  0
    6.3927    0.0495    0.7291 H   0  0  0  1  0  0  0  0  0  0  0  0
    6.8713    2.2483    0.3614 H   0  0  0  1  0  0  0  0  0  0  0  0
    5.5620    2.6697    1.4395 H   0  0  0  1  0  0  0  0  0  0  0  0
    4.5828    3.5728   -0.4302 H   0  0  0  1  0  0  0  0  0  0  0  0
    5.6104    2.6634   -1.5123 H   0  0  0  1  0  0  0  0  0  0  0  0
    4.5197   -0.5272    2.0875 H   0  0  0  1  0  0  0  0  0  0  0  0
    3.9741    0.9762    2.0382 H   0  0  0  1  0  0  0  0  0  0  0  0
  1  2  4  0  0  0  0
  1  6  4  0  0  0  0
  2  3  4  0  0  0  0
  2 18  1  0  0  0  0
  3  4  4  0  0  0  0
  4  5  4  0  0  0  0
  4  7  4  0  0  0  0
  5  6  4  0  0  0  0
  5  9  4  0  0  0  0
  6 25  1  0  0  0  0
  7  8  4  0  0  0  0
  7 26  1  0  0  0  0
  8  9  4  0  0  0  0
  9 10  1  0  0  0  0
 10 11  4  0  0  0  0
 10 15  4  0  0  0  0
 11 12  4  0  0  0  0
 11 27  1  0  0  0  0
 12 13  4  0  0  0  0
 12 28  1  0  0  0  0
 13 14  4  0  0  0  0
 13 16  1  0  0  0  0
 14 15  4  0  0  0  0
 14 29  1  0  0  0  0
 15 30  1  0  0  0  0
 16 17  1  0  0  0  0
 17 31  1  0  0  0  0
 17 32  1  0  0  0  0
 17 33  1  0  0  0  0
 18 19  1  0  0  0  0
 18 34  1  0  0  0  0
 19 20  1  0  0  0  0
 19 23  1  0  0  0  0
 19 35  1  0  0  0  0
 20 21  1  0  0  0  0
 20 36  1  0  0  0  0
 20 37  1  0  0  0  0
 21 22  1  0  0  0  0
 21 24  1  0  0  0  0
 21 38  1  0  0  0  0
 22 23  1  0  0  0  0
 22 39  1  0  0  0  0
 22 40  1  0  0  0  0
 23 41  1  0  0  0  0
 23 42  1  0  0  0  0
 24 43  1  0  0  0  0
 24 44  1  0  0  0  0
M  END
> <ConfClashScore>
0 

> <ConfOneFourInteractionScore>
-0.985399 

> <ConfScore>
-0.0291039 

> <ConfScorePBest>
0.00312675 

> <ConfTolerance>
0.346234 

$$$$
c13.sdf
 OpenBabel04162418043D

 44 47  0  0  0  0  0  0  0  0999 V2000
    2.1079   -0.3773   -1.8532 N   0  0  0  1  0  0  0  0  0  0  0  0
    2.5364    0.5907   -2.6454 C   0  0  0  1  0  0  0  0  0  0  0  0
    2.1526    0.6996   -3.8968 N   0  0  0  1  0  0  0  0  0  0  0  0
    1.2985   -0.1837   -4.4202 C   0  0  0  1  0  0  0  0  0  0  0  0
    0.8204   -1.2304   -3.6033 C   0  0  0  1  0  0  0  0  0  0  0  0
    1.2615   -1.2960   -2.2849 C   0  0  0  1  0  0  0  0  0  0  0  0
    0.7019   -0.3513   -5.6890 C   0  0  0  1  0  0  0  0  0  0  0  0
   -0.0689   -1.4010   -5.6537 N   0  0  0  1  0  0  0  0  0  0  0  0
   -0.0256   -1.9781   -4.3778 N   0  0  0  1  0  0  0  0  0  0  0  0
   -0.7676   -3.0925   -4.1354 C   0  0  0  1  0  0  0  0  0  0  0  0
   -0.8961   -3.5697   -2.8446 C   0  0  0  1  0  0  0  0  0  0  0  0
   -1.6564   -4.7020   -2.5969 C   0  0  0  1  0  0  0  0  0  0  0  0
   -2.2815   -5.3569   -3.6413 C   0  0  0  1  0  0  0  0  0  0  0  0
   -2.1525   -4.8781   -4.9358 C   0  0  0  1  0  0  0  0  0  0  0  0
   -1.3944   -3.7492   -5.1829 C   0  0  0  1  0  0  0  0  0  0  0  0
   -2.9909   -6.4521   -3.2790 O   0  0  0  1  0  0  0  0  0  0  0  0
   -3.6723   -7.1670   -4.3216 C   0  0  0  1  0  0  0  0  0  0  0  0
    3.3977    1.4989   -2.1526 N   0  0  0  1  0  0  0  0  0  0  0  0
    3.9203    1.5560   -0.7635 C   0  0  0  1  0  0  0  0  0  0  0  0
    4.5280    0.2124   -0.3423 C   0  0  0  1  0  0  0  0  0  0  0  0
    5.9501    0.1617   -0.8913 C   0  0  0  1  0  0  0  0  0  0  0  0
    6.3057    1.6584   -1.1969 C   0  0  0  1  0  0  0  0  0  0  0  0
    5.1490    2.5206   -0.6585 C   0  0  0  1  0  0  0  0  0  0  0  0
    6.8876   -0.4071    0.1227 N   0  0  0  1  0  0  0  0  0  0  0  0
    0.9318   -2.0527   -1.6523 H   0  0  0  1  0  0  0  0  0  0  0  0
    0.8528    0.2621   -6.5152 H   0  0  0  1  0  0  0  0  0  0  0  0
   -0.4225   -3.0793   -2.0593 H   0  0  0  1  0  0  0  0  0  0  0  0
   -1.7565   -5.0587   -1.6251 H   0  0  0  1  0  0  0  0  0  0  0  0
   -2.6261   -5.3686   -5.7212 H   0  0  0  1  0  0  0  0  0  0  0  0
   -1.2943   -3.3924   -6.1546 H   0  0  0  1  0  0  0  0  0  0  0  0
   -2.9587   -7.5280   -5.0324 H   0  0  0  1  0  0  0  0  0  0  0  0
   -4.3624   -6.5117   -4.8108 H   0  0  0  1  0  0  0  0  0  0  0  0
   -4.2034   -7.9938   -3.8984 H   0  0  0  1  0  0  0  0  0  0  0  0
    3.7113    2.1913   -2.7712 H   0  0  0  1  0  0  0  0  0  0  0  0
    3.1361    1.8527   -0.0987 H   0  0  0  1  0  0  0  0  0  0  0  0
    3.9509   -0.5926   -0.7474 H   0  0  0  1  0  0  0  0  0  0  0  0
    4.5453    0.1377    0.7249 H   0  0  0  1  0  0  0  0  0  0  0  0
    5.9901   -0.4264   -1.7843 H   0  0  0  1  0  0  0  0  0  0  0  0
    7.2196    1.9250   -0.7085 H   0  0  0  1  0  0  0  0  0  0  0  0
    6.4095    1.8023   -2.2521 H   0  0  0  1  0  0  0  0  0  0  0  0
    5.3250    2.8115    0.3561 H   0  0  0  1  0  0  0  0  0  0  0  0
    5.0063    3.3935   -1.2606 H   0  0  0  1  0  0  0  0  0  0  0  0
    6.5486   -1.2730    0.4321 H   0  0  0  1  0  0  0  0  0  0  0  0
    6.9573    0.2067    0.8833 H   0  0  0  1  0  0  0  0  0  0  0  0
  1  2  4  0  0  0  0
  1  6  4  0  0  0  0
  2  3  4  0  0  0  0
  2 18  1  0  0  0  0
  3  4  4  0  0  0  0
  4  5  4  0  0  0  0
  4  7  4  0  0  0  0
  5  6  4  0  0  0  0
  5  9  4  0  0  0  0
  6 25  1  0  0  0  0
  7  8  4  0  0  0  0
  7 26  1  0  0  0  0
  8  9  4  0  0  0  0
  9 10  1  0  0  0  0
 10 11  4  0  0  0  0
 10 15  4  0  0  0  0
 11 12  4  0  0  0  0
 11 27  1  0  0  0  0
 12 13  4  0  0  0  0
 12 28  1  0  0  0  0
 13 14  4  0  0  0  0
 13 16  1  0  0  0  0
 14 15  4  0  0  0  0
 14 29  1  0  0  0  0
 15 30  1  0  0  0  0
 16 17  1  0  0  0  0
 17 31  1  0  0  0  0
 17 32  1  0  0  0  0
 17 33  1  0  0  0  0
 18 19  1  0  0  0  0
 18 34  1  0  0  0  0
 19 20  1  0  0  0  0
 19 23  1  0  0  0  0
 19 35  1  0  0  0  0
 20 21  1  0  0  0  0
 20 36  1  0  0  0  0
 20 37  1  0  0  0  0
 21 22  1  0  0  0  0
 21 24  1  0  0  0  0
 21 38  1  0  0  0  0
 22 23  1  0  0  0  0
 22 39  1  0  0  0  0
 22 40  1  0  0  0  0
 23 41  1  0  0  0  0
 23 42  1  0  0  0  0
 24 43  1  0  0  0  0
 24 44  1  0  0  0  0
M  END
> <ConfClashScore>
0 

> <ConfOneFourInteractionScore>
-0.985399 

> <ConfScore>
-0.0291039 

> <ConfScorePBest>
0.00311342 

> <ConfTolerance>
0.357957 

$$$$
c13.sdf
 OpenBabel04162418043D

 44 47  0  0  0  0  0  0  0  0999 V2000
    2.1079   -0.3773   -1.8533 N   0  0  0  1  0  0  0  0  0  0  0  0
    2.5364    0.5907   -2.6455 C   0  0  0  1  0  0  0  0  0  0  0  0
    2.1526    0.6996   -3.8969 N   0  0  0  1  0  0  0  0  0  0  0  0
    1.2985   -0.1838   -4.4201 C   0  0  0  1  0  0  0  0  0  0  0  0
    0.8205   -1.2305   -3.6033 C   0  0  0  1  0  0  0  0  0  0  0  0
    1.2616   -1.2959   -2.2849 C   0  0  0  1  0  0  0  0  0  0  0  0
    0.7019   -0.3514   -5.6890 C   0  0  0  1  0  0  0  0  0  0  0  0
   -0.0689   -1.4011   -5.6538 N   0  0  0  1  0  0  0  0  0  0  0  0
   -0.0256   -1.9781   -4.3778 N   0  0  0  1  0  0  0  0  0  0  0  0
   -0.7072   -3.1836   -4.1155 C   0  0  0  1  0  0  0  0  0  0  0  0
   -0.6654   -3.8043   -2.8814 C   0  0  0  1  0  0  0  0  0  0  0  0
   -1.3593   -4.9867   -2.6766 C   0  0  0  1  0  0  0  0  0  0  0  0
   -2.0886   -5.5478   -3.7078 C   0  0  0  1  0  0  0  0  0  0  0  0
   -2.1304   -4.9251   -4.9456 C   0  0  0  1  0  0  0  0  0  0  0  0
   -1.4386   -3.7462   -5.1501 C   0  0  0  1  0  0  0  0  0  0  0  0
   -2.7622   -6.7057   -3.5092 O   0  0  0  1  0  0  0  0  0  0  0  0
   -3.4755   -7.2506   -4.6302 C   0  0  0  1  0  0  0  0  0  0  0  0
    3.4218    1.5244   -2.1388 N   0  0  0  1  0  0  0  0  0  0  0  0
    4.0378    2.4989   -3.0295 C   0  0  0  1  0  0  0  0  0  0  0  0
    2.9943    3.4455   -3.6229 C   0  0  0  1  0  0  0  0  0  0  0  0
    3.7860    4.6887   -4.0434 C   0  0  0  1  0  0  0  0  0  0  0  0
    4.9891    4.7438   -3.0933 C   0  0  0  1  0  0  0  0  0  0  0  0
    4.9427    3.4625   -2.2577 C   0  0  0  1  0  0  0  0  0  0  0  0
    4.2440    4.5627   -5.4611 N   0  0  0  1  0  0  0  0  0  0  0  0
    0.9317   -2.0526   -1.6522 H   0  0  0  1  0  0  0  0  0  0  0  0
    0.8529    0.2620   -6.5152 H   0  0  0  1  0  0  0  0  0  0  0  0
   -0.1134   -3.3843   -2.1065 H   0  0  0  1  0  0  0  0  0  0  0  0
   -1.3312   -5.4517   -1.7467 H   0  0  0  1  0  0  0  0  0  0  0  0
   -2.6824   -5.3451   -5.7206 H   0  0  0  1  0  0  0  0  0  0  0  0
   -1.4667   -3.2813   -6.0799 H   0  0  0  1  0  0  0  0  0  0  0  0
   -4.1803   -6.5302   -4.9896 H   0  0  0  1  0  0  0  0  0  0  0  0
   -3.9940   -8.1359   -4.3265 H   0  0  0  1  0  0  0  0  0  0  0  0
   -2.7834   -7.4917   -5.4098 H   0  0  0  1  0  0  0  0  0  0  0  0
    3.6345    1.5305   -1.1822 H   0  0  0  1  0  0  0  0  0  0  0  0
    4.5800    1.9881   -3.7975 H   0  0  0  1  0  0  0  0  0  0  0  0
    2.5182    2.9978   -4.4701 H   0  0  0  1  0  0  0  0  0  0  0  0
    2.2562    3.6989   -2.8908 H   0  0  0  1  0  0  0  0  0  0  0  0
    3.1856    5.5681   -3.9388 H   0  0  0  1  0  0  0  0  0  0  0  0
    5.9001    4.7872   -3.6530 H   0  0  0  1  0  0  0  0  0  0  0  0
    4.9191    5.6020   -2.4580 H   0  0  0  1  0  0  0  0  0  0  0  0
    5.9242    3.0495   -2.1529 H   0  0  0  1  0  0  0  0  0  0  0  0
    4.5343    3.6631   -1.2893 H   0  0  0  1  0  0  0  0  0  0  0  0
    3.4677    4.4360   -6.0456 H   0  0  0  1  0  0  0  0  0  0  0  0
    4.8437    3.7918   -5.5432 H   0  0  0  1  0  0  0  0  0  0  0  0
  1  2  4  0  0  0  0
  1  6  4  0  0  0  0
  2  3  4  0  0  0  0
  2 18  1  0  0  0  0
  3  4  4  0  0  0  0
  4  5  4  0  0  0  0
  4  7  4  0  0  0  0
  5  6  4  0  0  0  0
  5  9  4  0  0  0  0
  6 25  1  0  0  0  0
  7  8  4  0  0  0  0
  7 26  1  0  0  0  0
  8  9  4  0  0  0  0
  9 10  1  0  0  0  0
 10 11  4  0  0  0  0
 10 15  4  0  0  0  0
 11 12  4  0  0  0  0
 11 27  1  0  0  0  0
 12 13  4  0  0  0  0
 12 28  1  0  0  0  0
 13 14  4  0  0  0  0
 13 16  1  0  0  0  0
 14 15  4  0  0  0  0
 14 29  1  0  0  0  0
 15 30  1  0  0  0  0
 16 17  1  0  0  0  0
 17 31  1  0  0  0  0
 17 32  1  0  0  0  0
 17 33  1  0  0  0  0
 18 19  1  0  0  0  0
 18 34  1  0  0  0  0
 19 20  1  0  0  0  0
 19 23  1  0  0  0  0
 19 35  1  0  0  0  0
 20 21  1  0  0  0  0
 20 36  1  0  0  0  0
 20 37  1  0  0  0  0
 21 22  1  0  0  0  0
 21 24  1  0  0  0  0
 21 38  1  0  0  0  0
 22 23  1  0  0  0  0
 22 39  1  0  0  0  0
 22 40  1  0  0  0  0
 23 41  1  0  0  0  0
 23 42  1  0  0  0  0
 24 43  1  0  0  0  0
 24 44  1  0  0  0  0
M  END
> <ConfClashScore>
0 

> <ConfOneFourInteractionScore>
-0.981848 

> <ConfScore>
-0.0291039 

> <ConfScorePBest>
0.00310009 

> <ConfTolerance>
0.328385 

$$$$
c13.sdf
 OpenBabel04162418043D

 44 47  0  0  0  0  0  0  0  0999 V2000
    2.1080   -0.3774   -1.8533 N   0  0  0  1  0  0  0  0  0  0  0  0
    2.5364    0.5907   -2.6455 C   0  0  0  1  0  0  0  0  0  0  0  0
    2.1526    0.6996   -3.8968 N   0  0  0  1  0  0  0  0  0  0  0  0
    1.2986   -0.1838   -4.4201 C   0  0  0  1  0  0  0  0  0  0  0  0
    0.8205   -1.2305   -3.6033 C   0  0  0  1  0  0  0  0  0  0  0  0
    1.2616   -1.2961   -2.2850 C   0  0  0  1  0  0  0  0  0  0  0  0
    0.7019   -0.3512   -5.6890 C   0  0  0  1  0  0  0  0  0  0  0  0
   -0.0689   -1.4010   -5.6538 N   0  0  0  1  0  0  0  0  0  0  0  0
   -0.0256   -1.9781   -4.3778 N   0  0  0  1  0  0  0  0  0  0  0  0
   -0.7943   -3.1326   -4.1267 C   0  0  0  1  0  0  0  0  0  0  0  0
   -0.1247   -4.2726   -3.7241 C   0  0  0  1  0  0  0  0  0  0  0  0
   -0.8325   -5.4345   -3.4584 C   0  0  0  1  0  0  0  0  0  0  0  0
   -2.2070   -5.4546   -3.6015 C   0  0  0  1  0  0  0  0  0  0  0  0
   -2.8784   -4.3111   -4.0054 C   0  0  0  1  0  0  0  0  0  0  0  0
   -2.1728   -3.1524   -4.2702 C   0  0  0  1  0  0  0  0  0  0  0  0
   -2.7881   -6.6449   -3.3196 O   0  0  0  1  0  0  0  0  0  0  0  0
   -4.2149   -6.6562   -3.1564 C   0  0  0  1  0  0  0  0  0  0  0  0
    3.4219    1.5243   -2.1388 N   0  0  0  1  0  0  0  0  0  0  0  0
    3.9482    1.3695   -0.7797 C   0  0  0  1  0  0  0  0  0  0  0  0
    5.2444    0.4759   -0.7680 C   0  0  0  1  0  0  0  0  0  0  0  0
    5.8918    0.8959    0.5907 C   0  0  0  1  0  0  0  0  0  0  0  0
    5.4817    2.3477    0.8461 C   0  0  0  1  0  0  0  0  0  0  0  0
    4.4659    2.6933   -0.2342 C   0  0  0  1  0  0  0  0  0  0  0  0
    5.3885    0.0151    1.6964 N   0  0  0  1  0  0  0  0  0  0  0  0
    0.9318   -2.0527   -1.6523 H   0  0  0  1  0  0  0  0  0  0  0  0
    0.8529    0.2621   -6.5151 H   0  0  0  1  0  0  0  0  0  0  0  0
    0.9100   -4.2587   -3.6202 H   0  0  0  1  0  0  0  0  0  0  0  0
   -0.3291   -6.2913   -3.1515 H   0  0  0  1  0  0  0  0  0  0  0  0
   -3.9131   -4.3248   -4.1091 H   0  0  0  1  0  0  0  0  0  0  0  0
   -2.6761   -2.2957   -4.5771 H   0  0  0  1  0  0  0  0  0  0  0  0
   -4.6504   -5.8935   -3.7677 H   0  0  0  1  0  0  0  0  0  0  0  0
   -4.4577   -6.4727   -2.1306 H   0  0  0  1  0  0  0  0  0  0  0  0
   -4.5996   -7.6107   -3.4492 H   0  0  0  1  0  0  0  0  0  0  0  0
    3.6969    2.2882   -2.6876 H   0  0  0  1  0  0  0  0  0  0  0  0
    3.1887    0.9596   -0.1472 H   0  0  0  1  0  0  0  0  0  0  0  0
    5.0020   -0.5662   -0.7809 H   0  0  0  1  0  0  0  0  0  0  0  0
    5.8850    0.7039   -1.5943 H   0  0  0  1  0  0  0  0  0  0  0  0
    6.9573    0.8194    0.5301 H   0  0  0  1  0  0  0  0  0  0  0  0
    6.3330    2.9921    0.7757 H   0  0  0  1  0  0  0  0  0  0  0  0
    5.0401    2.4440    1.8159 H   0  0  0  1  0  0  0  0  0  0  0  0
    4.9335    3.2570   -1.0143 H   0  0  0  1  0  0  0  0  0  0  0  0
    3.6609    3.2611    0.1835 H   0  0  0  1  0  0  0  0  0  0  0  0
    5.5391   -0.9242    1.4607 H   0  0  0  1  0  0  0  0  0  0  0  0
    4.4295    0.1694    1.8259 H   0  0  0  1  0  0  0  0  0  0  0  0
  1  2  4  0  0  0  0
  1  6  4  0  0  0  0
  2  3  4  0  0  0  0
  2 18  1  0  0  0  0
  3  4  4  0  0  0  0
  4  5  4  0  0  0  0
  4  7  4  0  0  0  0
  5  6  4  0  0  0  0
  5  9  4  0  0  0  0
  6 25  1  0  0  0  0
  7  8  4  0  0  0  0
  7 26  1  0  0  0  0
  8  9  4  0  0  0  0
  9 10  1  0  0  0  0
 10 11  4  0  0  0  0
 10 15  4  0  0  0  0
 11 12  4  0  0  0  0
 11 27  1  0  0  0  0
 12 13  4  0  0  0  0
 12 28  1  0  0  0  0
 13 14  4  0  0  0  0
 13 16  1  0  0  0  0
 14 15  4  0  0  0  0
 14 29  1  0  0  0  0
 15 30  1  0  0  0  0
 16 17  1  0  0  0  0
 17 31  1  0  0  0  0
 17 32  1  0  0  0  0
 17 33  1  0  0  0  0
 18 19  1  0  0  0  0
 18 34  1  0  0  0  0
 19 20  1  0  0  0  0
 19 23  1  0  0  0  0
 19 35  1  0  0  0  0
 20 21  1  0  0  0  0
 20 36  1  0  0  0  0
 20 37  1  0  0  0  0
 21 22  1  0  0  0  0
 21 24  1  0  0  0  0
 21 38  1  0  0  0  0
 22 23  1  0  0  0  0
 22 39  1  0  0  0  0
 22 40  1  0  0  0  0
 23 41  1  0  0  0  0
 23 42  1  0  0  0  0
 24 43  1  0  0  0  0
 24 44  1  0  0  0  0
M  END
> <ConfClashScore>
0 

> <ConfOneFourInteractionScore>
-0.984337 

> <ConfScore>
-0.0287373 

> <ConfScorePBest>
0.00308676 

> <ConfTolerance>
0.308322 

$$$$
c13.sdf
 OpenBabel04162418043D

 44 47  0  0  0  0  0  0  0  0999 V2000
    2.1079   -0.3773   -1.8533 N   0  0  0  1  0  0  0  0  0  0  0  0
    2.5364    0.5907   -2.6455 C   0  0  0  1  0  0  0  0  0  0  0  0
    2.1525    0.6996   -3.8968 N   0  0  0  1  0  0  0  0  0  0  0  0
    1.2985   -0.1838   -4.4201 C   0  0  0  1  0  0  0  0  0  0  0  0
    0.8204   -1.2305   -3.6034 C   0  0  0  1  0  0  0  0  0  0  0  0
    1.2615   -1.2960   -2.2849 C   0  0  0  1  0  0  0  0  0  0  0  0
    0.7019   -0.3513   -5.6890 C   0  0  0  1  0  0  0  0  0  0  0  0
   -0.0689   -1.4010   -5.6537 N   0  0  0  1  0  0  0  0  0  0  0  0
   -0.0256   -1.9781   -4.3778 N   0  0  0  1  0  0  0  0  0  0  0  0
   -0.7842   -3.1425   -4.0797 C   0  0  0  1  0  0  0  0  0  0  0  0
   -0.1425   -4.3441   -3.8459 C   0  0  0  1  0  0  0  0  0  0  0  0
   -0.8822   -5.4784   -3.5500 C   0  0  0  1  0  0  0  0  0  0  0  0
   -2.2614   -5.4092   -3.4938 C   0  0  0  1  0  0  0  0  0  0  0  0
   -2.9048   -4.2039   -3.7284 C   0  0  0  1  0  0  0  0  0  0  0  0
   -2.1674   -3.0728   -4.0235 C   0  0  0  1  0  0  0  0  0  0  0  0
   -3.0398   -6.4777   -3.2160 O   0  0  0  1  0  0  0  0  0  0  0  0
   -4.4387   -6.2846   -2.9547 C   0  0  0  1  0  0  0  0  0  0  0  0
    3.4218    1.5243   -2.1389 N   0  0  0  1  0  0  0  0  0  0  0  0
    3.7284    1.5377   -0.7058 C   0  0  0  1  0  0  0  0  0  0  0  0
    5.0767    2.2853   -0.4515 C   0  0  0  1  0  0  0  0  0  0  0  0
    4.5754    3.7652   -0.2573 C   0  0  0  1  0  0  0  0  0  0  0  0
    3.3155    3.5706    0.5752 C   0  0  0  1  0  0  0  0  0  0  0  0
    2.6464    2.3049    0.0570 C   0  0  0  1  0  0  0  0  0  0  0  0
    5.5720    4.5767    0.4636 N   0  0  0  1  0  0  0  0  0  0  0  0
    0.9316   -2.0526   -1.6522 H   0  0  0  1  0  0  0  0  0  0  0  0
    0.8529    0.2620   -6.5152 H   0  0  0  1  0  0  0  0  0  0  0  0
    0.8951   -4.3971   -3.8921 H   0  0  0  1  0  0  0  0  0  0  0  0
   -0.3992   -6.3817   -3.3700 H   0  0  0  1  0  0  0  0  0  0  0  0
   -3.9424   -4.1507   -3.6822 H   0  0  0  1  0  0  0  0  0  0  0  0
   -2.6504   -2.1694   -4.2033 H   0  0  0  1  0  0  0  0  0  0  0  0
   -4.9947   -6.4366   -3.8563 H   0  0  0  1  0  0  0  0  0  0  0  0
   -4.6008   -5.2884   -2.5996 H   0  0  0  1  0  0  0  0  0  0  0  0
   -4.7630   -6.9852   -2.2138 H   0  0  0  1  0  0  0  0  0  0  0  0
    3.8434    2.1760   -2.7370 H   0  0  0  1  0  0  0  0  0  0  0  0
    3.7910    0.5325   -0.3445 H   0  0  0  1  0  0  0  0  0  0  0  0
    5.7353    2.2018   -1.2905 H   0  0  0  1  0  0  0  0  0  0  0  0
    5.5679    1.9199    0.4261 H   0  0  0  1  0  0  0  0  0  0  0  0
    4.3521    4.2256   -1.1970 H   0  0  0  1  0  0  0  0  0  0  0  0
    3.5691    3.4579    1.6086 H   0  0  0  1  0  0  0  0  0  0  0  0
    2.6614    4.4091    0.4574 H   0  0  0  1  0  0  0  0  0  0  0  0
    1.8365    2.5536   -0.5965 H   0  0  0  1  0  0  0  0  0  0  0  0
    2.2797    1.7177    0.8729 H   0  0  0  1  0  0  0  0  0  0  0  0
    5.2377    5.4925    0.5638 H   0  0  0  1  0  0  0  0  0  0  0  0
    6.4110    4.5892   -0.0429 H   0  0  0  1  0  0  0  0  0  0  0  0
  1  2  4  0  0  0  0
  1  6  4  0  0  0  0
  2  3  4  0  0  0  0
  2 18  1  0  0  0  0
  3  4  4  0  0  0  0
  4  5  4  0  0  0  0
  4  7  4  0  0  0  0
  5  6  4  0  0  0  0
  5  9  4  0  0  0  0
  6 25  1  0  0  0  0
  7  8  4  0  0  0  0
  7 26  1  0  0  0  0
  8  9  4  0  0  0  0
  9 10  1  0  0  0  0
 10 11  4  0  0  0  0
 10 15  4  0  0  0  0
 11 12  4  0  0  0  0
 11 27  1  0  0  0  0
 12 13  4  0  0  0  0
 12 28  1  0  0  0  0
 13 14  4  0  0  0  0
 13 16  1  0  0  0  0
 14 15  4  0  0  0  0
 14 29  1  0  0  0  0
 15 30  1  0  0  0  0
 16 17  1  0  0  0  0
 17 31  1  0  0  0  0
 17 32  1  0  0  0  0
 17 33  1  0  0  0  0
 18 19  1  0  0  0  0
 18 34  1  0  0  0  0
 19 20  1  0  0  0  0
 19 23  1  0  0  0  0
 19 35  1  0  0  0  0
 20 21  1  0  0  0  0
 20 36  1  0  0  0  0
 20 37  1  0  0  0  0
 21 22  1  0  0  0  0
 21 24  1  0  0  0  0
 21 38  1  0  0  0  0
 22 23  1  0  0  0  0
 22 39  1  0  0  0  0
 22 40  1  0  0  0  0
 23 41  1  0  0  0  0
 23 42  1  0  0  0  0
 24 43  1  0  0  0  0
 24 44  1  0  0  0  0
M  END
> <ConfClashScore>
0 

> <ConfOneFourInteractionScore>
-0.984337 

> <ConfScore>
-0.028398 

> <ConfScorePBest>
0.00307343 

> <ConfTolerance>
0.354978 

$$$$
c13.sdf
 OpenBabel04162418043D

 44 47  0  0  0  0  0  0  0  0999 V2000
    2.1079   -0.3774   -1.8532 N   0  0  0  1  0  0  0  0  0  0  0  0
    2.5363    0.5907   -2.6455 C   0  0  0  1  0  0  0  0  0  0  0  0
    2.1526    0.6997   -3.8968 N   0  0  0  1  0  0  0  0  0  0  0  0
    1.2986   -0.1837   -4.4201 C   0  0  0  1  0  0  0  0  0  0  0  0
    0.8205   -1.2304   -3.6034 C   0  0  0  1  0  0  0  0  0  0  0  0
    1.2615   -1.2959   -2.2849 C   0  0  0  1  0  0  0  0  0  0  0  0
    0.7020   -0.3513   -5.6890 C   0  0  0  1  0  0  0  0  0  0  0  0
   -0.0689   -1.4010   -5.6537 N   0  0  0  1  0  0  0  0  0  0  0  0
   -0.0256   -1.9781   -4.3778 N   0  0  0  1  0  0  0  0  0  0  0  0
   -0.7857   -3.1446   -4.0791 C   0  0  0  1  0  0  0  0  0  0  0  0
   -2.1663   -3.0806   -4.0680 C   0  0  0  1  0  0  0  0  0  0  0  0
   -2.9119   -4.2331   -3.8748 C   0  0  0  1  0  0  0  0  0  0  0  0
   -2.2748   -5.4453   -3.6880 C   0  0  0  1  0  0  0  0  0  0  0  0
   -0.8902   -5.5095   -3.6992 C   0  0  0  1  0  0  0  0  0  0  0  0
   -0.1465   -4.3604   -3.8918 C   0  0  0  1  0  0  0  0  0  0  0  0
   -2.8947   -6.6322   -3.4857 O   0  0  0  1  0  0  0  0  0  0  0  0
   -4.3307   -6.6267   -3.4608 C   0  0  0  1  0  0  0  0  0  0  0  0
    3.4219    1.5243   -2.1389 N   0  0  0  1  0  0  0  0  0  0  0  0
    3.7786    1.4966   -0.7176 C   0  0  0  1  0  0  0  0  0  0  0  0
    5.1555    2.1306   -0.5060 C   0  0  0  1  0  0  0  0  0  0  0  0
    5.0241    2.9924    0.7521 C   0  0  0  1  0  0  0  0  0  0  0  0
    3.5941    3.5193    0.6313 C   0  0  0  1  0  0  0  0  0  0  0  0
    2.7832    2.3347    0.0947 C   0  0  0  1  0  0  0  0  0  0  0  0
    5.1962    2.1816    1.9793 N   0  0  0  1  0  0  0  0  0  0  0  0
    0.9316   -2.0526   -1.6522 H   0  0  0  1  0  0  0  0  0  0  0  0
    0.8530    0.2620   -6.5153 H   0  0  0  1  0  0  0  0  0  0  0  0
   -2.6457   -2.1679   -4.2046 H   0  0  0  1  0  0  0  0  0  0  0  0
   -3.9508   -4.1856   -3.8704 H   0  0  0  1  0  0  0  0  0  0  0  0
   -0.4107   -6.4222   -3.5627 H   0  0  0  1  0  0  0  0  0  0  0  0
    0.8924   -4.4078   -3.8961 H   0  0  0  1  0  0  0  0  0  0  0  0
   -4.7054   -7.0161   -4.3843 H   0  0  0  1  0  0  0  0  0  0  0  0
   -4.6809   -5.6243   -3.3286 H   0  0  0  1  0  0  0  0  0  0  0  0
   -4.6754   -7.2354   -2.6512 H   0  0  0  1  0  0  0  0  0  0  0  0
    3.8102    2.2033   -2.7292 H   0  0  0  1  0  0  0  0  0  0  0  0
    3.7802    0.4849   -0.3695 H   0  0  0  1  0  0  0  0  0  0  0  0
    5.4207    2.7362   -1.3472 H   0  0  0  1  0  0  0  0  0  0  0  0
    5.8972    1.3727   -0.3634 H   0  0  0  1  0  0  0  0  0  0  0  0
    5.7343    3.7927    0.7504 H   0  0  0  1  0  0  0  0  0  0  0  0
    3.2241    3.8268    1.5871 H   0  0  0  1  0  0  0  0  0  0  0  0
    3.5527    4.3435   -0.0497 H   0  0  0  1  0  0  0  0  0  0  0  0
    2.3810    1.7596    0.9024 H   0  0  0  1  0  0  0  0  0  0  0  0
    1.9859    2.6791   -0.5304 H   0  0  0  1  0  0  0  0  0  0  0  0
    5.0485    2.7452    2.7672 H   0  0  0  1  0  0  0  0  0  0  0  0
    6.1055    1.8167    2.0046 H   0  0  0  1  0  0  0  0  0  0  0  0
  1  2  4  0  0  0  0
  1  6  4  0  0  0  0
  2  3  4  0  0  0  0
  2 18  1  0  0  0  0
  3  4  4  0  0  0  0
  4  5  4  0  0  0  0
  4  7  4  0  0  0  0
  5  6  4  0  0  0  0
  5  9  4  0  0  0  0
  6 25  1  0  0  0  0
  7  8  4  0  0  0  0
  7 26  1  0  0  0  0
  8  9  4  0  0  0  0
  9 10  1  0  0  0  0
 10 11  4  0  0  0  0
 10 15  4  0  0  0  0
 11 12  4  0  0  0  0
 11 27  1  0  0  0  0
 12 13  4  0  0  0  0
 12 28  1  0  0  0  0
 13 14  4  0  0  0  0
 13 16  1  0  0  0  0
 14 15  4  0  0  0  0
 14 29  1  0  0  0  0
 15 30  1  0  0  0  0
 16 17  1  0  0  0  0
 17 31  1  0  0  0  0
 17 32  1  0  0  0  0
 17 33  1  0  0  0  0
 18 19  1  0  0  0  0
 18 34  1  0  0  0  0
 19 20  1  0  0  0  0
 19 23  1  0  0  0  0
 19 35  1  0  0  0  0
 20 21  1  0  0  0  0
 20 36  1  0  0  0  0
 20 37  1  0  0  0  0
 21 22  1  0  0  0  0
 21 24  1  0  0  0  0
 21 38  1  0  0  0  0
 22 23  1  0  0  0  0
 22 39  1  0  0  0  0
 22 40  1  0  0  0  0
 23 41  1  0  0  0  0
 23 42  1  0  0  0  0
 24 43  1  0  0  0  0
 24 44  1  0  0  0  0
M  END
> <ConfClashScore>
0 

> <ConfOneFourInteractionScore>
-0.984337 

> <ConfScore>
-0.028398 

> <ConfScorePBest>
0.00306011 

> <ConfTolerance>
0.40851 

$$$$
c13.sdf
 OpenBabel04162418043D

 44 47  0  0  0  0  0  0  0  0999 V2000
    2.1079   -0.3773   -1.8532 N   0  0  0  1  0  0  0  0  0  0  0  0
    2.5363    0.5907   -2.6455 C   0  0  0  1  0  0  0  0  0  0  0  0
    2.1526    0.6997   -3.8968 N   0  0  0  1  0  0  0  0  0  0  0  0
    1.2986   -0.1837   -4.4201 C   0  0  0  1  0  0  0  0  0  0  0  0
    0.8205   -1.2305   -3.6033 C   0  0  0  1  0  0  0  0  0  0  0  0
    1.2616   -1.2960   -2.2849 C   0  0  0  1  0  0  0  0  0  0  0  0
    0.7019   -0.3512   -5.6890 C   0  0  0  1  0  0  0  0  0  0  0  0
   -0.0689   -1.4010   -5.6538 N   0  0  0  1  0  0  0  0  0  0  0  0
   -0.0256   -1.9781   -4.3778 N   0  0  0  1  0  0  0  0  0  0  0  0
   -0.6838   -3.1866   -4.0726 C   0  0  0  1  0  0  0  0  0  0  0  0
   -0.0003   -4.3692   -3.8627 C   0  0  0  1  0  0  0  0  0  0  0  0
   -0.6977   -5.5283   -3.5601 C   0  0  0  1  0  0  0  0  0  0  0  0
   -2.0768   -5.5026   -3.4734 C   0  0  0  1  0  0  0  0  0  0  0  0
   -2.7623   -4.3162   -3.6839 C   0  0  0  1  0  0  0  0  0  0  0  0
   -2.0670   -3.1604   -3.9857 C   0  0  0  1  0  0  0  0  0  0  0  0
   -2.6478   -6.6944   -3.1776 O   0  0  0  1  0  0  0  0  0  0  0  0
   -4.0740   -6.7152   -3.0102 C   0  0  0  1  0  0  0  0  0  0  0  0
    3.4204    1.4994   -2.0924 N   0  0  0  1  0  0  0  0  0  0  0  0
    4.0148    2.5036   -2.9795 C   0  0  0  1  0  0  0  0  0  0  0  0
    2.9298    3.3705   -3.5988 C   0  0  0  1  0  0  0  0  0  0  0  0
    3.2752    4.8410   -3.3123 C   0  0  0  1  0  0  0  0  0  0  0  0
    4.7418    4.7828   -2.9220 C   0  0  0  1  0  0  0  0  0  0  0  0
    4.9145    3.4623   -2.1763 C   0  0  0  1  0  0  0  0  0  0  0  0
    3.0792    5.6796   -4.5225 N   0  0  0  1  0  0  0  0  0  0  0  0
    0.9317   -2.0526   -1.6522 H   0  0  0  1  0  0  0  0  0  0  0  0
    0.8529    0.2620   -6.5152 H   0  0  0  1  0  0  0  0  0  0  0  0
    1.0372   -4.3896   -3.9319 H   0  0  0  1  0  0  0  0  0  0  0  0
   -0.1831   -6.4175   -3.3982 H   0  0  0  1  0  0  0  0  0  0  0  0
   -3.7998   -4.2958   -3.6147 H   0  0  0  1  0  0  0  0  0  0  0  0
   -2.5816   -2.2712   -4.1476 H   0  0  0  1  0  0  0  0  0  0  0  0
   -4.3483   -6.0695   -2.2022 H   0  0  0  1  0  0  0  0  0  0  0  0
   -4.3929   -7.7131   -2.7930 H   0  0  0  1  0  0  0  0  0  0  0  0
   -4.5436   -6.3782   -3.9108 H   0  0  0  1  0  0  0  0  0  0  0  0
    3.6422    1.4727   -1.1383 H   0  0  0  1  0  0  0  0  0  0  0  0
    4.5816    2.0143   -3.7439 H   0  0  0  1  0  0  0  0  0  0  0  0
    1.9814    3.1294   -3.1659 H   0  0  0  1  0  0  0  0  0  0  0  0
    2.8925    3.2056   -4.6554 H   0  0  0  1  0  0  0  0  0  0  0  0
    2.6799    5.2258   -2.5108 H   0  0  0  1  0  0  0  0  0  0  0  0
    5.3616    4.8033   -3.7940 H   0  0  0  1  0  0  0  0  0  0  0  0
    4.9922    5.6064   -2.2864 H   0  0  0  1  0  0  0  0  0  0  0  0
    4.5827    3.5451   -1.1624 H   0  0  0  1  0  0  0  0  0  0  0  0
    5.9345    3.1398   -2.1930 H   0  0  0  1  0  0  0  0  0  0  0  0
    3.4761    5.2318   -5.2986 H   0  0  0  1  0  0  0  0  0  0  0  0
    3.5118    6.5490   -4.3908 H   0  0  0  1  0  0  0  0  0  0  0  0
  1  2  4  0  0  0  0
  1  6  4  0  0  0  0
  2  3  4  0  0  0  0
  2 18  1  0  0  0  0
  3  4  4  0  0  0  0
  4  5  4  0  0  0  0
  4  7  4  0  0  0  0
  5  6  4  0  0  0  0
  5  9  4  0  0  0  0
  6 25  1  0  0  0  0
  7  8  4  0  0  0  0
  7 26  1  0  0  0  0
  8  9  4  0  0  0  0
  9 10  1  0  0  0  0
 10 11  4  0  0  0  0
 10 15  4  0  0  0  0
 11 12  4  0  0  0  0
 11 27  1  0  0  0  0
 12 13  4  0  0  0  0
 12 28  1  0  0  0  0
 13 14  4  0  0  0  0
 13 16  1  0  0  0  0
 14 15  4  0  0  0  0
 14 29  1  0  0  0  0
 15 30  1  0  0  0  0
 16 17  1  0  0  0  0
 17 31  1  0  0  0  0
 17 32  1  0  0  0  0
 17 33  1  0  0  0  0
 18 19  1  0  0  0  0
 18 34  1  0  0  0  0
 19 20  1  0  0  0  0
 19 23  1  0  0  0  0
 19 35  1  0  0  0  0
 20 21  1  0  0  0  0
 20 36  1  0  0  0  0
 20 37  1  0  0  0  0
 21 22  1  0  0  0  0
 21 24  1  0  0  0  0
 21 38  1  0  0  0  0
 22 23  1  0  0  0  0
 22 39  1  0  0  0  0
 22 40  1  0  0  0  0
 23 41  1  0  0  0  0
 23 42  1  0  0  0  0
 24 43  1  0  0  0  0
 24 44  1  0  0  0  0
M  END
> <ConfClashScore>
0 

> <ConfOneFourInteractionScore>
-0.981848 

> <ConfScore>
-0.0277886 

> <ConfScorePBest>
0.00304678 

> <ConfTolerance>
0.359258 

$$$$
c13.sdf
 OpenBabel04162418043D

 44 47  0  0  0  0  0  0  0  0999 V2000
    2.1080   -0.3773   -1.8533 N   0  0  0  1  0  0  0  0  0  0  0  0
    2.5363    0.5907   -2.6455 C   0  0  0  1  0  0  0  0  0  0  0  0
    2.1525    0.6996   -3.8969 N   0  0  0  1  0  0  0  0  0  0  0  0
    1.2985   -0.1837   -4.4201 C   0  0  0  1  0  0  0  0  0  0  0  0
    0.8205   -1.2305   -3.6034 C   0  0  0  1  0  0  0  0  0  0  0  0
    1.2616   -1.2960   -2.2850 C   0  0  0  1  0  0  0  0  0  0  0  0
    0.7018   -0.3513   -5.6889 C   0  0  0  1  0  0  0  0  0  0  0  0
   -0.0690   -1.4010   -5.6538 N   0  0  0  1  0  0  0  0  0  0  0  0
   -0.0256   -1.9781   -4.3778 N   0  0  0  1  0  0  0  0  0  0  0  0
   -0.8609   -3.0770   -4.0691 C   0  0  0  1  0  0  0  0  0  0  0  0
   -1.1599   -4.0124   -5.0416 C   0  0  0  1  0  0  0  0  0  0  0  0
   -1.9741   -5.0921   -4.7375 C   0  0  0  1  0  0  0  0  0  0  0  0
   -2.4914   -5.2307   -3.4634 C   0  0  0  1  0  0  0  0  0  0  0  0
   -2.1914   -4.2924   -2.4880 C   0  0  0  1  0  0  0  0  0  0  0  0
   -1.3795   -3.2158   -2.7910 C   0  0  0  1  0  0  0  0  0  0  0  0
   -3.2991   -6.2367   -3.0517 O   0  0  0  1  0  0  0  0  0  0  0  0
   -3.8094   -7.1228   -4.0601 C   0  0  0  1  0  0  0  0  0  0  0  0
    3.3914    1.4695   -2.1106 N   0  0  0  1  0  0  0  0  0  0  0  0
    4.0205    2.6010   -2.7981 C   0  0  0  1  0  0  0  0  0  0  0  0
    4.5276    3.6449   -1.8002 C   0  0  0  1  0  0  0  0  0  0  0  0
    5.8998    3.1453   -1.3418 C   0  0  0  1  0  0  0  0  0  0  0  0
    6.3638    2.1240   -2.3879 C   0  0  0  1  0  0  0  0  0  0  0  0
    5.3105    2.1760   -3.5000 C   0  0  0  1  0  0  0  0  0  0  0  0
    6.8576    4.2745   -1.2689 N   0  0  0  1  0  0  0  0  0  0  0  0
    0.9318   -2.0527   -1.6522 H   0  0  0  1  0  0  0  0  0  0  0  0
    0.8528    0.2621   -6.5152 H   0  0  0  1  0  0  0  0  0  0  0  0
   -0.7741   -3.9061   -6.0015 H   0  0  0  1  0  0  0  0  0  0  0  0
   -2.1960   -5.7982   -5.4682 H   0  0  0  1  0  0  0  0  0  0  0  0
   -2.5772   -4.3987   -1.5280 H   0  0  0  1  0  0  0  0  0  0  0  0
   -1.1578   -2.5097   -2.0604 H   0  0  0  1  0  0  0  0  0  0  0  0
   -2.9975   -7.6482   -4.5180 H   0  0  0  1  0  0  0  0  0  0  0  0
   -4.3307   -6.5555   -4.8025 H   0  0  0  1  0  0  0  0  0  0  0  0
   -4.4802   -7.8252   -3.6110 H   0  0  0  1  0  0  0  0  0  0  0  0
    3.6196    1.3446   -1.1659 H   0  0  0  1  0  0  0  0  0  0  0  0
    3.3257    3.0301   -3.4894 H   0  0  0  1  0  0  0  0  0  0  0  0
    4.6174    4.6006   -2.2731 H   0  0  0  1  0  0  0  0  0  0  0  0
    3.8604    3.7199   -0.9671 H   0  0  0  1  0  0  0  0  0  0  0  0
    5.8217    2.6808   -0.3811 H   0  0  0  1  0  0  0  0  0  0  0  0
    6.4090    1.1441   -1.9604 H   0  0  0  1  0  0  0  0  0  0  0  0
    7.3264    2.3912   -2.7711 H   0  0  0  1  0  0  0  0  0  0  0  0
    5.1932    1.2137   -3.9529 H   0  0  0  1  0  0  0  0  0  0  0  0
    5.5862    2.8910   -4.2466 H   0  0  0  1  0  0  0  0  0  0  0  0
    7.7600    3.9282   -1.1080 H   0  0  0  1  0  0  0  0  0  0  0  0
    6.6020    4.8727   -0.5360 H   0  0  0  1  0  0  0  0  0  0  0  0
  1  2  4  0  0  0  0
  1  6  4  0  0  0  0
  2  3  4  0  0  0  0
  2 18  1  0  0  0  0
  3  4  4  0  0  0  0
  4  5  4  0  0  0  0
  4  7  4  0  0  0  0
  5  6  4  0  0  0  0
  5  9  4  0  0  0  0
  6 25  1  0  0  0  0
  7  8  4  0  0  0  0
  7 26  1  0  0  0  0
  8  9  4  0  0  0  0
  9 10  1  0  0  0  0
 10 11  4  0  0  0  0
 10 15  4  0  0  0  0
 11 12  4  0  0  0  0
 11 27  1  0  0  0  0
 12 13  4  0  0  0  0
 12 28  1  0  0  0  0
 13 14  4  0  0  0  0
 13 16  1  0  0  0  0
 14 15  4  0  0  0  0
 14 29  1  0  0  0  0
 15 30  1  0  0  0  0
 16 17  1  0  0  0  0
 17 31  1  0  0  0  0
 17 32  1  0  0  0  0
 17 33  1  0  0  0  0
 18 19  1  0  0  0  0
 18 34  1  0  0  0  0
 19 20  1  0  0  0  0
 19 23  1  0  0  0  0
 19 35  1  0  0  0  0
 20 21  1  0  0  0  0
 20 36  1  0  0  0  0
 20 37  1  0  0  0  0
 21 22  1  0  0  0  0
 21 24  1  0  0  0  0
 21 38  1  0  0  0  0
 22 23  1  0  0  0  0
 22 39  1  0  0  0  0
 22 40  1  0  0  0  0
 23 41  1  0  0  0  0
 23 42  1  0  0  0  0
 24 43  1  0  0  0  0
 24 44  1  0  0  0  0
M  END
> <ConfClashScore>
0 

> <ConfOneFourInteractionScore>
-0.984337 

> <ConfScore>
-0.0273772 

> <ConfScorePBest>
0.00303345 

> <ConfTolerance>
0.47497 

$$$$
c13.sdf
 OpenBabel04162418043D

 44 47  0  0  0  0  0  0  0  0999 V2000
    2.1080   -0.3774   -1.8532 N   0  0  0  1  0  0  0  0  0  0  0  0
    2.5364    0.5907   -2.6455 C   0  0  0  1  0  0  0  0  0  0  0  0
    2.1525    0.6997   -3.8968 N   0  0  0  1  0  0  0  0  0  0  0  0
    1.2986   -0.1837   -4.4201 C   0  0  0  1  0  0  0  0  0  0  0  0
    0.8204   -1.2305   -3.6033 C   0  0  0  1  0  0  0  0  0  0  0  0
    1.2615   -1.2961   -2.2850 C   0  0  0  1  0  0  0  0  0  0  0  0
    0.7018   -0.3513   -5.6890 C   0  0  0  1  0  0  0  0  0  0  0  0
   -0.0690   -1.4010   -5.6538 N   0  0  0  1  0  0  0  0  0  0  0  0
   -0.0256   -1.9781   -4.3778 N   0  0  0  1  0  0  0  0  0  0  0  0
   -0.7744   -3.1274   -4.0836 C   0  0  0  1  0  0  0  0  0  0  0  0
   -1.1620   -3.5068   -2.8124 C   0  0  0  1  0  0  0  0  0  0  0  0
   -1.9070   -4.6615   -2.6308 C   0  0  0  1  0  0  0  0  0  0  0  0
   -2.2578   -5.4363   -3.7203 C   0  0  0  1  0  0  0  0  0  0  0  0
   -1.8690   -5.0556   -4.9952 C   0  0  0  1  0  0  0  0  0  0  0  0
   -1.1261   -3.9043   -5.1764 C   0  0  0  1  0  0  0  0  0  0  0  0
   -2.9813   -6.5543   -3.4741 O   0  0  0  1  0  0  0  0  0  0  0  0
   -3.2013   -7.4492   -4.5754 C   0  0  0  1  0  0  0  0  0  0  0  0
    3.3976    1.4989   -2.1527 N   0  0  0  1  0  0  0  0  0  0  0  0
    3.9620    1.5185   -0.8022 C   0  0  0  1  0  0  0  0  0  0  0  0
    5.1722    2.4490   -0.7202 C   0  0  0  1  0  0  0  0  0  0  0  0
    5.2956    2.8026    0.7659 C   0  0  0  1  0  0  0  0  0  0  0  0
    3.8703    2.7081    1.3250 C   0  0  0  1  0  0  0  0  0  0  0  0
    2.9950    2.1617    0.1946 C   0  0  0  1  0  0  0  0  0  0  0  0
    6.1945    1.8343    1.4605 N   0  0  0  1  0  0  0  0  0  0  0  0
    0.9318   -2.0527   -1.6522 H   0  0  0  1  0  0  0  0  0  0  0  0
    0.8529    0.2621   -6.5152 H   0  0  0  1  0  0  0  0  0  0  0  0
   -0.8946   -2.9260   -1.9921 H   0  0  0  1  0  0  0  0  0  0  0  0
   -2.2021   -4.9449   -1.6746 H   0  0  0  1  0  0  0  0  0  0  0  0
   -2.1363   -5.6364   -5.8154 H   0  0  0  1  0  0  0  0  0  0  0  0
   -0.8310   -3.6209   -6.1326 H   0  0  0  1  0  0  0  0  0  0  0  0
   -3.9291   -7.0287   -5.2376 H   0  0  0  1  0  0  0  0  0  0  0  0
   -3.5563   -8.3886   -4.2059 H   0  0  0  1  0  0  0  0  0  0  0  0
   -2.2824   -7.5973   -5.1034 H   0  0  0  1  0  0  0  0  0  0  0  0
    3.6746    2.2185   -2.7575 H   0  0  0  1  0  0  0  0  0  0  0  0
    4.2177    0.5221   -0.5075 H   0  0  0  1  0  0  0  0  0  0  0  0
    6.0546    1.9504   -1.0632 H   0  0  0  1  0  0  0  0  0  0  0  0
    5.0099    3.3303   -1.3048 H   0  0  0  1  0  0  0  0  0  0  0  0
    5.6794    3.7944    0.8843 H   0  0  0  1  0  0  0  0  0  0  0  0
    3.8459    2.0453    2.1646 H   0  0  0  1  0  0  0  0  0  0  0  0
    3.5259    3.6760    1.6240 H   0  0  0  1  0  0  0  0  0  0  0  0
    2.3093    1.4325    0.5729 H   0  0  0  1  0  0  0  0  0  0  0  0
    2.4505    2.9554   -0.2727 H   0  0  0  1  0  0  0  0  0  0  0  0
    6.1860    2.0132    2.4240 H   0  0  0  1  0  0  0  0  0  0  0  0
    7.1074    1.9330    1.1182 H   0  0  0  1  0  0  0  0  0  0  0  0
  1  2  4  0  0  0  0
  1  6  4  0  0  0  0
  2  3  4  0  0  0  0
  2 18  1  0  0  0  0
  3  4  4  0  0  0  0
  4  5  4  0  0  0  0
  4  7  4  0  0  0  0
  5  6  4  0  0  0  0
  5  9  4  0  0  0  0
  6 25  1  0  0  0  0
  7  8  4  0  0  0  0
  7 26  1  0  0  0  0
  8  9  4  0  0  0  0
  9 10  1  0  0  0  0
 10 11  4  0  0  0  0
 10 15  4  0  0  0  0
 11 12  4  0  0  0  0
 11 27  1  0  0  0  0
 12 13  4  0  0  0  0
 12 28  1  0  0  0  0
 13 14  4  0  0  0  0
 13 16  1  0  0  0  0
 14 15  4  0  0  0  0
 14 29  1  0  0  0  0
 15 30  1  0  0  0  0
 16 17  1  0  0  0  0
 17 31  1  0  0  0  0
 17 32  1  0  0  0  0
 17 33  1  0  0  0  0
 18 19  1  0  0  0  0
 18 34  1  0  0  0  0
 19 20  1  0  0  0  0
 19 23  1  0  0  0  0
 19 35  1  0  0  0  0
 20 21  1  0  0  0  0
 20 36  1  0  0  0  0
 20 37  1  0  0  0  0
 21 22  1  0  0  0  0
 21 24  1  0  0  0  0
 21 38  1  0  0  0  0
 22 23  1  0  0  0  0
 22 39  1  0  0  0  0
 22 40  1  0  0  0  0
 23 41  1  0  0  0  0
 23 42  1  0  0  0  0
 24 43  1  0  0  0  0
 24 44  1  0  0  0  0
M  END
> <ConfClashScore>
0 

> <ConfOneFourInteractionScore>
-0.984337 

> <ConfScore>
-0.0273772 

> <ConfScorePBest>
0.00302012 

> <ConfTolerance>
0.315146 

$$$$
c13.sdf
 OpenBabel04162418043D

 44 47  0  0  0  0  0  0  0  0999 V2000
    2.1079   -0.3774   -1.8532 N   0  0  0  1  0  0  0  0  0  0  0  0
    2.5364    0.5907   -2.6455 C   0  0  0  1  0  0  0  0  0  0  0  0
    2.1526    0.6996   -3.8968 N   0  0  0  1  0  0  0  0  0  0  0  0
    1.2985   -0.1838   -4.4201 C   0  0  0  1  0  0  0  0  0  0  0  0
    0.8204   -1.2304   -3.6033 C   0  0  0  1  0  0  0  0  0  0  0  0
    1.2615   -1.2960   -2.2849 C   0  0  0  1  0  0  0  0  0  0  0  0
    0.7020   -0.3513   -5.6890 C   0  0  0  1  0  0  0  0  0  0  0  0
   -0.0688   -1.4009   -5.6538 N   0  0  0  1  0  0  0  0  0  0  0  0
   -0.0256   -1.9781   -4.3778 N   0  0  0  1  0  0  0  0  0  0  0  0
   -0.7805   -3.1369   -4.0811 C   0  0  0  1  0  0  0  0  0  0  0  0
   -2.0045   -3.0212   -3.4498 C   0  0  0  1  0  0  0  0  0  0  0  0
   -2.7468   -4.1564   -3.1639 C   0  0  0  1  0  0  0  0  0  0  0  0
   -2.2605   -5.4043   -3.5054 C   0  0  0  1  0  0  0  0  0  0  0  0
   -1.0329   -5.5201   -4.1386 C   0  0  0  1  0  0  0  0  0  0  0  0
   -0.2927   -4.3883   -4.4237 C   0  0  0  1  0  0  0  0  0  0  0  0
   -3.0320   -6.4727   -3.1935 O   0  0  0  1  0  0  0  0  0  0  0  0
   -2.5880   -7.7590   -3.6527 C   0  0  0  1  0  0  0  0  0  0  0  0
    3.4009    1.5328   -2.2120 N   0  0  0  1  0  0  0  0  0  0  0  0
    3.8980    1.6157   -0.8317 C   0  0  0  1  0  0  0  0  0  0  0  0
    5.3113    2.2023   -0.8076 C   0  0  0  1  0  0  0  0  0  0  0  0
    5.3551    3.1858    0.3689 C   0  0  0  1  0  0  0  0  0  0  0  0
    4.0082    3.0247    1.0820 C   0  0  0  1  0  0  0  0  0  0  0  0
    3.0370    2.5792   -0.0113 C   0  0  0  1  0  0  0  0  0  0  0  0
    6.4692    2.8497    1.2837 N   0  0  0  1  0  0  0  0  0  0  0  0
    0.9317   -2.0526   -1.6522 H   0  0  0  1  0  0  0  0  0  0  0  0
    0.8530    0.2621   -6.5152 H   0  0  0  1  0  0  0  0  0  0  0  0
   -2.3686   -2.0825   -3.1892 H   0  0  0  1  0  0  0  0  0  0  0  0
   -3.6696   -4.0691   -2.6925 H   0  0  0  1  0  0  0  0  0  0  0  0
   -0.6688   -6.4588   -4.3992 H   0  0  0  1  0  0  0  0  0  0  0  0
    0.6302   -4.4755   -4.8952 H   0  0  0  1  0  0  0  0  0  0  0  0
   -1.9030   -7.6315   -4.4648 H   0  0  0  1  0  0  0  0  0  0  0  0
   -3.4305   -8.3297   -3.9834 H   0  0  0  1  0  0  0  0  0  0  0  0
   -2.0996   -8.2742   -2.8522 H   0  0  0  1  0  0  0  0  0  0  0  0
    3.7157    2.2010   -2.8562 H   0  0  0  1  0  0  0  0  0  0  0  0
    3.8909    0.6409   -0.3905 H   0  0  0  1  0  0  0  0  0  0  0  0
    5.5144    2.7144   -1.7248 H   0  0  0  1  0  0  0  0  0  0  0  0
    6.0319    1.4242   -0.6658 H   0  0  0  1  0  0  0  0  0  0  0  0
    5.4738    4.1884    0.0147 H   0  0  0  1  0  0  0  0  0  0  0  0
    3.6943    3.9545    1.5085 H   0  0  0  1  0  0  0  0  0  0  0  0
    4.0754    2.2836    1.8509 H   0  0  0  1  0  0  0  0  0  0  0  0
    2.7114    3.4092   -0.6032 H   0  0  0  1  0  0  0  0  0  0  0  0
    2.1859    2.0815    0.4045 H   0  0  0  1  0  0  0  0  0  0  0  0
    7.3217    2.9449    0.8099 H   0  0  0  1  0  0  0  0  0  0  0  0
    6.3695    1.9254    1.5938 H   0  0  0  1  0  0  0  0  0  0  0  0
  1  2  4  0  0  0  0
  1  6  4  0  0  0  0
  2  3  4  0  0  0  0
  2 18  1  0  0  0  0
  3  4  4  0  0  0  0
  4  5  4  0  0  0  0
  4  7  4  0  0  0  0
  5  6  4  0  0  0  0
  5  9  4  0  0  0  0
  6 25  1  0  0  0  0
  7  8  4  0  0  0  0
  7 26  1  0  0  0  0
  8  9  4  0  0  0  0
  9 10  1  0  0  0  0
 10 11  4  0  0  0  0
 10 15  4  0  0  0  0
 11 12  4  0  0  0  0
 11 27  1  0  0  0  0
 12 13  4  0  0  0  0
 12 28  1  0  0  0  0
 13 14  4  0  0  0  0
 13 16  1  0  0  0  0
 14 15  4  0  0  0  0
 14 29  1  0  0  0  0
 15 30  1  0  0  0  0
 16 17  1  0  0  0  0
 17 31  1  0  0  0  0
 17 32  1  0  0  0  0
 17 33  1  0  0  0  0
 18 19  1  0  0  0  0
 18 34  1  0  0  0  0
 19 20  1  0  0  0  0
 19 23  1  0  0  0  0
 19 35  1  0  0  0  0
 20 21  1  0  0  0  0
 20 36  1  0  0  0  0
 20 37  1  0  0  0  0
 21 22  1  0  0  0  0
 21 24  1  0  0  0  0
 21 38  1  0  0  0  0
 22 23  1  0  0  0  0
 22 39  1  0  0  0  0
 22 40  1  0  0  0  0
 23 41  1  0  0  0  0
 23 42  1  0  0  0  0
 24 43  1  0  0  0  0
 24 44  1  0  0  0  0
M  END
> <ConfClashScore>
0 

> <ConfOneFourInteractionScore>
-0.984337 

> <ConfScore>
-0.0270555 

> <ConfScorePBest>
0.00300679 

> <ConfTolerance>
0.413445 

$$$$
c13.sdf
 OpenBabel04162418043D

 44 47  0  0  0  0  0  0  0  0999 V2000
    2.1078   -0.3773   -1.8532 N   0  0  0  1  0  0  0  0  0  0  0  0
    2.5363    0.5907   -2.6455 C   0  0  0  1  0  0  0  0  0  0  0  0
    2.1526    0.6996   -3.8968 N   0  0  0  1  0  0  0  0  0  0  0  0
    1.2985   -0.1838   -4.4201 C   0  0  0  1  0  0  0  0  0  0  0  0
    0.8204   -1.2304   -3.6033 C   0  0  0  1  0  0  0  0  0  0  0  0
    1.2614   -1.2960   -2.2849 C   0  0  0  1  0  0  0  0  0  0  0  0
    0.7020   -0.3513   -5.6890 C   0  0  0  1  0  0  0  0  0  0  0  0
   -0.0688   -1.4011   -5.6538 N   0  0  0  1  0  0  0  0  0  0  0  0
   -0.0256   -1.9781   -4.3778 N   0  0  0  1  0  0  0  0  0  0  0  0
   -0.7744   -3.1272   -4.0836 C   0  0  0  1  0  0  0  0  0  0  0  0
   -1.9544   -3.2632   -4.7901 C   0  0  0  1  0  0  0  0  0  0  0  0
   -2.7658   -4.3668   -4.5779 C   0  0  0  1  0  0  0  0  0  0  0  0
   -2.3977   -5.3285   -3.6559 C   0  0  0  1  0  0  0  0  0  0  0  0
   -1.2141   -5.1919   -2.9474 C   0  0  0  1  0  0  0  0  0  0  0  0
   -0.4049   -4.0916   -3.1589 C   0  0  0  1  0  0  0  0  0  0  0  0
   -3.2358   -6.3542   -3.3744 O   0  0  0  1  0  0  0  0  0  0  0  0
   -4.5094   -6.3621   -4.0380 C   0  0  0  1  0  0  0  0  0  0  0  0
    3.3976    1.4988   -2.1526 N   0  0  0  1  0  0  0  0  0  0  0  0
    3.9591    1.4395   -0.8142 C   0  0  0  1  0  0  0  0  0  0  0  0
    5.0930    2.4474   -0.6471 C   0  0  0  1  0  0  0  0  0  0  0  0
    5.2025    2.6928    0.8477 C   0  0  0  1  0  0  0  0  0  0  0  0
    3.7445    2.5983    1.3265 C   0  0  0  1  0  0  0  0  0  0  0  0
    2.9366    1.9076    0.2390 C   0  0  0  1  0  0  0  0  0  0  0  0
    6.0430    1.6579    1.4959 N   0  0  0  1  0  0  0  0  0  0  0  0
    0.9316   -2.0526   -1.6522 H   0  0  0  1  0  0  0  0  0  0  0  0
    0.8529    0.2620   -6.5151 H   0  0  0  1  0  0  0  0  0  0  0  0
   -2.2335   -2.5376   -5.4810 H   0  0  0  1  0  0  0  0  0  0  0  0
   -3.6518   -4.4712   -5.1124 H   0  0  0  1  0  0  0  0  0  0  0  0
   -0.9350   -5.9174   -2.2566 H   0  0  0  1  0  0  0  0  0  0  0  0
    0.4811   -3.9871   -2.6244 H   0  0  0  1  0  0  0  0  0  0  0  0
   -5.1912   -5.7287   -3.5100 H   0  0  0  1  0  0  0  0  0  0  0  0
   -4.8939   -7.3604   -4.0593 H   0  0  0  1  0  0  0  0  0  0  0  0
   -4.3919   -6.0032   -5.0391 H   0  0  0  1  0  0  0  0  0  0  0  0
    3.6620    2.2446   -2.7307 H   0  0  0  1  0  0  0  0  0  0  0  0
    4.2943    0.4439   -0.6113 H   0  0  0  1  0  0  0  0  0  0  0  0
    6.0088    2.0460   -1.0279 H   0  0  0  1  0  0  0  0  0  0  0  0
    4.8619    3.3581   -1.1592 H   0  0  0  1  0  0  0  0  0  0  0  0
    5.6101    3.6615    1.0485 H   0  0  0  1  0  0  0  0  0  0  0  0
    3.3550    3.5796    1.5001 H   0  0  0  1  0  0  0  0  0  0  0  0
    3.6958    2.0294    2.2314 H   0  0  0  1  0  0  0  0  0  0  0  0
    2.2394    2.5918   -0.1977 H   0  0  0  1  0  0  0  0  0  0  0  0
    2.4088    1.0693    0.6433 H   0  0  0  1  0  0  0  0  0  0  0  0
    5.6770    0.7699    1.3011 H   0  0  0  1  0  0  0  0  0  0  0  0
    6.0496    1.8028    2.4651 H   0  0  0  1  0  0  0  0  0  0  0  0
  1  2  4  0  0  0  0
  1  6  4  0  0  0  0
  2  3  4  0  0  0  0
  2 18  1  0  0  0  0
  3  4  4  0  0  0  0
  4  5  4  0  0  0  0
  4  7  4  0  0  0  0
  5  6  4  0  0  0  0
  5  9  4  0  0  0  0
  6 25  1  0  0  0  0
  7  8  4  0  0  0  0
  7 26  1  0  0  0  0
  8  9  4  0  0  0  0
  9 10  1  0  0  0  0
 10 11  4  0  0  0  0
 10 15  4  0  0  0  0
 11 12  4  0  0  0  0
 11 27  1  0  0  0  0
 12 13  4  0  0  0  0
 12 28  1  0  0  0  0
 13 14  4  0  0  0  0
 13 16  1  0  0  0  0
 14 15  4  0  0  0  0
 14 29  1  0  0  0  0
 15 30  1  0  0  0  0
 16 17  1  0  0  0  0
 17 31  1  0  0  0  0
 17 32  1  0  0  0  0
 17 33  1  0  0  0  0
 18 19  1  0  0  0  0
 18 34  1  0  0  0  0
 19 20  1  0  0  0  0
 19 23  1  0  0  0  0
 19 35  1  0  0  0  0
 20 21  1  0  0  0  0
 20 36  1  0  0  0  0
 20 37  1  0  0  0  0
 21 22  1  0  0  0  0
 21 24  1  0  0  0  0
 21 38  1  0  0  0  0
 22 23  1  0  0  0  0
 22 39  1  0  0  0  0
 22 40  1  0  0  0  0
 23 41  1  0  0  0  0
 23 42  1  0  0  0  0
 24 43  1  0  0  0  0
 24 44  1  0  0  0  0
M  END
> <ConfClashScore>
0 

> <ConfOneFourInteractionScore>
-0.984337 

> <ConfScore>
-0.0264956 

> <ConfScorePBest>
0.00299346 

> <ConfTolerance>
0.32633 

$$$$
c13.sdf
 OpenBabel04162418043D

 44 47  0  0  0  0  0  0  0  0999 V2000
    2.1079   -0.3773   -1.8532 N   0  0  0  1  0  0  0  0  0  0  0  0
    2.5363    0.5907   -2.6455 C   0  0  0  1  0  0  0  0  0  0  0  0
    2.1526    0.6996   -3.8968 N   0  0  0  1  0  0  0  0  0  0  0  0
    1.2985   -0.1837   -4.4201 C   0  0  0  1  0  0  0  0  0  0  0  0
    0.8204   -1.2304   -3.6034 C   0  0  0  1  0  0  0  0  0  0  0  0
    1.2615   -1.2960   -2.2849 C   0  0  0  1  0  0  0  0  0  0  0  0
    0.7020   -0.3513   -5.6890 C   0  0  0  1  0  0  0  0  0  0  0  0
   -0.0689   -1.4010   -5.6538 N   0  0  0  1  0  0  0  0  0  0  0  0
   -0.0256   -1.9781   -4.3778 N   0  0  0  1  0  0  0  0  0  0  0  0
   -0.7857   -3.1447   -4.0791 C   0  0  0  1  0  0  0  0  0  0  0  0
   -1.8186   -3.0756   -3.1635 C   0  0  0  1  0  0  0  0  0  0  0  0
   -2.6234   -4.1822   -2.9420 C   0  0  0  1  0  0  0  0  0  0  0  0
   -2.3896   -5.3565   -3.6327 C   0  0  0  1  0  0  0  0  0  0  0  0
   -1.3534   -5.4256   -4.5510 C   0  0  0  1  0  0  0  0  0  0  0  0
   -0.5510   -4.3221   -4.7720 C   0  0  0  1  0  0  0  0  0  0  0  0
   -3.1707   -6.4364   -3.4129 O   0  0  0  1  0  0  0  0  0  0  0  0
   -4.0976   -6.4310   -2.3023 C   0  0  0  1  0  0  0  0  0  0  0  0
    3.4042    1.4827   -2.1026 N   0  0  0  1  0  0  0  0  0  0  0  0
    3.7978    1.4134   -0.6945 C   0  0  0  1  0  0  0  0  0  0  0  0
    5.0739    0.5909   -0.5152 C   0  0  0  1  0  0  0  0  0  0  0  0
    5.6551    1.0550    0.8248 C   0  0  0  1  0  0  0  0  0  0  0  0
    5.1812    2.5043    0.9923 C   0  0  0  1  0  0  0  0  0  0  0  0
    4.2247    2.7860   -0.1689 C   0  0  0  1  0  0  0  0  0  0  0  0
    5.1453    0.2112    1.9318 N   0  0  0  1  0  0  0  0  0  0  0  0
    0.9316   -2.0526   -1.6522 H   0  0  0  1  0  0  0  0  0  0  0  0
    0.8530    0.2620   -6.5152 H   0  0  0  1  0  0  0  0  0  0  0  0
   -1.9922   -2.1934   -2.6409 H   0  0  0  1  0  0  0  0  0  0  0  0
   -3.4032   -4.1291   -2.2560 H   0  0  0  1  0  0  0  0  0  0  0  0
   -1.1800   -6.3078   -5.0737 H   0  0  0  1  0  0  0  0  0  0  0  0
    0.2289   -4.3754   -5.4579 H   0  0  0  1  0  0  0  0  0  0  0  0
   -4.2122   -7.4266   -1.9278 H   0  0  0  1  0  0  0  0  0  0  0  0
   -5.0467   -6.0628   -2.6321 H   0  0  0  1  0  0  0  0  0  0  0  0
   -3.7197   -5.7993   -1.5258 H   0  0  0  1  0  0  0  0  0  0  0  0
    3.7765    2.1912   -2.6681 H   0  0  0  1  0  0  0  0  0  0  0  0
    2.9917    1.0103   -0.1177 H   0  0  0  1  0  0  0  0  0  0  0  0
    5.7619    0.7846   -1.3114 H   0  0  0  1  0  0  0  0  0  0  0  0
    4.8471   -0.4544   -0.4854 H   0  0  0  1  0  0  0  0  0  0  0  0
    6.7240    1.0106    0.8050 H   0  0  0  1  0  0  0  0  0  0  0  0
    6.0158    3.1727    0.9540 H   0  0  0  1  0  0  0  0  0  0  0  0
    4.6725    2.6211    1.9264 H   0  0  0  1  0  0  0  0  0  0  0  0
    4.7228    3.3411   -0.9363 H   0  0  0  1  0  0  0  0  0  0  0  0
    3.3732    3.3357    0.1740 H   0  0  0  1  0  0  0  0  0  0  0  0
    5.5261    0.5196    2.7805 H   0  0  0  1  0  0  0  0  0  0  0  0
    5.4044   -0.7212    1.7775 H   0  0  0  1  0  0  0  0  0  0  0  0
  1  2  4  0  0  0  0
  1  6  4  0  0  0  0
  2  3  4  0  0  0  0
  2 18  1  0  0  0  0
  3  4  4  0  0  0  0
  4  5  4  0  0  0  0
  4  7  4  0  0  0  0
  5  6  4  0  0  0  0
  5  9  4  0  0  0  0
  6 25  1  0  0  0  0
  7  8  4  0  0  0  0
  7 26  1  0  0  0  0
  8  9  4  0  0  0  0
  9 10  1  0  0  0  0
 10 11  4  0  0  0  0
 10 15  4  0  0  0  0
 11 12  4  0  0  0  0
 11 27  1  0  0  0  0
 12 13  4  0  0  0  0
 12 28  1  0  0  0  0
 13 14  4  0  0  0  0
 13 16  1  0  0  0  0
 14 15  4  0  0  0  0
 14 29  1  0  0  0  0
 15 30  1  0  0  0  0
 16 17  1  0  0  0  0
 17 31  1  0  0  0  0
 17 32  1  0  0  0  0
 17 33  1  0  0  0  0
 18 19  1  0  0  0  0
 18 34  1  0  0  0  0
 19 20  1  0  0  0  0
 19 23  1  0  0  0  0
 19 35  1  0  0  0  0
 20 21  1  0  0  0  0
 20 36  1  0  0  0  0
 20 37  1  0  0  0  0
 21 22  1  0  0  0  0
 21 24  1  0  0  0  0
 21 38  1  0  0  0  0
 22 23  1  0  0  0  0
 22 39  1  0  0  0  0
 22 40  1  0  0  0  0
 23 41  1  0  0  0  0
 23 42  1  0  0  0  0
 24 43  1  0  0  0  0
 24 44  1  0  0  0  0
M  END
> <ConfClashScore>
0 

> <ConfOneFourInteractionScore>
-0.984337 

> <ConfScore>
-0.0263961 

> <ConfScorePBest>
0.00298014 

> <ConfTolerance>
0.287757 

$$$$
c13.sdf
 OpenBabel04162418043D

 44 47  0  0  0  0  0  0  0  0999 V2000
    2.1079   -0.3774   -1.8532 N   0  0  0  1  0  0  0  0  0  0  0  0
    2.5363    0.5907   -2.6455 C   0  0  0  1  0  0  0  0  0  0  0  0
    2.1527    0.6996   -3.8968 N   0  0  0  1  0  0  0  0  0  0  0  0
    1.2986   -0.1837   -4.4201 C   0  0  0  1  0  0  0  0  0  0  0  0
    0.8204   -1.2305   -3.6033 C   0  0  0  1  0  0  0  0  0  0  0  0
    1.2615   -1.2960   -2.2849 C   0  0  0  1  0  0  0  0  0  0  0  0
    0.7019   -0.3513   -5.6890 C   0  0  0  1  0  0  0  0  0  0  0  0
   -0.0689   -1.4010   -5.6537 N   0  0  0  1  0  0  0  0  0  0  0  0
   -0.0256   -1.9781   -4.3778 N   0  0  0  1  0  0  0  0  0  0  0  0
   -0.9015   -3.0386   -4.0695 C   0  0  0  1  0  0  0  0  0  0  0  0
   -1.1582   -4.0679   -4.9554 C   0  0  0  1  0  0  0  0  0  0  0  0
   -2.0247   -5.0894   -4.5986 C   0  0  0  1  0  0  0  0  0  0  0  0
   -2.6360   -5.0758   -3.3592 C   0  0  0  1  0  0  0  0  0  0  0  0
   -2.3785   -4.0433   -2.4708 C   0  0  0  1  0  0  0  0  0  0  0  0
   -1.5145   -3.0248   -2.8264 C   0  0  0  1  0  0  0  0  0  0  0  0
   -3.4911   -6.0011   -2.9086 O   0  0  0  1  0  0  0  0  0  0  0  0
   -4.2351   -5.8190   -1.6571 C   0  0  0  1  0  0  0  0  0  0  0  0
    3.4099    1.5117   -2.1457 N   0  0  0  1  0  0  0  0  0  0  0  0
    3.8581    2.6609   -2.9414 C   0  0  0  1  0  0  0  0  0  0  0  0
    3.9591    3.9232   -2.0849 C   0  0  0  1  0  0  0  0  0  0  0  0
    4.9255    4.8376   -2.8458 C   0  0  0  1  0  0  0  0  0  0  0  0
    5.8490    3.8928   -3.6252 C   0  0  0  1  0  0  0  0  0  0  0  0
    5.3021    2.4789   -3.4156 C   0  0  0  1  0  0  0  0  0  0  0  0
    4.1736    5.7290   -3.7855 N   0  0  0  1  0  0  0  0  0  0  0  0
    0.9317   -2.0526   -1.6522 H   0  0  0  1  0  0  0  0  0  0  0  0
    0.8529    0.2620   -6.5151 H   0  0  0  1  0  0  0  0  0  0  0  0
   -0.7013   -4.0761   -5.8897 H   0  0  0  1  0  0  0  0  0  0  0  0
   -2.2147   -5.8660   -5.2636 H   0  0  0  1  0  0  0  0  0  0  0  0
   -2.8353   -4.0351   -1.5365 H   0  0  0  1  0  0  0  0  0  0  0  0
   -1.3244   -2.2481   -2.1614 H   0  0  0  1  0  0  0  0  0  0  0  0
   -3.5468   -5.6979   -0.8468 H   0  0  0  1  0  0  0  0  0  0  0  0
   -4.8482   -6.6777   -1.4788 H   0  0  0  1  0  0  0  0  0  0  0  0
   -4.8529   -4.9487   -1.7331 H   0  0  0  1  0  0  0  0  0  0  0  0
    3.7468    1.4033   -1.2318 H   0  0  0  1  0  0  0  0  0  0  0  0
    3.1933    2.8044   -3.7675 H   0  0  0  1  0  0  0  0  0  0  0  0
    4.3460    3.6902   -1.1149 H   0  0  0  1  0  0  0  0  0  0  0  0
    3.0006    4.3882   -1.9849 H   0  0  0  1  0  0  0  0  0  0  0  0
    5.4917    5.4354   -2.1624 H   0  0  0  1  0  0  0  0  0  0  0  0
    6.8490    3.9615   -3.2507 H   0  0  0  1  0  0  0  0  0  0  0  0
    5.8394    4.1421   -4.6657 H   0  0  0  1  0  0  0  0  0  0  0  0
    5.3270    1.9292   -4.3332 H   0  0  0  1  0  0  0  0  0  0  0  0
    5.8759    1.9629   -2.6744 H   0  0  0  1  0  0  0  0  0  0  0  0
    3.7774    5.1898   -4.5014 H   0  0  0  1  0  0  0  0  0  0  0  0
    4.7880    6.3863   -4.1738 H   0  0  0  1  0  0  0  0  0  0  0  0
  1  2  4  0  0  0  0
  1  6  4  0  0  0  0
  2  3  4  0  0  0  0
  2 18  1  0  0  0  0
  3  4  4  0  0  0  0
  4  5  4  0  0  0  0
  4  7  4  0  0  0  0
  5  6  4  0  0  0  0
  5  9  4  0  0  0  0
  6 25  1  0  0  0  0
  7  8  4  0  0  0  0
  7 26  1  0  0  0  0
  8  9  4  0  0  0  0
  9 10  1  0  0  0  0
 10 11  4  0  0  0  0
 10 15  4  0  0  0  0
 11 12  4  0  0  0  0
 11 27  1  0  0  0  0
 12 13  4  0  0  0  0
 12 28  1  0  0  0  0
 13 14  4  0  0  0  0
 13 16  1  0  0  0  0
 14 15  4  0  0  0  0
 14 29  1  0  0  0  0
 15 30  1  0  0  0  0
 16 17  1  0  0  0  0
 17 31  1  0  0  0  0
 17 32  1  0  0  0  0
 17 33  1  0  0  0  0
 18 19  1  0  0  0  0
 18 34  1  0  0  0  0
 19 20  1  0  0  0  0
 19 23  1  0  0  0  0
 19 35  1  0  0  0  0
 20 21  1  0  0  0  0
 20 36  1  0  0  0  0
 20 37  1  0  0  0  0
 21 22  1  0  0  0  0
 21 24  1  0  0  0  0
 21 38  1  0  0  0  0
 22 23  1  0  0  0  0
 22 39  1  0  0  0  0
 22 40  1  0  0  0  0
 23 41  1  0  0  0  0
 23 42  1  0  0  0  0
 24 43  1  0  0  0  0
 24 44  1  0  0  0  0
M  END
> <ConfClashScore>
0 

> <ConfOneFourInteractionScore>
-0.984337 

> <ConfScore>
-0.0262322 

> <ConfScorePBest>
0.00296681 

> <ConfTolerance>
0.436132 

$$$$
c13.sdf
 OpenBabel04162418043D

 44 47  0  0  0  0  0  0  0  0999 V2000
    2.1080   -0.3774   -1.8533 N   0  0  0  1  0  0  0  0  0  0  0  0
    2.5363    0.5907   -2.6455 C   0  0  0  1  0  0  0  0  0  0  0  0
    2.1526    0.6996   -3.8968 N   0  0  0  1  0  0  0  0  0  0  0  0
    1.2985   -0.1837   -4.4201 C   0  0  0  1  0  0  0  0  0  0  0  0
    0.8204   -1.2305   -3.6033 C   0  0  0  1  0  0  0  0  0  0  0  0
    1.2616   -1.2962   -2.2850 C   0  0  0  1  0  0  0  0  0  0  0  0
    0.7018   -0.3512   -5.6889 C   0  0  0  1  0  0  0  0  0  0  0  0
   -0.0691   -1.4009   -5.6537 N   0  0  0  1  0  0  0  0  0  0  0  0
   -0.0256   -1.9781   -4.3778 N   0  0  0  1  0  0  0  0  0  0  0  0
   -0.7856   -3.1448   -4.0792 C   0  0  0  1  0  0  0  0  0  0  0  0
   -1.6036   -3.1702   -2.9654 C   0  0  0  1  0  0  0  0  0  0  0  0
   -2.3474   -4.3039   -2.6777 C   0  0  0  1  0  0  0  0  0  0  0  0
   -2.2672   -5.4108   -3.5015 C   0  0  0  1  0  0  0  0  0  0  0  0
   -1.4467   -5.3852   -4.6186 C   0  0  0  1  0  0  0  0  0  0  0  0
   -0.7050   -4.2548   -4.9056 C   0  0  0  1  0  0  0  0  0  0  0  0
   -3.0337   -6.4591   -3.1175 O   0  0  0  1  0  0  0  0  0  0  0  0
   -2.8873   -7.6835   -3.8536 C   0  0  0  1  0  0  0  0  0  0  0  0
    3.4009    1.5022   -2.1508 N   0  0  0  1  0  0  0  0  0  0  0  0
    3.9705    1.4397   -0.8039 C   0  0  0  1  0  0  0  0  0  0  0  0
    4.6149    2.7778   -0.4342 C   0  0  0  1  0  0  0  0  0  0  0  0
    4.2242    3.0624    1.0215 C   0  0  0  1  0  0  0  0  0  0  0  0
    3.4890    1.8044    1.4972 C   0  0  0  1  0  0  0  0  0  0  0  0
    2.8671    1.2125    0.2322 C   0  0  0  1  0  0  0  0  0  0  0  0
    5.4311    3.2996    1.8451 N   0  0  0  1  0  0  0  0  0  0  0  0
    0.9319   -2.0528   -1.6523 H   0  0  0  1  0  0  0  0  0  0  0  0
    0.8527    0.2622   -6.5152 H   0  0  0  1  0  0  0  0  0  0  0  0
   -1.6609   -2.3388   -2.3432 H   0  0  0  1  0  0  0  0  0  0  0  0
   -2.9660   -4.3217   -1.8418 H   0  0  0  1  0  0  0  0  0  0  0  0
   -1.3894   -6.2165   -5.2409 H   0  0  0  1  0  0  0  0  0  0  0  0
   -0.0864   -4.2370   -5.7415 H   0  0  0  1  0  0  0  0  0  0  0  0
   -2.4599   -7.4751   -4.8122 H   0  0  0  1  0  0  0  0  0  0  0  0
   -3.8470   -8.1388   -3.9826 H   0  0  0  1  0  0  0  0  0  0  0  0
   -2.2458   -8.3489   -3.3144 H   0  0  0  1  0  0  0  0  0  0  0  0
    3.6625    2.2500   -2.7277 H   0  0  0  1  0  0  0  0  0  0  0  0
    4.6934    0.6521   -0.7580 H   0  0  0  1  0  0  0  0  0  0  0  0
    4.2482    3.5535   -1.0735 H   0  0  0  1  0  0  0  0  0  0  0  0
    5.6790    2.7130   -0.5252 H   0  0  0  1  0  0  0  0  0  0  0  0
    3.5808    3.9156    1.0767 H   0  0  0  1  0  0  0  0  0  0  0  0
    4.1746    1.1120    1.9393 H   0  0  0  1  0  0  0  0  0  0  0  0
    2.7296    2.0578    2.2071 H   0  0  0  1  0  0  0  0  0  0  0  0
    1.9693    1.7286   -0.0371 H   0  0  0  1  0  0  0  0  0  0  0  0
    2.6571    0.1704    0.3539 H   0  0  0  1  0  0  0  0  0  0  0  0
    6.0943    2.6016    1.6621 H   0  0  0  1  0  0  0  0  0  0  0  0
    5.1881    3.2781    2.7941 H   0  0  0  1  0  0  0  0  0  0  0  0
  1  2  4  0  0  0  0
  1  6  4  0  0  0  0
  2  3  4  0  0  0  0
  2 18  1  0  0  0  0
  3  4  4  0  0  0  0
  4  5  4  0  0  0  0
  4  7  4  0  0  0  0
  5  6  4  0  0  0  0
  5  9  4  0  0  0  0
  6 25  1  0  0  0  0
  7  8  4  0  0  0  0
  7 26  1  0  0  0  0
  8  9  4  0  0  0  0
  9 10  1  0  0  0  0
 10 11  4  0  0  0  0
 10 15  4  0  0  0  0
 11 12  4  0  0  0  0
 11 27  1  0  0  0  0
 12 13  4  0  0  0  0
 12 28  1  0  0  0  0
 13 14  4  0  0  0  0
 13 16  1  0  0  0  0
 14 15  4  0  0  0  0
 14 29  1  0  0  0  0
 15 30  1  0  0  0  0
 16 17  1  0  0  0  0
 17 31  1  0  0  0  0
 17 32  1  0  0  0  0
 17 33  1  0  0  0  0
 18 19  1  0  0  0  0
 18 34  1  0  0  0  0
 19 20  1  0  0  0  0
 19 23  1  0  0  0  0
 19 35  1  0  0  0  0
 20 21  1  0  0  0  0
 20 36  1  0  0  0  0
 20 37  1  0  0  0  0
 21 22  1  0  0  0  0
 21 24  1  0  0  0  0
 21 38  1  0  0  0  0
 22 23  1  0  0  0  0
 22 39  1  0  0  0  0
 22 40  1  0  0  0  0
 23 41  1  0  0  0  0
 23 42  1  0  0  0  0
 24 43  1  0  0  0  0
 24 44  1  0  0  0  0
M  END
> <ConfClashScore>
0 

> <ConfOneFourInteractionScore>
-0.985399 

> <ConfScore>
-0.026232 

> <ConfScorePBest>
0.00295348 

> <ConfTolerance>
0.31696 

$$$$
c13.sdf
 OpenBabel04162418043D

 44 47  0  0  0  0  0  0  0  0999 V2000
    2.1079   -0.3774   -1.8532 N   0  0  0  1  0  0  0  0  0  0  0  0
    2.5363    0.5907   -2.6455 C   0  0  0  1  0  0  0  0  0  0  0  0
    2.1525    0.6997   -3.8968 N   0  0  0  1  0  0  0  0  0  0  0  0
    1.2986   -0.1837   -4.4201 C   0  0  0  1  0  0  0  0  0  0  0  0
    0.8204   -1.2305   -3.6033 C   0  0  0  1  0  0  0  0  0  0  0  0
    1.2615   -1.2960   -2.2849 C   0  0  0  1  0  0  0  0  0  0  0  0
    0.7019   -0.3513   -5.6890 C   0  0  0  1  0  0  0  0  0  0  0  0
   -0.0689   -1.4010   -5.6537 N   0  0  0  1  0  0  0  0  0  0  0  0
   -0.0256   -1.9781   -4.3778 N   0  0  0  1  0  0  0  0  0  0  0  0
   -0.7129   -3.1937   -4.1134 C   0  0  0  1  0  0  0  0  0  0  0  0
   -0.0094   -4.3122   -3.7082 C   0  0  0  1  0  0  0  0  0  0  0  0
   -0.6678   -5.5198   -3.5351 C   0  0  0  1  0  0  0  0  0  0  0  0
   -2.0266   -5.6065   -3.7729 C   0  0  0  1  0  0  0  0  0  0  0  0
   -2.7320   -4.4845   -4.1794 C   0  0  0  1  0  0  0  0  0  0  0  0
   -2.0756   -3.2805   -4.3520 C   0  0  0  1  0  0  0  0  0  0  0  0
   -2.5584   -6.8362   -3.5760 O   0  0  0  1  0  0  0  0  0  0  0  0
   -3.8707   -7.0764   -4.1074 C   0  0  0  1  0  0  0  0  0  0  0  0
    3.3977    1.4989   -2.1526 N   0  0  0  1  0  0  0  0  0  0  0  0
    4.1050    2.5222   -2.9119 C   0  0  0  1  0  0  0  0  0  0  0  0
    3.4017    3.8766   -2.7715 C   0  0  0  1  0  0  0  0  0  0  0  0
    4.0688    4.5414   -1.5674 C   0  0  0  1  0  0  0  0  0  0  0  0
    5.5362    4.1494   -1.7570 C   0  0  0  1  0  0  0  0  0  0  0  0
    5.5134    2.7357   -2.3428 C   0  0  0  1  0  0  0  0  0  0  0  0
    3.8952    6.0244   -1.6019 N   0  0  0  1  0  0  0  0  0  0  0  0
    0.9318   -2.0526   -1.6522 H   0  0  0  1  0  0  0  0  0  0  0  0
    0.8528    0.2620   -6.5151 H   0  0  0  1  0  0  0  0  0  0  0  0
    1.0136   -4.2480   -3.5331 H   0  0  0  1  0  0  0  0  0  0  0  0
   -0.1393   -6.3606   -3.2263 H   0  0  0  1  0  0  0  0  0  0  0  0
   -3.7550   -4.5487   -4.3545 H   0  0  0  1  0  0  0  0  0  0  0  0
   -2.6041   -2.4397   -4.6608 H   0  0  0  1  0  0  0  0  0  0  0  0
   -4.3797   -7.7896   -3.4933 H   0  0  0  1  0  0  0  0  0  0  0  0
   -3.7876   -7.4587   -5.1033 H   0  0  0  1  0  0  0  0  0  0  0  0
   -4.4228   -6.1600   -4.1215 H   0  0  0  1  0  0  0  0  0  0  0  0
    3.5661    1.4696   -1.1877 H   0  0  0  1  0  0  0  0  0  0  0  0
    4.1568    2.2319   -3.9405 H   0  0  0  1  0  0  0  0  0  0  0  0
    2.3551    3.7409   -2.5950 H   0  0  0  1  0  0  0  0  0  0  0  0
    3.5415    4.4667   -3.6530 H   0  0  0  1  0  0  0  0  0  0  0  0
    3.6802    4.1577   -0.6472 H   0  0  0  1  0  0  0  0  0  0  0  0
    6.0485    4.1560   -0.8177 H   0  0  0  1  0  0  0  0  0  0  0  0
    6.0187    4.8252   -2.4318 H   0  0  0  1  0  0  0  0  0  0  0  0
    6.2434    2.6459   -3.1198 H   0  0  0  1  0  0  0  0  0  0  0  0
    5.7157    2.0155   -1.5776 H   0  0  0  1  0  0  0  0  0  0  0  0
    2.9452    6.2449   -1.5057 H   0  0  0  1  0  0  0  0  0  0  0  0
    4.2260    6.3720   -2.4563 H   0  0  0  1  0  0  0  0  0  0  0  0
  1  2  4  0  0  0  0
  1  6  4  0  0  0  0
  2  3  4  0  0  0  0
  2 18  1  0  0  0  0
  3  4  4  0  0  0  0
  4  5  4  0  0  0  0
  4  7  4  0  0  0  0
  5  6  4  0  0  0  0
  5  9  4  0  0  0  0
  6 25  1  0  0  0  0
  7  8  4  0  0  0  0
  7 26  1  0  0  0  0
  8  9  4  0  0  0  0
  9 10  1  0  0  0  0
 10 11  4  0  0  0  0
 10 15  4  0  0  0  0
 11 12  4  0  0  0  0
 11 27  1  0  0  0  0
 12 13  4  0  0  0  0
 12 28  1  0  0  0  0
 13 14  4  0  0  0  0
 13 16  1  0  0  0  0
 14 15  4  0  0  0  0
 14 29  1  0  0  0  0
 15 30  1  0  0  0  0
 16 17  1  0  0  0  0
 17 31  1  0  0  0  0
 17 32  1  0  0  0  0
 17 33  1  0  0  0  0
 18 19  1  0  0  0  0
 18 34  1  0  0  0  0
 19 20  1  0  0  0  0
 19 23  1  0  0  0  0
 19 35  1  0  0  0  0
 20 21  1  0  0  0  0
 20 36  1  0  0  0  0
 20 37  1  0  0  0  0
 21 22  1  0  0  0  0
 21 24  1  0  0  0  0
 21 38  1  0  0  0  0
 22 23  1  0  0  0  0
 22 39  1  0  0  0  0
 22 40  1  0  0  0  0
 23 41  1  0  0  0  0
 23 42  1  0  0  0  0
 24 43  1  0  0  0  0
 24 44  1  0  0  0  0
M  END
> <ConfClashScore>
0 

> <ConfOneFourInteractionScore>
-0.984337 

> <ConfScore>
-0.0259153 

> <ConfScorePBest>
0.00294015 

> <ConfTolerance>
0.4784 

$$$$
c13.sdf
 OpenBabel04162418043D

 44 47  0  0  0  0  0  0  0  0999 V2000
    2.1079   -0.3774   -1.8532 N   0  0  0  1  0  0  0  0  0  0  0  0
    2.5364    0.5907   -2.6455 C   0  0  0  1  0  0  0  0  0  0  0  0
    2.1527    0.6996   -3.8967 N   0  0  0  1  0  0  0  0  0  0  0  0
    1.2985   -0.1837   -4.4201 C   0  0  0  1  0  0  0  0  0  0  0  0
    0.8204   -1.2305   -3.6033 C   0  0  0  1  0  0  0  0  0  0  0  0
    1.2614   -1.2960   -2.2849 C   0  0  0  1  0  0  0  0  0  0  0  0
    0.7020   -0.3513   -5.6890 C   0  0  0  1  0  0  0  0  0  0  0  0
   -0.0688   -1.4011   -5.6537 N   0  0  0  1  0  0  0  0  0  0  0  0
   -0.0256   -1.9781   -4.3778 N   0  0  0  1  0  0  0  0  0  0  0  0
   -0.7743   -3.1274   -4.0836 C   0  0  0  1  0  0  0  0  0  0  0  0
   -0.3694   -4.4194   -4.3605 C   0  0  0  1  0  0  0  0  0  0  0  0
   -1.1847   -5.4885   -4.0229 C   0  0  0  1  0  0  0  0  0  0  0  0
   -2.4048   -5.2622   -3.4144 C   0  0  0  1  0  0  0  0  0  0  0  0
   -2.8108   -3.9662   -3.1367 C   0  0  0  1  0  0  0  0  0  0  0  0
   -1.9980   -2.9002   -3.4733 C   0  0  0  1  0  0  0  0  0  0  0  0
   -3.2827   -6.2202   -3.0453 O   0  0  0  1  0  0  0  0  0  0  0  0
   -2.9599   -7.6010   -3.2733 C   0  0  0  1  0  0  0  0  0  0  0  0
    3.3977    1.4988   -2.1525 N   0  0  0  1  0  0  0  0  0  0  0  0
    3.9356    1.4588   -0.7919 C   0  0  0  1  0  0  0  0  0  0  0  0
    4.8280    2.6774   -0.5317 C   0  0  0  1  0  0  0  0  0  0  0  0
    3.8877    3.7349    0.0468 C   0  0  0  1  0  0  0  0  0  0  0  0
    2.9844    2.8978    0.9557 C   0  0  0  1  0  0  0  0  0  0  0  0
    2.8022    1.5590    0.2368 C   0  0  0  1  0  0  0  0  0  0  0  0
    4.6421    4.7621    0.8289 N   0  0  0  1  0  0  0  0  0  0  0  0
    0.9316   -2.0526   -1.6522 H   0  0  0  1  0  0  0  0  0  0  0  0
    0.8531    0.2620   -6.5152 H   0  0  0  1  0  0  0  0  0  0  0  0
    0.5469   -4.5897   -4.8220 H   0  0  0  1  0  0  0  0  0  0  0  0
   -0.8781   -6.4610   -4.2276 H   0  0  0  1  0  0  0  0  0  0  0  0
   -3.7271   -3.7960   -2.6751 H   0  0  0  1  0  0  0  0  0  0  0  0
   -2.3045   -1.9276   -3.2686 H   0  0  0  1  0  0  0  0  0  0  0  0
   -2.1737   -7.8979   -2.6111 H   0  0  0  1  0  0  0  0  0  0  0  0
   -2.6403   -7.7297   -4.2863 H   0  0  0  1  0  0  0  0  0  0  0  0
   -3.8251   -8.2039   -3.0924 H   0  0  0  1  0  0  0  0  0  0  0  0
    3.6817    2.2307   -2.7392 H   0  0  0  1  0  0  0  0  0  0  0  0
    4.4885    0.5532   -0.6529 H   0  0  0  1  0  0  0  0  0  0  0  0
    5.2683    3.0232   -1.4435 H   0  0  0  1  0  0  0  0  0  0  0  0
    5.6000    2.4361    0.1688 H   0  0  0  1  0  0  0  0  0  0  0  0
    3.3236    4.2164   -0.7243 H   0  0  0  1  0  0  0  0  0  0  0  0
    3.4481    2.7497    1.9086 H   0  0  0  1  0  0  0  0  0  0  0  0
    2.0392    3.3811    1.0898 H   0  0  0  1  0  0  0  0  0  0  0  0
    2.8661    0.7522    0.9366 H   0  0  0  1  0  0  0  0  0  0  0  0
    1.8527    1.5304   -0.2557 H   0  0  0  1  0  0  0  0  0  0  0  0
    5.2310    5.2638    0.2273 H   0  0  0  1  0  0  0  0  0  0  0  0
    5.1802    4.3180    1.5171 H   0  0  0  1  0  0  0  0  0  0  0  0
  1  2  4  0  0  0  0
  1  6  4  0  0  0  0
  2  3  4  0  0  0  0
  2 18  1  0  0  0  0
  3  4  4  0  0  0  0
  4  5  4  0  0  0  0
  4  7  4  0  0  0  0
  5  6  4  0  0  0  0
  5  9  4  0  0  0  0
  6 25  1  0  0  0  0
  7  8  4  0  0  0  0
  7 26  1  0  0  0  0
  8  9  4  0  0  0  0
  9 10  1  0  0  0  0
 10 11  4  0  0  0  0
 10 15  4  0  0  0  0
 11 12  4  0  0  0  0
 11 27  1  0  0  0  0
 12 13  4  0  0  0  0
 12 28  1  0  0  0  0
 13 14  4  0  0  0  0
 13 16  1  0  0  0  0
 14 15  4  0  0  0  0
 14 29  1  0  0  0  0
 15 30  1  0  0  0  0
 16 17  1  0  0  0  0
 17 31  1  0  0  0  0
 17 32  1  0  0  0  0
 17 33  1  0  0  0  0
 18 19  1  0  0  0  0
 18 34  1  0  0  0  0
 19 20  1  0  0  0  0
 19 23  1  0  0  0  0
 19 35  1  0  0  0  0
 20 21  1  0  0  0  0
 20 36  1  0  0  0  0
 20 37  1  0  0  0  0
 21 22  1  0  0  0  0
 21 24  1  0  0  0  0
 21 38  1  0  0  0  0
 22 23  1  0  0  0  0
 22 39  1  0  0  0  0
 22 40  1  0  0  0  0
 23 41  1  0  0  0  0
 23 42  1  0  0  0  0
 24 43  1  0  0  0  0
 24 44  1  0  0  0  0
M  END
> <ConfClashScore>
0 

> <ConfOneFourInteractionScore>
-0.987617 

> <ConfScore>
-0.023399 

> <ConfScorePBest>
0.00292682 

> <ConfTolerance>
0.323481 

$$$$
c13.sdf
 OpenBabel04162418043D

 44 47  0  0  0  0  0  0  0  0999 V2000
    2.1079   -0.3773   -1.8532 N   0  0  0  1  0  0  0  0  0  0  0  0
    2.5364    0.5907   -2.6455 C   0  0  0  1  0  0  0  0  0  0  0  0
    2.1525    0.6996   -3.8968 N   0  0  0  1  0  0  0  0  0  0  0  0
    1.2985   -0.1838   -4.4201 C   0  0  0  1  0  0  0  0  0  0  0  0
    0.8204   -1.2304   -3.6033 C   0  0  0  1  0  0  0  0  0  0  0  0
    1.2615   -1.2960   -2.2849 C   0  0  0  1  0  0  0  0  0  0  0  0
    0.7019   -0.3512   -5.6890 C   0  0  0  1  0  0  0  0  0  0  0  0
   -0.0690   -1.4010   -5.6538 N   0  0  0  1  0  0  0  0  0  0  0  0
   -0.0256   -1.9781   -4.3778 N   0  0  0  1  0  0  0  0  0  0  0  0
   -0.7807   -3.1368   -4.0812 C   0  0  0  1  0  0  0  0  0  0  0  0
   -0.5908   -3.8677   -2.9236 C   0  0  0  1  0  0  0  0  0  0  0  0
   -1.3626   -4.9930   -2.6801 C   0  0  0  1  0  0  0  0  0  0  0  0
   -2.3184   -5.3874   -3.5975 C   0  0  0  1  0  0  0  0  0  0  0  0
   -2.5086   -4.6542   -4.7584 C   0  0  0  1  0  0  0  0  0  0  0  0
   -1.7391   -3.5320   -5.0013 C   0  0  0  1  0  0  0  0  0  0  0  0
   -3.0058   -6.5026   -3.2548 O   0  0  0  1  0  0  0  0  0  0  0  0
   -4.0941   -6.8906   -4.1077 C   0  0  0  1  0  0  0  0  0  0  0  0
    3.4009    1.5022   -2.1508 N   0  0  0  1  0  0  0  0  0  0  0  0
    3.9210    1.4756   -0.7809 C   0  0  0  1  0  0  0  0  0  0  0  0
    4.9546    2.5952   -0.5582 C   0  0  0  1  0  0  0  0  0  0  0  0
    4.1715    3.8549   -0.0485 C   0  0  0  1  0  0  0  0  0  0  0  0
    2.7451    3.3575    0.1621 C   0  0  0  1  0  0  0  0  0  0  0  0
    2.8009    1.8277    0.2545 C   0  0  0  1  0  0  0  0  0  0  0  0
    4.7452    4.3484    1.2206 N   0  0  0  1  0  0  0  0  0  0  0  0
    0.9316   -2.0526   -1.6522 H   0  0  0  1  0  0  0  0  0  0  0  0
    0.8529    0.2620   -6.5152 H   0  0  0  1  0  0  0  0  0  0  0  0
    0.1311   -3.5733   -2.2352 H   0  0  0  1  0  0  0  0  0  0  0  0
   -1.2226   -5.5407   -1.8072 H   0  0  0  1  0  0  0  0  0  0  0  0
   -3.2305   -4.9485   -5.4469 H   0  0  0  1  0  0  0  0  0  0  0  0
   -1.8790   -2.9843   -5.8742 H   0  0  0  1  0  0  0  0  0  0  0  0
   -3.7241   -7.0860   -5.0925 H   0  0  0  1  0  0  0  0  0  0  0  0
   -4.8146   -6.1006   -4.1479 H   0  0  0  1  0  0  0  0  0  0  0  0
   -4.5546   -7.7745   -3.7182 H   0  0  0  1  0  0  0  0  0  0  0  0
    3.6981    2.2245   -2.7428 H   0  0  0  1  0  0  0  0  0  0  0  0
    4.3447    0.5141   -0.5784 H   0  0  0  1  0  0  0  0  0  0  0  0
    5.4538    2.8212   -1.4773 H   0  0  0  1  0  0  0  0  0  0  0  0
    5.6735    2.2900    0.1731 H   0  0  0  1  0  0  0  0  0  0  0  0
    4.1955    4.6364   -0.7790 H   0  0  0  1  0  0  0  0  0  0  0  0
    2.1299    3.6516   -0.6626 H   0  0  0  1  0  0  0  0  0  0  0  0
    2.3462    3.7641    1.0679 H   0  0  0  1  0  0  0  0  0  0  0  0
    1.8653    1.3880   -0.0213 H   0  0  0  1  0  0  0  0  0  0  0  0
    3.0689    1.5082    1.2399 H   0  0  0  1  0  0  0  0  0  0  0  0
    4.2809    5.1673    1.4931 H   0  0  0  1  0  0  0  0  0  0  0  0
    5.6982    4.5398    1.0954 H   0  0  0  1  0  0  0  0  0  0  0  0
  1  2  4  0  0  0  0
  1  6  4  0  0  0  0
  2  3  4  0  0  0  0
  2 18  1  0  0  0  0
  3  4  4  0  0  0  0
  4  5  4  0  0  0  0
  4  7  4  0  0  0  0
  5  6  4  0  0  0  0
  5  9  4  0  0  0  0
  6 25  1  0  0  0  0
  7  8  4  0  0  0  0
  7 26  1  0  0  0  0
  8  9  4  0  0  0  0
  9 10  1  0  0  0  0
 10 11  4  0  0  0  0
 10 15  4  0  0  0  0
 11 12  4  0  0  0  0
 11 27  1  0  0  0  0
 12 13  4  0  0  0  0
 12 28  1  0  0  0  0
 13 14  4  0  0  0  0
 13 16  1  0  0  0  0
 14 15  4  0  0  0  0
 14 29  1  0  0  0  0
 15 30  1  0  0  0  0
 16 17  1  0  0  0  0
 17 31  1  0  0  0  0
 17 32  1  0  0  0  0
 17 33  1  0  0  0  0
 18 19  1  0  0  0  0
 18 34  1  0  0  0  0
 19 20  1  0  0  0  0
 19 23  1  0  0  0  0
 19 35  1  0  0  0  0
 20 21  1  0  0  0  0
 20 36  1  0  0  0  0
 20 37  1  0  0  0  0
 21 22  1  0  0  0  0
 21 24  1  0  0  0  0
 21 38  1  0  0  0  0
 22 23  1  0  0  0  0
 22 39  1  0  0  0  0
 22 40  1  0  0  0  0
 23 41  1  0  0  0  0
 23 42  1  0  0  0  0
 24 43  1  0  0  0  0
 24 44  1  0  0  0  0
M  END
> <ConfClashScore>
0 

> <ConfOneFourInteractionScore>
-0.984337 

> <ConfScore>
-0.0230544 

> <ConfScorePBest>
0.0029135 

> <ConfTolerance>
0.338005 

$$$$
c13.sdf
 OpenBabel04162418043D

 44 47  0  0  0  0  0  0  0  0999 V2000
    2.1080   -0.3774   -1.8532 N   0  0  0  1  0  0  0  0  0  0  0  0
    2.5363    0.5907   -2.6455 C   0  0  0  1  0  0  0  0  0  0  0  0
    2.1526    0.6996   -3.8968 N   0  0  0  1  0  0  0  0  0  0  0  0
    1.2986   -0.1837   -4.4201 C   0  0  0  1  0  0  0  0  0  0  0  0
    0.8204   -1.2304   -3.6033 C   0  0  0  1  0  0  0  0  0  0  0  0
    1.2615   -1.2960   -2.2849 C   0  0  0  1  0  0  0  0  0  0  0  0
    0.7018   -0.3512   -5.6890 C   0  0  0  1  0  0  0  0  0  0  0  0
   -0.0690   -1.4009   -5.6538 N   0  0  0  1  0  0  0  0  0  0  0  0
   -0.0256   -1.9781   -4.3778 N   0  0  0  1  0  0  0  0  0  0  0  0
   -0.7220   -3.1830   -4.1545 C   0  0  0  1  0  0  0  0  0  0  0  0
   -0.6457   -3.8713   -2.9584 C   0  0  0  1  0  0  0  0  0  0  0  0
   -1.3561   -5.0498   -2.7906 C   0  0  0  1  0  0  0  0  0  0  0  0
   -2.1364   -5.5392   -3.8209 C   0  0  0  1  0  0  0  0  0  0  0  0
   -2.2129   -4.8488   -5.0205 C   0  0  0  1  0  0  0  0  0  0  0  0
   -1.5046   -3.6737   -5.1880 C   0  0  0  1  0  0  0  0  0  0  0  0
   -2.7786   -6.6987   -3.5432 O   0  0  0  1  0  0  0  0  0  0  0  0
   -3.6656   -7.2146   -4.5479 C   0  0  0  1  0  0  0  0  0  0  0  0
    3.3976    1.4989   -2.1526 N   0  0  0  1  0  0  0  0  0  0  0  0
    4.0671    1.4465   -0.8491 C   0  0  0  1  0  0  0  0  0  0  0  0
    4.6524    2.8082   -0.4885 C   0  0  0  1  0  0  0  0  0  0  0  0
    4.3617    3.0546    0.9970 C   0  0  0  1  0  0  0  0  0  0  0  0
    2.9428    2.4148    1.1656 C   0  0  0  1  0  0  0  0  0  0  0  0
    3.0341    1.1492    0.2931 C   0  0  0  1  0  0  0  0  0  0  0  0
    5.3581    2.3825    1.8566 N   0  0  0  1  0  0  0  0  0  0  0  0
    0.9317   -2.0527   -1.6523 H   0  0  0  1  0  0  0  0  0  0  0  0
    0.8528    0.2621   -6.5151 H   0  0  0  1  0  0  0  0  0  0  0  0
   -0.0554   -3.5052   -2.1845 H   0  0  0  1  0  0  0  0  0  0  0  0
   -1.3018   -5.5656   -1.8892 H   0  0  0  1  0  0  0  0  0  0  0  0
   -2.8032   -5.2149   -5.7946 H   0  0  0  1  0  0  0  0  0  0  0  0
   -1.5588   -3.1578   -6.0895 H   0  0  0  1  0  0  0  0  0  0  0  0
   -4.0936   -8.1346   -4.2082 H   0  0  0  1  0  0  0  0  0  0  0  0
   -3.1187   -7.3880   -5.4511 H   0  0  0  1  0  0  0  0  0  0  0  0
   -4.4453   -6.5056   -4.7330 H   0  0  0  1  0  0  0  0  0  0  0  0
    3.5975    2.2719   -2.7209 H   0  0  0  1  0  0  0  0  0  0  0  0
    4.8327    0.6994   -0.8705 H   0  0  0  1  0  0  0  0  0  0  0  0
    4.1943    3.5716   -1.0820 H   0  0  0  1  0  0  0  0  0  0  0  0
    5.7087    2.8087   -0.6592 H   0  0  0  1  0  0  0  0  0  0  0  0
    4.3447    4.1007    1.2207 H   0  0  0  1  0  0  0  0  0  0  0  0
    2.1783    3.0737    0.8102 H   0  0  0  1  0  0  0  0  0  0  0  0
    2.7518    2.1649    2.1883 H   0  0  0  1  0  0  0  0  0  0  0  0
    2.0765    0.9248   -0.1282 H   0  0  0  1  0  0  0  0  0  0  0  0
    3.3680    0.3211    0.8826 H   0  0  0  1  0  0  0  0  0  0  0  0
    5.1221    2.5176    2.7981 H   0  0  0  1  0  0  0  0  0  0  0  0
    6.2456    2.7609    1.6849 H   0  0  0  1  0  0  0  0  0  0  0  0
  1  2  4  0  0  0  0
  1  6  4  0  0  0  0
  2  3  4  0  0  0  0
  2 18  1  0  0  0  0
  3  4  4  0  0  0  0
  4  5  4  0  0  0  0
  4  7  4  0  0  0  0
  5  6  4  0  0  0  0
  5  9  4  0  0  0  0
  6 25  1  0  0  0  0
  7  8  4  0  0  0  0
  7 26  1  0  0  0  0
  8  9  4  0  0  0  0
  9 10  1  0  0  0  0
 10 11  4  0  0  0  0
 10 15  4  0  0  0  0
 11 12  4  0  0  0  0
 11 27  1  0  0  0  0
 12 13  4  0  0  0  0
 12 28  1  0  0  0  0
 13 14  4  0  0  0  0
 13 16  1  0  0  0  0
 14 15  4  0  0  0  0
 14 29  1  0  0  0  0
 15 30  1  0  0  0  0
 16 17  1  0  0  0  0
 17 31  1  0  0  0  0
 17 32  1  0  0  0  0
 17 33  1  0  0  0  0
 18 19  1  0  0  0  0
 18 34  1  0  0  0  0
 19 20  1  0  0  0  0
 19 23  1  0  0  0  0
 19 35  1  0  0  0  0
 20 21  1  0  0  0  0
 20 36  1  0  0  0  0
 20 37  1  0  0  0  0
 21 22  1  0  0  0  0
 21 24  1  0  0  0  0
 21 38  1  0  0  0  0
 22 23  1  0  0  0  0
 22 39  1  0  0  0  0
 22 40  1  0  0  0  0
 23 41  1  0  0  0  0
 23 42  1  0  0  0  0
 24 43  1  0  0  0  0
 24 44  1  0  0  0  0
M  END
> <ConfClashScore>
0 

> <ConfOneFourInteractionScore>
-0.985399 

> <ConfScore>
-0.0224747 

> <ConfScorePBest>
0.00290017 

> <ConfTolerance>
0.349222 

$$$$
c13.sdf
 OpenBabel04162418043D

 44 47  0  0  0  0  0  0  0  0999 V2000
    2.1079   -0.3774   -1.8533 N   0  0  0  1  0  0  0  0  0  0  0  0
    2.5364    0.5907   -2.6455 C   0  0  0  1  0  0  0  0  0  0  0  0
    2.1525    0.6996   -3.8969 N   0  0  0  1  0  0  0  0  0  0  0  0
    1.2986   -0.1837   -4.4201 C   0  0  0  1  0  0  0  0  0  0  0  0
    0.8204   -1.2305   -3.6033 C   0  0  0  1  0  0  0  0  0  0  0  0
    1.2615   -1.2961   -2.2849 C   0  0  0  1  0  0  0  0  0  0  0  0
    0.7018   -0.3513   -5.6890 C   0  0  0  1  0  0  0  0  0  0  0  0
   -0.0689   -1.4010   -5.6538 N   0  0  0  1  0  0  0  0  0  0  0  0
   -0.0256   -1.9781   -4.3778 N   0  0  0  1  0  0  0  0  0  0  0  0
   -0.7806   -3.1369   -4.0812 C   0  0  0  1  0  0  0  0  0  0  0  0
   -0.3592   -4.0005   -3.0878 C   0  0  0  1  0  0  0  0  0  0  0  0
   -1.1019   -5.1333   -2.7935 C   0  0  0  1  0  0  0  0  0  0  0  0
   -2.2609   -5.4021   -3.4970 C   0  0  0  1  0  0  0  0  0  0  0  0
   -2.6834   -4.5357   -4.4933 C   0  0  0  1  0  0  0  0  0  0  0  0
   -1.9429   -3.4062   -4.7868 C   0  0  0  1  0  0  0  0  0  0  0  0
   -2.9836   -6.5114   -3.2129 O   0  0  0  1  0  0  0  0  0  0  0  0
   -2.4059   -7.4541   -2.2964 C   0  0  0  1  0  0  0  0  0  0  0  0
    3.4219    1.5244   -2.1387 N   0  0  0  1  0  0  0  0  0  0  0  0
    3.6869    1.5056   -0.6964 C   0  0  0  1  0  0  0  0  0  0  0  0
    4.7355    2.6018   -0.3062 C   0  0  0  1  0  0  0  0  0  0  0  0
    4.4374    2.8521    1.2106 C   0  0  0  1  0  0  0  0  0  0  0  0
    2.9376    2.5027    1.4243 C   0  0  0  1  0  0  0  0  0  0  0  0
    2.4300    1.9077    0.0991 C   0  0  0  1  0  0  0  0  0  0  0  0
    5.3026    1.9701    2.0623 N   0  0  0  1  0  0  0  0  0  0  0  0
    0.9318   -2.0527   -1.6522 H   0  0  0  1  0  0  0  0  0  0  0  0
    0.8529    0.2620   -6.5152 H   0  0  0  1  0  0  0  0  0  0  0  0
    0.5150   -3.8005   -2.5612 H   0  0  0  1  0  0  0  0  0  0  0  0
   -0.7871   -5.7811   -2.0433 H   0  0  0  1  0  0  0  0  0  0  0  0
   -3.5576   -4.7357   -5.0199 H   0  0  0  1  0  0  0  0  0  0  0  0
   -2.2578   -2.7584   -5.5371 H   0  0  0  1  0  0  0  0  0  0  0  0
   -1.3388   -7.3957   -2.3493 H   0  0  0  1  0  0  0  0  0  0  0  0
   -2.7219   -8.4429   -2.5557 H   0  0  0  1  0  0  0  0  0  0  0  0
   -2.7265   -7.2261   -1.3013 H   0  0  0  1  0  0  0  0  0  0  0  0
    3.8583    2.1777   -2.7247 H   0  0  0  1  0  0  0  0  0  0  0  0
    4.0262    0.5326   -0.4083 H   0  0  0  1  0  0  0  0  0  0  0  0
    5.7345    2.2455   -0.4477 H   0  0  0  1  0  0  0  0  0  0  0  0
    4.5899    3.4939   -0.8787 H   0  0  0  1  0  0  0  0  0  0  0  0
    4.6179    3.8770    1.4592 H   0  0  0  1  0  0  0  0  0  0  0  0
    2.8344    1.7872    2.2134 H   0  0  0  1  0  0  0  0  0  0  0  0
    2.3843    3.3855    1.6681 H   0  0  0  1  0  0  0  0  0  0  0  0
    1.8191    1.0496    0.2871 H   0  0  0  1  0  0  0  0  0  0  0  0
    1.8647    2.6366   -0.4430 H   0  0  0  1  0  0  0  0  0  0  0  0
    5.2026    1.0384    1.7754 H   0  0  0  1  0  0  0  0  0  0  0  0
    5.0308    2.0538    3.0001 H   0  0  0  1  0  0  0  0  0  0  0  0
  1  2  4  0  0  0  0
  1  6  4  0  0  0  0
  2  3  4  0  0  0  0
  2 18  1  0  0  0  0
  3  4  4  0  0  0  0
  4  5  4  0  0  0  0
  4  7  4  0  0  0  0
  5  6  4  0  0  0  0
  5  9  4  0  0  0  0
  6 25  1  0  0  0  0
  7  8  4  0  0  0  0
  7 26  1  0  0  0  0
  8  9  4  0  0  0  0
  9 10  1  0  0  0  0
 10 11  4  0  0  0  0
 10 15  4  0  0  0  0
 11 12  4  0  0  0  0
 11 27  1  0  0  0  0
 12 13  4  0  0  0  0
 12 28  1  0  0  0  0
 13 14  4  0  0  0  0
 13 16  1  0  0  0  0
 14 15  4  0  0  0  0
 14 29  1  0  0  0  0
 15 30  1  0  0  0  0
 16 17  1  0  0  0  0
 17 31  1  0  0  0  0
 17 32  1  0  0  0  0
 17 33  1  0  0  0  0
 18 19  1  0  0  0  0
 18 34  1  0  0  0  0
 19 20  1  0  0  0  0
 19 23  1  0  0  0  0
 19 35  1  0  0  0  0
 20 21  1  0  0  0  0
 20 36  1  0  0  0  0
 20 37  1  0  0  0  0
 21 22  1  0  0  0  0
 21 24  1  0  0  0  0
 21 38  1  0  0  0  0
 22 23  1  0  0  0  0
 22 39  1  0  0  0  0
 22 40  1  0  0  0  0
 23 41  1  0  0  0  0
 23 42  1  0  0  0  0
 24 43  1  0  0  0  0
 24 44  1  0  0  0  0
M  END
> <ConfClashScore>
0 

> <ConfOneFourInteractionScore>
-0.981848 

> <ConfScore>
-0.0215749 

> <ConfScorePBest>
0.00288684 

> <ConfTolerance>
0.32465 

$$$$
c13.sdf
 OpenBabel04162418043D

 44 47  0  0  0  0  0  0  0  0999 V2000
    2.1080   -0.3774   -1.8532 N   0  0  0  1  0  0  0  0  0  0  0  0
    2.5364    0.5907   -2.6455 C   0  0  0  1  0  0  0  0  0  0  0  0
    2.1526    0.6996   -3.8968 N   0  0  0  1  0  0  0  0  0  0  0  0
    1.2986   -0.1837   -4.4201 C   0  0  0  1  0  0  0  0  0  0  0  0
    0.8205   -1.2305   -3.6034 C   0  0  0  1  0  0  0  0  0  0  0  0
    1.2615   -1.2961   -2.2850 C   0  0  0  1  0  0  0  0  0  0  0  0
    0.7019   -0.3512   -5.6889 C   0  0  0  1  0  0  0  0  0  0  0  0
   -0.0690   -1.4009   -5.6538 N   0  0  0  1  0  0  0  0  0  0  0  0
   -0.0256   -1.9781   -4.3778 N   0  0  0  1  0  0  0  0  0  0  0  0
   -0.8720   -3.0640   -4.0191 C   0  0  0  1  0  0  0  0  0  0  0  0
   -0.3227   -4.2431   -3.5522 C   0  0  0  1  0  0  0  0  0  0  0  0
   -1.1476   -5.2993   -3.1976 C   0  0  0  1  0  0  0  0  0  0  0  0
   -2.5190   -5.1751   -3.3160 C   0  0  0  1  0  0  0  0  0  0  0  0
   -3.0698   -3.9923   -3.7845 C   0  0  0  1  0  0  0  0  0  0  0  0
   -2.2475   -2.9393   -4.1381 C   0  0  0  1  0  0  0  0  0  0  0  0
   -3.2679   -6.2451   -2.9581 O   0  0  0  1  0  0  0  0  0  0  0  0
   -2.5860   -7.4985   -2.7955 C   0  0  0  1  0  0  0  0  0  0  0  0
    3.3914    1.4695   -2.1106 N   0  0  0  1  0  0  0  0  0  0  0  0
    4.0692    2.5636   -2.8134 C   0  0  0  1  0  0  0  0  0  0  0  0
    3.0674    3.3717   -3.6337 C   0  0  0  1  0  0  0  0  0  0  0  0
    3.7902    4.7207   -3.8110 C   0  0  0  1  0  0  0  0  0  0  0  0
    4.7104    4.8622   -2.6087 C   0  0  0  1  0  0  0  0  0  0  0  0
    4.6656    3.5440   -1.8186 C   0  0  0  1  0  0  0  0  0  0  0  0
    4.5734    4.7220   -5.0582 N   0  0  0  1  0  0  0  0  0  0  0  0
    0.9317   -2.0528   -1.6523 H   0  0  0  1  0  0  0  0  0  0  0  0
    0.8529    0.2621   -6.5151 H   0  0  0  1  0  0  0  0  0  0  0  0
    0.7095   -4.3381   -3.4668 H   0  0  0  1  0  0  0  0  0  0  0  0
   -0.7344   -6.1851   -2.8423 H   0  0  0  1  0  0  0  0  0  0  0  0
   -4.1019   -3.8974   -3.8698 H   0  0  0  1  0  0  0  0  0  0  0  0
   -2.6605   -2.0534   -4.4933 H   0  0  0  1  0  0  0  0  0  0  0  0
   -2.2508   -7.8491   -3.7493 H   0  0  0  1  0  0  0  0  0  0  0  0
   -3.2549   -8.2153   -2.3672 H   0  0  0  1  0  0  0  0  0  0  0  0
   -1.7439   -7.3649   -2.1489 H   0  0  0  1  0  0  0  0  0  0  0  0
    3.5838    1.3725   -1.1545 H   0  0  0  1  0  0  0  0  0  0  0  0
    4.8331    2.1624   -3.4463 H   0  0  0  1  0  0  0  0  0  0  0  0
    2.8786    2.9075   -4.5790 H   0  0  0  1  0  0  0  0  0  0  0  0
    2.1451    3.4941   -3.1054 H   0  0  0  1  0  0  0  0  0  0  0  0
    3.0816    5.5222   -3.8334 H   0  0  0  1  0  0  0  0  0  0  0  0
    5.7102    5.0545   -2.9376 H   0  0  0  1  0  0  0  0  0  0  0  0
    4.3768    5.6682   -1.9892 H   0  0  0  1  0  0  0  0  0  0  0  0
    4.0445    3.6369   -0.9523 H   0  0  0  1  0  0  0  0  0  0  0  0
    5.6481    3.2405   -1.5227 H   0  0  0  1  0  0  0  0  0  0  0  0
    4.9838    5.6027   -5.1859 H   0  0  0  1  0  0  0  0  0  0  0  0
    3.9827    4.5243   -5.8148 H   0  0  0  1  0  0  0  0  0  0  0  0
  1  2  4  0  0  0  0
  1  6  4  0  0  0  0
  2  3  4  0  0  0  0
  2 18  1  0  0  0  0
  3  4  4  0  0  0  0
  4  5  4  0  0  0  0
  4  7  4  0  0  0  0
  5  6  4  0  0  0  0
  5  9  4  0  0  0  0
  6 25  1  0  0  0  0
  7  8  4  0  0  0  0
  7 26  1  0  0  0  0
  8  9  4  0  0  0  0
  9 10  1  0  0  0  0
 10 11  4  0  0  0  0
 10 15  4  0  0  0  0
 11 12  4  0  0  0  0
 11 27  1  0  0  0  0
 12 13  4  0  0  0  0
 12 28  1  0  0  0  0
 13 14  4  0  0  0  0
 13 16  1  0  0  0  0
 14 15  4  0  0  0  0
 14 29  1  0  0  0  0
 15 30  1  0  0  0  0
 16 17  1  0  0  0  0
 17 31  1  0  0  0  0
 17 32  1  0  0  0  0
 17 33  1  0  0  0  0
 18 19  1  0  0  0  0
 18 34  1  0  0  0  0
 19 20  1  0  0  0  0
 19 23  1  0  0  0  0
 19 35  1  0  0  0  0
 20 21  1  0  0  0  0
 20 36  1  0  0  0  0
 20 37  1  0  0  0  0
 21 22  1  0  0  0  0
 21 24  1  0  0  0  0
 21 38  1  0  0  0  0
 22 23  1  0  0  0  0
 22 39  1  0  0  0  0
 22 40  1  0  0  0  0
 23 41  1  0  0  0  0
 23 42  1  0  0  0  0
 24 43  1  0  0  0  0
 24 44  1  0  0  0  0
M  END
> <ConfClashScore>
0 

> <ConfOneFourInteractionScore>
-0.985399 

> <ConfScore>
-0.0215244 

> <ConfScorePBest>
0.00287351 

> <ConfTolerance>
0.281232 

$$$$
c13.sdf
 OpenBabel04162418043D

 44 47  0  0  0  0  0  0  0  0999 V2000
    2.1079   -0.3773   -1.8532 N   0  0  0  1  0  0  0  0  0  0  0  0
    2.5364    0.5907   -2.6455 C   0  0  0  1  0  0  0  0  0  0  0  0
    2.1525    0.6997   -3.8968 N   0  0  0  1  0  0  0  0  0  0  0  0
    1.2985   -0.1838   -4.4201 C   0  0  0  1  0  0  0  0  0  0  0  0
    0.8205   -1.2305   -3.6033 C   0  0  0  1  0  0  0  0  0  0  0  0
    1.2615   -1.2960   -2.2849 C   0  0  0  1  0  0  0  0  0  0  0  0
    0.7020   -0.3513   -5.6890 C   0  0  0  1  0  0  0  0  0  0  0  0
   -0.0689   -1.4011   -5.6537 N   0  0  0  1  0  0  0  0  0  0  0  0
   -0.0256   -1.9781   -4.3778 N   0  0  0  1  0  0  0  0  0  0  0  0
   -0.8580   -3.0732   -4.0701 C   0  0  0  1  0  0  0  0  0  0  0  0
   -0.8664   -3.6693   -2.8232 C   0  0  0  1  0  0  0  0  0  0  0  0
   -1.7093   -4.7409   -2.5730 C   0  0  0  1  0  0  0  0  0  0  0  0
   -2.5377   -5.2165   -3.5720 C   0  0  0  1  0  0  0  0  0  0  0  0
   -2.5293   -4.6185   -4.8225 C   0  0  0  1  0  0  0  0  0  0  0  0
   -1.6887   -3.5501   -5.0721 C   0  0  0  1  0  0  0  0  0  0  0  0
   -3.3093   -6.2659   -3.2136 O   0  0  0  1  0  0  0  0  0  0  0  0
   -4.1693   -6.8767   -4.1883 C   0  0  0  1  0  0  0  0  0  0  0  0
    3.4098    1.5118   -2.1456 N   0  0  0  1  0  0  0  0  0  0  0  0
    3.8031    2.6973   -2.9143 C   0  0  0  1  0  0  0  0  0  0  0  0
    3.0257    3.9295   -2.4433 C   0  0  0  1  0  0  0  0  0  0  0  0
    4.0097    5.1017   -2.5563 C   0  0  0  1  0  0  0  0  0  0  0  0
    5.3262    4.5086   -3.0694 C   0  0  0  1  0  0  0  0  0  0  0  0
    5.2725    3.0472   -2.6554 C   0  0  0  1  0  0  0  0  0  0  0  0
    3.4962    6.1127   -3.5098 N   0  0  0  1  0  0  0  0  0  0  0  0
    0.9317   -2.0526   -1.6522 H   0  0  0  1  0  0  0  0  0  0  0  0
    0.8529    0.2620   -6.5151 H   0  0  0  1  0  0  0  0  0  0  0  0
   -0.2401   -3.3140   -2.0727 H   0  0  0  1  0  0  0  0  0  0  0  0
   -1.7185   -5.1869   -1.6336 H   0  0  0  1  0  0  0  0  0  0  0  0
   -3.1554   -4.9739   -5.5730 H   0  0  0  1  0  0  0  0  0  0  0  0
   -1.6796   -3.1040   -6.0115 H   0  0  0  1  0  0  0  0  0  0  0  0
   -3.5853   -7.4777   -4.8534 H   0  0  0  1  0  0  0  0  0  0  0  0
   -4.6734   -6.1151   -4.7459 H   0  0  0  1  0  0  0  0  0  0  0  0
   -4.8902   -7.4920   -3.6918 H   0  0  0  1  0  0  0  0  0  0  0  0
    3.7841    1.3778   -1.2500 H   0  0  0  1  0  0  0  0  0  0  0  0
    3.6348    2.5196   -3.9559 H   0  0  0  1  0  0  0  0  0  0  0  0
    2.1733    4.0954   -3.0684 H   0  0  0  1  0  0  0  0  0  0  0  0
    2.7066    3.8055   -1.4296 H   0  0  0  1  0  0  0  0  0  0  0  0
    4.1564    5.5559   -1.5987 H   0  0  0  1  0  0  0  0  0  0  0  0
    6.1632    4.9989   -2.6179 H   0  0  0  1  0  0  0  0  0  0  0  0
    5.3915    4.5978   -4.1337 H   0  0  0  1  0  0  0  0  0  0  0  0
    5.9262    2.4490   -3.2552 H   0  0  0  1  0  0  0  0  0  0  0  0
    5.5249    2.9263   -1.6226 H   0  0  0  1  0  0  0  0  0  0  0  0
    3.2599    5.6753   -4.3544 H   0  0  0  1  0  0  0  0  0  0  0  0
    4.1877    6.7875   -3.6738 H   0  0  0  1  0  0  0  0  0  0  0  0
  1  2  4  0  0  0  0
  1  6  4  0  0  0  0
  2  3  4  0  0  0  0
  2 18  1  0  0  0  0
  3  4  4  0  0  0  0
  4  5  4  0  0  0  0
  4  7  4  0  0  0  0
  5  6  4  0  0  0  0
  5  9  4  0  0  0  0
  6 25  1  0  0  0  0
  7  8  4  0  0  0  0
  7 26  1  0  0  0  0
  8  9  4  0  0  0  0
  9 10  1  0  0  0  0
 10 11  4  0  0  0  0
 10 15  4  0  0  0  0
 11 12  4  0  0  0  0
 11 27  1  0  0  0  0
 12 13  4  0  0  0  0
 12 28  1  0  0  0  0
 13 14  4  0  0  0  0
 13 16  1  0  0  0  0
 14 15  4  0  0  0  0
 14 29  1  0  0  0  0
 15 30  1  0  0  0  0
 16 17  1  0  0  0  0
 17 31  1  0  0  0  0
 17 32  1  0  0  0  0
 17 33  1  0  0  0  0
 18 19  1  0  0  0  0
 18 34  1  0  0  0  0
 19 20  1  0  0  0  0
 19 23  1  0  0  0  0
 19 35  1  0  0  0  0
 20 21  1  0  0  0  0
 20 36  1  0  0  0  0
 20 37  1  0  0  0  0
 21 22  1  0  0  0  0
 21 24  1  0  0  0  0
 21 38  1  0  0  0  0
 22 23  1  0  0  0  0
 22 39  1  0  0  0  0
 22 40  1  0  0  0  0
 23 41  1  0  0  0  0
 23 42  1  0  0  0  0
 24 43  1  0  0  0  0
 24 44  1  0  0  0  0
M  END
> <ConfClashScore>
0 

> <ConfOneFourInteractionScore>
-0.984337 

> <ConfScore>
-0.0212257 

> <ConfScorePBest>
0.00286018 

> <ConfTolerance>
0.396957 

$$$$
c13.sdf
 OpenBabel04162418043D

 44 47  0  0  0  0  0  0  0  0999 V2000
    2.1080   -0.3774   -1.8533 N   0  0  0  1  0  0  0  0  0  0  0  0
    2.5363    0.5907   -2.6455 C   0  0  0  1  0  0  0  0  0  0  0  0
    2.1526    0.6997   -3.8968 N   0  0  0  1  0  0  0  0  0  0  0  0
    1.2986   -0.1837   -4.4201 C   0  0  0  1  0  0  0  0  0  0  0  0
    0.8205   -1.2305   -3.6034 C   0  0  0  1  0  0  0  0  0  0  0  0
    1.2617   -1.2961   -2.2849 C   0  0  0  1  0  0  0  0  0  0  0  0
    0.7019   -0.3512   -5.6889 C   0  0  0  1  0  0  0  0  0  0  0  0
   -0.0689   -1.4009   -5.6538 N   0  0  0  1  0  0  0  0  0  0  0  0
   -0.0256   -1.9781   -4.3778 N   0  0  0  1  0  0  0  0  0  0  0  0
   -0.6861   -3.1908   -4.0715 C   0  0  0  1  0  0  0  0  0  0  0  0
   -0.1722   -4.3910   -4.5249 C   0  0  0  1  0  0  0  0  0  0  0  0
   -0.8165   -5.5799   -4.2203 C   0  0  0  1  0  0  0  0  0  0  0  0
   -1.9758   -5.5647   -3.4677 C   0  0  0  1  0  0  0  0  0  0  0  0
   -2.4910   -4.3608   -3.0130 C   0  0  0  1  0  0  0  0  0  0  0  0
   -1.8486   -3.1753   -3.3167 C   0  0  0  1  0  0  0  0  0  0  0  0
   -2.5788   -6.7086   -3.0654 O   0  0  0  1  0  0  0  0  0  0  0  0
   -2.0128   -7.9456   -3.5257 C   0  0  0  1  0  0  0  0  0  0  0  0
    3.4218    1.5244   -2.1389 N   0  0  0  1  0  0  0  0  0  0  0  0
    3.8537    1.4382   -0.7399 C   0  0  0  1  0  0  0  0  0  0  0  0
    5.0515    2.3441   -0.4785 C   0  0  0  1  0  0  0  0  0  0  0  0
    4.4243    3.7397   -0.3433 C   0  0  0  1  0  0  0  0  0  0  0  0
    3.0464    3.5151    0.2606 C   0  0  0  1  0  0  0  0  0  0  0  0
    2.7826    2.0080    0.2069 C   0  0  0  1  0  0  0  0  0  0  0  0
    5.2393    4.5840    0.5407 N   0  0  0  1  0  0  0  0  0  0  0  0
    0.9319   -2.0528   -1.6523 H   0  0  0  1  0  0  0  0  0  0  0  0
    0.8527    0.2622   -6.5152 H   0  0  0  1  0  0  0  0  0  0  0  0
    0.6979   -4.4022   -5.0946 H   0  0  0  1  0  0  0  0  0  0  0  0
   -0.4278   -6.4834   -4.5580 H   0  0  0  1  0  0  0  0  0  0  0  0
   -3.3610   -4.3496   -2.4433 H   0  0  0  1  0  0  0  0  0  0  0  0
   -2.2374   -2.2718   -2.9790 H   0  0  0  1  0  0  0  0  0  0  0  0
   -2.4352   -8.2002   -4.4752 H   0  0  0  1  0  0  0  0  0  0  0  0
   -2.2288   -8.7206   -2.8201 H   0  0  0  1  0  0  0  0  0  0  0  0
   -0.9529   -7.8378   -3.6243 H   0  0  0  1  0  0  0  0  0  0  0  0
    3.7602    2.2423   -2.7136 H   0  0  0  1  0  0  0  0  0  0  0  0
    4.0800    0.4208   -0.4980 H   0  0  0  1  0  0  0  0  0  0  0  0
    5.5543    2.0622    0.4230 H   0  0  0  1  0  0  0  0  0  0  0  0
    5.7403    2.3124   -1.2966 H   0  0  0  1  0  0  0  0  0  0  0  0
    4.3395    4.2049   -1.3031 H   0  0  0  1  0  0  0  0  0  0  0  0
    3.0282    3.8566    1.2744 H   0  0  0  1  0  0  0  0  0  0  0  0
    2.3057    4.0394   -0.3063 H   0  0  0  1  0  0  0  0  0  0  0  0
    2.8771    1.5766    1.1815 H   0  0  0  1  0  0  0  0  0  0  0  0
    1.8026    1.8131   -0.1763 H   0  0  0  1  0  0  0  0  0  0  0  0
    4.7303    5.3833    0.7902 H   0  0  0  1  0  0  0  0  0  0  0  0
    6.0582    4.8511    0.0732 H   0  0  0  1  0  0  0  0  0  0  0  0
  1  2  4  0  0  0  0
  1  6  4  0  0  0  0
  2  3  4  0  0  0  0
  2 18  1  0  0  0  0
  3  4  4  0  0  0  0
  4  5  4  0  0  0  0
  4  7  4  0  0  0  0
  5  6  4  0  0  0  0
  5  9  4  0  0  0  0
  6 25  1  0  0  0  0
  7  8  4  0  0  0  0
  7 26  1  0  0  0  0
  8  9  4  0  0  0  0
  9 10  1  0  0  0  0
 10 11  4  0  0  0  0
 10 15  4  0  0  0  0
 11 12  4  0  0  0  0
 11 27  1  0  0  0  0
 12 13  4  0  0  0  0
 12 28  1  0  0  0  0
 13 14  4  0  0  0  0
 13 16  1  0  0  0  0
 14 15  4  0  0  0  0
 14 29  1  0  0  0  0
 15 30  1  0  0  0  0
 16 17  1  0  0  0  0
 17 31  1  0  0  0  0
 17 32  1  0  0  0  0
 17 33  1  0  0  0  0
 18 19  1  0  0  0  0
 18 34  1  0  0  0  0
 19 20  1  0  0  0  0
 19 23  1  0  0  0  0
 19 35  1  0  0  0  0
 20 21  1  0  0  0  0
 20 36  1  0  0  0  0
 20 37  1  0  0  0  0
 21 22  1  0  0  0  0
 21 24  1  0  0  0  0
 21 38  1  0  0  0  0
 22 23  1  0  0  0  0
 22 39  1  0  0  0  0
 22 40  1  0  0  0  0
 23 41  1  0  0  0  0
 23 42  1  0  0  0  0
 24 43  1  0  0  0  0
 24 44  1  0  0  0  0
M  END
> <ConfClashScore>
0 

> <ConfOneFourInteractionScore>
-0.984337 

> <ConfScore>
-0.0209857 

> <ConfScorePBest>
0.00284685 

> <ConfTolerance>
0.511587 

$$$$
c13.sdf
 OpenBabel04162418043D

 44 47  0  0  0  0  0  0  0  0999 V2000
    2.1079   -0.3774   -1.8533 N   0  0  0  1  0  0  0  0  0  0  0  0
    2.5364    0.5907   -2.6455 C   0  0  0  1  0  0  0  0  0  0  0  0
    2.1525    0.6995   -3.8968 N   0  0  0  1  0  0  0  0  0  0  0  0
    1.2986   -0.1837   -4.4201 C   0  0  0  1  0  0  0  0  0  0  0  0
    0.8204   -1.2305   -3.6033 C   0  0  0  1  0  0  0  0  0  0  0  0
    1.2615   -1.2961   -2.2849 C   0  0  0  1  0  0  0  0  0  0  0  0
    0.7018   -0.3513   -5.6890 C   0  0  0  1  0  0  0  0  0  0  0  0
   -0.0690   -1.4011   -5.6537 N   0  0  0  1  0  0  0  0  0  0  0  0
   -0.0256   -1.9781   -4.3778 N   0  0  0  1  0  0  0  0  0  0  0  0
   -0.7744   -3.1274   -4.0835 C   0  0  0  1  0  0  0  0  0  0  0  0
   -1.8569   -3.5684   -4.8212 C   0  0  0  1  0  0  0  0  0  0  0  0
   -2.5264   -4.7229   -4.4467 C   0  0  0  1  0  0  0  0  0  0  0  0
   -2.1150   -5.4302   -3.3328 C   0  0  0  1  0  0  0  0  0  0  0  0
   -1.0293   -4.9877   -2.5931 C   0  0  0  1  0  0  0  0  0  0  0  0
   -0.3616   -3.8366   -2.9663 C   0  0  0  1  0  0  0  0  0  0  0  0
   -2.8389   -6.5232   -3.0655 O   0  0  0  1  0  0  0  0  0  0  0  0
   -2.4021   -7.5140   -2.0754 C   0  0  0  1  0  0  0  0  0  0  0  0
    3.3925    1.4705   -2.1100 N   0  0  0  1  0  0  0  0  0  0  0  0
    3.8665    1.5649   -0.7254 C   0  0  0  1  0  0  0  0  0  0  0  0
    5.3647    1.2516   -0.6488 C   0  0  0  1  0  0  0  0  0  0  0  0
    6.0565    2.6059   -0.8050 C   0  0  0  1  0  0  0  0  0  0  0  0
    5.1463    3.5267    0.0115 C   0  0  0  1  0  0  0  0  0  0  0  0
    3.7254    3.0014   -0.2062 C   0  0  0  1  0  0  0  0  0  0  0  0
    7.4174    2.5760   -0.2532 N   0  0  0  1  0  0  0  0  0  0  0  0
    0.9317   -2.0527   -1.6523 H   0  0  0  1  0  0  0  0  0  0  0  0
    0.8528    0.2621   -6.5151 H   0  0  0  1  0  0  0  0  0  0  0  0
   -2.1689   -3.0340   -5.6570 H   0  0  0  1  0  0  0  0  0  0  0  0
   -3.3385   -5.0569   -5.0041 H   0  0  0  1  0  0  0  0  0  0  0  0
   -0.7173   -5.5220   -1.7572 H   0  0  0  1  0  0  0  0  0  0  0  0
    0.4505   -3.5024   -2.4090 H   0  0  0  1  0  0  0  0  0  0  0  0
   -1.6263   -7.0952   -1.4691 H   0  0  0  1  0  0  0  0  0  0  0  0
   -2.0312   -8.3820   -2.5794 H   0  0  0  1  0  0  0  0  0  0  0  0
   -3.2303   -7.7876   -1.4555 H   0  0  0  1  0  0  0  0  0  0  0  0
    3.7507    2.1424   -2.7271 H   0  0  0  1  0  0  0  0  0  0  0  0
    3.3104    0.8882   -0.1107 H   0  0  0  1  0  0  0  0  0  0  0  0
    5.6517    0.5888   -1.4383 H   0  0  0  1  0  0  0  0  0  0  0  0
    5.6094    0.8102    0.2948 H   0  0  0  1  0  0  0  0  0  0  0  0
    6.0936    2.9069   -1.8310 H   0  0  0  1  0  0  0  0  0  0  0  0
    5.4053    3.4834    1.0487 H   0  0  0  1  0  0  0  0  0  0  0  0
    5.2284    4.5356   -0.3354 H   0  0  0  1  0  0  0  0  0  0  0  0
    3.2143    3.6058   -0.9262 H   0  0  0  1  0  0  0  0  0  0  0  0
    3.1832    3.0092    0.7161 H   0  0  0  1  0  0  0  0  0  0  0  0
    7.3965    2.1929    0.6486 H   0  0  0  1  0  0  0  0  0  0  0  0
    7.7731    3.4882   -0.2122 H   0  0  0  1  0  0  0  0  0  0  0  0
  1  2  4  0  0  0  0
  1  6  4  0  0  0  0
  2  3  4  0  0  0  0
  2 18  1  0  0  0  0
  3  4  4  0  0  0  0
  4  5  4  0  0  0  0
  4  7  4  0  0  0  0
  5  6  4  0  0  0  0
  5  9  4  0  0  0  0
  6 25  1  0  0  0  0
  7  8  4  0  0  0  0
  7 26  1  0  0  0  0
  8  9  4  0  0  0  0
  9 10  1  0  0  0  0
 10 11  4  0  0  0  0
 10 15  4  0  0  0  0
 11 12  4  0  0  0  0
 11 27  1  0  0  0  0
 12 13  4  0  0  0  0
 12 28  1  0  0  0  0
 13 14  4  0  0  0  0
 13 16  1  0  0  0  0
 14 15  4  0  0  0  0
 14 29  1  0  0  0  0
 15 30  1  0  0  0  0
 16 17  1  0  0  0  0
 17 31  1  0  0  0  0
 17 32  1  0  0  0  0
 17 33  1  0  0  0  0
 18 19  1  0  0  0  0
 18 34  1  0  0  0  0
 19 20  1  0  0  0  0
 19 23  1  0  0  0  0
 19 35  1  0  0  0  0
 20 21  1  0  0  0  0
 20 36  1  0  0  0  0
 20 37  1  0  0  0  0
 21 22  1  0  0  0  0
 21 24  1  0  0  0  0
 21 38  1  0  0  0  0
 22 23  1  0  0  0  0
 22 39  1  0  0  0  0
 22 40  1  0  0  0  0
 23 41  1  0  0  0  0
 23 42  1  0  0  0  0
 24 43  1  0  0  0  0
 24 44  1  0  0  0  0
M  END
> <ConfClashScore>
0 

> <ConfOneFourInteractionScore>
-0.984337 

> <ConfScore>
-0.0208412 

> <ConfScorePBest>
0.00283353 

> <ConfTolerance>
0.391763 

$$$$
c13.sdf
 OpenBabel04162418043D

 44 47  0  0  0  0  0  0  0  0999 V2000
    2.1080   -0.3774   -1.8532 N   0  0  0  1  0  0  0  0  0  0  0  0
    2.5363    0.5907   -2.6455 C   0  0  0  1  0  0  0  0  0  0  0  0
    2.1526    0.6996   -3.8967 N   0  0  0  1  0  0  0  0  0  0  0  0
    1.2986   -0.1837   -4.4201 C   0  0  0  1  0  0  0  0  0  0  0  0
    0.8205   -1.2305   -3.6034 C   0  0  0  1  0  0  0  0  0  0  0  0
    1.2615   -1.2960   -2.2849 C   0  0  0  1  0  0  0  0  0  0  0  0
    0.7019   -0.3512   -5.6889 C   0  0  0  1  0  0  0  0  0  0  0  0
   -0.0689   -1.4010   -5.6538 N   0  0  0  1  0  0  0  0  0  0  0  0
   -0.0256   -1.9781   -4.3778 N   0  0  0  1  0  0  0  0  0  0  0  0
   -0.7779   -3.1328   -4.0822 C   0  0  0  1  0  0  0  0  0  0  0  0
   -0.2212   -4.3979   -4.0777 C   0  0  0  1  0  0  0  0  0  0  0  0
   -1.0063   -5.4993   -3.7745 C   0  0  0  1  0  0  0  0  0  0  0  0
   -2.3469   -5.3333   -3.4820 C   0  0  0  1  0  0  0  0  0  0  0  0
   -2.9050   -4.0642   -3.4866 C   0  0  0  1  0  0  0  0  0  0  0  0
   -2.1223   -2.9660   -3.7888 C   0  0  0  1  0  0  0  0  0  0  0  0
   -3.0591   -6.4499   -3.1997 O   0  0  0  1  0  0  0  0  0  0  0  0
   -2.3177   -7.6463   -2.9145 C   0  0  0  1  0  0  0  0  0  0  0  0
    3.4116    1.5446   -2.2066 N   0  0  0  1  0  0  0  0  0  0  0  0
    3.8585    1.5965   -0.8118 C   0  0  0  1  0  0  0  0  0  0  0  0
    5.3844    1.6016   -0.7180 C   0  0  0  1  0  0  0  0  0  0  0  0
    5.6912    2.2054    0.6569 C   0  0  0  1  0  0  0  0  0  0  0  0
    4.5113    3.1363    0.9634 C   0  0  0  1  0  0  0  0  0  0  0  0
    3.4928    2.9325   -0.1608 C   0  0  0  1  0  0  0  0  0  0  0  0
    5.7913    1.1295    1.6904 N   0  0  0  1  0  0  0  0  0  0  0  0
    0.9318   -2.0527   -1.6523 H   0  0  0  1  0  0  0  0  0  0  0  0
    0.8529    0.2621   -6.5152 H   0  0  0  1  0  0  0  0  0  0  0  0
    0.7866   -4.5234   -4.3017 H   0  0  0  1  0  0  0  0  0  0  0  0
   -0.5866   -6.4508   -3.7672 H   0  0  0  1  0  0  0  0  0  0  0  0
   -3.9129   -3.9388   -3.2625 H   0  0  0  1  0  0  0  0  0  0  0  0
   -2.5421   -2.0145   -3.7962 H   0  0  0  1  0  0  0  0  0  0  0  0
   -1.5542   -7.4308   -2.1964 H   0  0  0  1  0  0  0  0  0  0  0  0
   -1.8679   -8.0100   -3.8146 H   0  0  0  1  0  0  0  0  0  0  0  0
   -2.9785   -8.3896   -2.5199 H   0  0  0  1  0  0  0  0  0  0  0  0
    3.7491    2.2110   -2.8411 H   0  0  0  1  0  0  0  0  0  0  0  0
    3.4391    0.7735   -0.2716 H   0  0  0  1  0  0  0  0  0  0  0  0
    5.8075    2.2021   -1.4960 H   0  0  0  1  0  0  0  0  0  0  0  0
    5.7693    0.6055   -0.7864 H   0  0  0  1  0  0  0  0  0  0  0  0
    6.6067    2.7584    0.6272 H   0  0  0  1  0  0  0  0  0  0  0  0
    4.8397    4.1544    0.9843 H   0  0  0  1  0  0  0  0  0  0  0  0
    4.0756    2.8821    1.9071 H   0  0  0  1  0  0  0  0  0  0  0  0
    2.5004    2.8944    0.2372 H   0  0  0  1  0  0  0  0  0  0  0  0
    3.5612    3.7267   -0.8746 H   0  0  0  1  0  0  0  0  0  0  0  0
    6.5748    0.5705    1.5059 H   0  0  0  1  0  0  0  0  0  0  0  0
    4.9825    0.5765    1.6654 H   0  0  0  1  0  0  0  0  0  0  0  0
  1  2  4  0  0  0  0
  1  6  4  0  0  0  0
  2  3  4  0  0  0  0
  2 18  1  0  0  0  0
  3  4  4  0  0  0  0
  4  5  4  0  0  0  0
  4  7  4  0  0  0  0
  5  6  4  0  0  0  0
  5  9  4  0  0  0  0
  6 25  1  0  0  0  0
  7  8  4  0  0  0  0
  7 26  1  0  0  0  0
  8  9  4  0  0  0  0
  9 10  1  0  0  0  0
 10 11  4  0  0  0  0
 10 15  4  0  0  0  0
 11 12  4  0  0  0  0
 11 27  1  0  0  0  0
 12 13  4  0  0  0  0
 12 28  1  0  0  0  0
 13 14  4  0  0  0  0
 13 16  1  0  0  0  0
 14 15  4  0  0  0  0
 14 29  1  0  0  0  0
 15 30  1  0  0  0  0
 16 17  1  0  0  0  0
 17 31  1  0  0  0  0
 17 32  1  0  0  0  0
 17 33  1  0  0  0  0
 18 19  1  0  0  0  0
 18 34  1  0  0  0  0
 19 20  1  0  0  0  0
 19 23  1  0  0  0  0
 19 35  1  0  0  0  0
 20 21  1  0  0  0  0
 20 36  1  0  0  0  0
 20 37  1  0  0  0  0
 21 22  1  0  0  0  0
 21 24  1  0  0  0  0
 21 38  1  0  0  0  0
 22 23  1  0  0  0  0
 22 39  1  0  0  0  0
 22 40  1  0  0  0  0
 23 41  1  0  0  0  0
 23 42  1  0  0  0  0
 24 43  1  0  0  0  0
 24 44  1  0  0  0  0
M  END
> <ConfClashScore>
0 

> <ConfOneFourInteractionScore>
-0.984337 

> <ConfScore>
-0.0198432 

> <ConfScorePBest>
0.0028202 

> <ConfTolerance>
0.438591 

$$$$
c13.sdf
 OpenBabel04162418043D

 44 47  0  0  0  0  0  0  0  0999 V2000
    2.1080   -0.3773   -1.8532 N   0  0  0  1  0  0  0  0  0  0  0  0
    2.5364    0.5907   -2.6454 C   0  0  0  1  0  0  0  0  0  0  0  0
    2.1526    0.6996   -3.8968 N   0  0  0  1  0  0  0  0  0  0  0  0
    1.2985   -0.1837   -4.4202 C   0  0  0  1  0  0  0  0  0  0  0  0
    0.8204   -1.2305   -3.6033 C   0  0  0  1  0  0  0  0  0  0  0  0
    1.2616   -1.2960   -2.2850 C   0  0  0  1  0  0  0  0  0  0  0  0
    0.7019   -0.3513   -5.6890 C   0  0  0  1  0  0  0  0  0  0  0  0
   -0.0689   -1.4010   -5.6537 N   0  0  0  1  0  0  0  0  0  0  0  0
   -0.0256   -1.9781   -4.3778 N   0  0  0  1  0  0  0  0  0  0  0  0
   -0.7857   -3.1447   -4.0791 C   0  0  0  1  0  0  0  0  0  0  0  0
   -2.1178   -3.0258   -3.7304 C   0  0  0  1  0  0  0  0  0  0  0  0
   -2.8869   -4.1624   -3.5344 C   0  0  0  1  0  0  0  0  0  0  0  0
   -2.3203   -5.4143   -3.6824 C   0  0  0  1  0  0  0  0  0  0  0  0
   -0.9842   -5.5334   -4.0322 C   0  0  0  1  0  0  0  0  0  0  0  0
   -0.2173   -4.4003   -4.2276 C   0  0  0  1  0  0  0  0  0  0  0  0
   -3.0144   -6.5628   -3.5005 O   0  0  0  1  0  0  0  0  0  0  0  0
   -2.2555   -7.7761   -3.3798 C   0  0  0  1  0  0  0  0  0  0  0  0
    3.4099    1.5117   -2.1457 N   0  0  0  1  0  0  0  0  0  0  0  0
    3.8807    2.6427   -2.9506 C   0  0  0  1  0  0  0  0  0  0  0  0
    5.1485    3.3155   -2.3031 C   0  0  0  1  0  0  0  0  0  0  0  0
    5.7572    4.0642   -3.5321 C   0  0  0  1  0  0  0  0  0  0  0  0
    5.3815    3.2539   -4.7745 C   0  0  0  1  0  0  0  0  0  0  0  0
    4.4173    2.1766   -4.2972 C   0  0  0  1  0  0  0  0  0  0  0  0
    5.1943    5.4324   -3.6260 N   0  0  0  1  0  0  0  0  0  0  0  0
    0.9317   -2.0526   -1.6522 H   0  0  0  1  0  0  0  0  0  0  0  0
    0.8529    0.2620   -6.5152 H   0  0  0  1  0  0  0  0  0  0  0  0
   -2.5431   -2.0839   -3.6150 H   0  0  0  1  0  0  0  0  0  0  0  0
   -3.8902   -4.0730   -3.2760 H   0  0  0  1  0  0  0  0  0  0  0  0
   -0.5589   -6.4753   -4.1476 H   0  0  0  1  0  0  0  0  0  0  0  0
    0.7860   -4.4896   -4.4861 H   0  0  0  1  0  0  0  0  0  0  0  0
   -1.4421   -7.6226   -2.7019 H   0  0  0  1  0  0  0  0  0  0  0  0
   -1.8721   -8.0536   -4.3395 H   0  0  0  1  0  0  0  0  0  0  0  0
   -2.8869   -8.5560   -3.0084 H   0  0  0  1  0  0  0  0  0  0  0  0
    3.7308    1.4147   -1.2248 H   0  0  0  1  0  0  0  0  0  0  0  0
    3.0866    3.3492   -3.0729 H   0  0  0  1  0  0  0  0  0  0  0  0
    4.8758    3.9972   -1.5248 H   0  0  0  1  0  0  0  0  0  0  0  0
    5.8257    2.5833   -1.9156 H   0  0  0  1  0  0  0  0  0  0  0  0
    6.8216    4.1216   -3.4380 H   0  0  0  1  0  0  0  0  0  0  0  0
    4.9073    3.8826   -5.4988 H   0  0  0  1  0  0  0  0  0  0  0  0
    6.2536    2.8078   -5.2050 H   0  0  0  1  0  0  0  0  0  0  0  0
    4.9299    1.2438   -4.1878 H   0  0  0  1  0  0  0  0  0  0  0  0
    3.6146    2.0632   -4.9956 H   0  0  0  1  0  0  0  0  0  0  0  0
    4.2170    5.3812   -3.6773 H   0  0  0  1  0  0  0  0  0  0  0  0
    5.5407    5.8735   -4.4297 H   0  0  0  1  0  0  0  0  0  0  0  0
  1  2  4  0  0  0  0
  1  6  4  0  0  0  0
  2  3  4  0  0  0  0
  2 18  1  0  0  0  0
  3  4  4  0  0  0  0
  4  5  4  0  0  0  0
  4  7  4  0  0  0  0
  5  6  4  0  0  0  0
  5  9  4  0  0  0  0
  6 25  1  0  0  0  0
  7  8  4  0  0  0  0
  7 26  1  0  0  0  0
  8  9  4  0  0  0  0
  9 10  1  0  0  0  0
 10 11  4  0  0  0  0
 10 15  4  0  0  0  0
 11 12  4  0  0  0  0
 11 27  1  0  0  0  0
 12 13  4  0  0  0  0
 12 28  1  0  0  0  0
 13 14  4  0  0  0  0
 13 16  1  0  0  0  0
 14 15  4  0  0  0  0
 14 29  1  0  0  0  0
 15 30  1  0  0  0  0
 16 17  1  0  0  0  0
 17 31  1  0  0  0  0
 17 32  1  0  0  0  0
 17 33  1  0  0  0  0
 18 19  1  0  0  0  0
 18 34  1  0  0  0  0
 19 20  1  0  0  0  0
 19 23  1  0  0  0  0
 19 35  1  0  0  0  0
 20 21  1  0  0  0  0
 20 36  1  0  0  0  0
 20 37  1  0  0  0  0
 21 22  1  0  0  0  0
 21 24  1  0  0  0  0
 21 38  1  0  0  0  0
 22 23  1  0  0  0  0
 22 39  1  0  0  0  0
 22 40  1  0  0  0  0
 23 41  1  0  0  0  0
 23 42  1  0  0  0  0
 24 43  1  0  0  0  0
 24 44  1  0  0  0  0
M  END
> <ConfClashScore>
0 

> <ConfOneFourInteractionScore>
-0.991168 

> <ConfScore>
-0.0198169 

> <ConfScorePBest>
0.00280687 

> <ConfTolerance>
0.424768 

$$$$
c13.sdf
 OpenBabel04162418043D

 44 47  0  0  0  0  0  0  0  0999 V2000
    2.1080   -0.3774   -1.8533 N   0  0  0  1  0  0  0  0  0  0  0  0
    2.5364    0.5907   -2.6455 C   0  0  0  1  0  0  0  0  0  0  0  0
    2.1526    0.6996   -3.8967 N   0  0  0  1  0  0  0  0  0  0  0  0
    1.2985   -0.1838   -4.4201 C   0  0  0  1  0  0  0  0  0  0  0  0
    0.8204   -1.2305   -3.6034 C   0  0  0  1  0  0  0  0  0  0  0  0
    1.2616   -1.2961   -2.2850 C   0  0  0  1  0  0  0  0  0  0  0  0
    0.7018   -0.3513   -5.6889 C   0  0  0  1  0  0  0  0  0  0  0  0
   -0.0690   -1.4010   -5.6537 N   0  0  0  1  0  0  0  0  0  0  0  0
   -0.0256   -1.9781   -4.3778 N   0  0  0  1  0  0  0  0  0  0  0  0
   -0.7857   -3.1448   -4.0791 C   0  0  0  1  0  0  0  0  0  0  0  0
   -0.1462   -4.3008   -3.6733 C   0  0  0  1  0  0  0  0  0  0  0  0
   -0.8864   -5.4348   -3.3775 C   0  0  0  1  0  0  0  0  0  0  0  0
   -2.2635   -5.4111   -3.4934 C   0  0  0  1  0  0  0  0  0  0  0  0
   -2.9047   -4.2515   -3.9004 C   0  0  0  1  0  0  0  0  0  0  0  0
   -2.1668   -3.1207   -4.1955 C   0  0  0  1  0  0  0  0  0  0  0  0
   -3.0841   -6.4488   -3.2391 O   0  0  0  1  0  0  0  0  0  0  0  0
   -2.4181   -7.6855   -2.8932 C   0  0  0  1  0  0  0  0  0  0  0  0
    3.3977    1.4988   -2.1527 N   0  0  0  1  0  0  0  0  0  0  0  0
    3.8828    2.6591   -2.9071 C   0  0  0  1  0  0  0  0  0  0  0  0
    3.0212    3.8864   -2.6011 C   0  0  0  1  0  0  0  0  0  0  0  0
    4.0014    5.0528   -2.4547 C   0  0  0  1  0  0  0  0  0  0  0  0
    5.2040    4.3794   -1.7935 C   0  0  0  1  0  0  0  0  0  0  0  0
    5.3122    3.0114   -2.4759 C   0  0  0  1  0  0  0  0  0  0  0  0
    4.3646    5.6257   -3.7852 N   0  0  0  1  0  0  0  0  0  0  0  0
    0.9318   -2.0528   -1.6523 H   0  0  0  1  0  0  0  0  0  0  0  0
    0.8527    0.2622   -6.5151 H   0  0  0  1  0  0  0  0  0  0  0  0
    0.8903   -4.3200   -3.5899 H   0  0  0  1  0  0  0  0  0  0  0  0
   -0.4057   -6.3036   -3.0682 H   0  0  0  1  0  0  0  0  0  0  0  0
   -3.9412   -4.2323   -3.9839 H   0  0  0  1  0  0  0  0  0  0  0  0
   -2.6475   -2.2519   -4.5047 H   0  0  0  1  0  0  0  0  0  0  0  0
   -3.0847   -8.3047   -2.3300 H   0  0  0  1  0  0  0  0  0  0  0  0
   -1.5498   -7.4704   -2.3060 H   0  0  0  1  0  0  0  0  0  0  0  0
   -2.1273   -8.1959   -3.7874 H   0  0  0  1  0  0  0  0  0  0  0  0
    3.7201    1.3780   -1.2351 H   0  0  0  1  0  0  0  0  0  0  0  0
    3.8561    2.4408   -3.9542 H   0  0  0  1  0  0  0  0  0  0  0  0
    2.3375    4.0718   -3.4030 H   0  0  0  1  0  0  0  0  0  0  0  0
    2.4750    3.7416   -1.6923 H   0  0  0  1  0  0  0  0  0  0  0  0
    3.5973    5.8237   -1.8322 H   0  0  0  1  0  0  0  0  0  0  0  0
    5.0403    4.2641   -0.7424 H   0  0  0  1  0  0  0  0  0  0  0  0
    6.0929    4.9525   -1.9557 H   0  0  0  1  0  0  0  0  0  0  0  0
    5.6878    2.2799   -1.7911 H   0  0  0  1  0  0  0  0  0  0  0  0
    5.9572    3.0677   -3.3277 H   0  0  0  1  0  0  0  0  0  0  0  0
    4.9101    6.4297   -3.6574 H   0  0  0  1  0  0  0  0  0  0  0  0
    3.5480    5.8595   -4.2739 H   0  0  0  1  0  0  0  0  0  0  0  0
  1  2  4  0  0  0  0
  1  6  4  0  0  0  0
  2  3  4  0  0  0  0
  2 18  1  0  0  0  0
  3  4  4  0  0  0  0
  4  5  4  0  0  0  0
  4  7  4  0  0  0  0
  5  6  4  0  0  0  0
  5  9  4  0  0  0  0
  6 25  1  0  0  0  0
  7  8  4  0  0  0  0
  7 26  1  0  0  0  0
  8  9  4  0  0  0  0
  9 10  1  0  0  0  0
 10 11  4  0  0  0  0
 10 15  4  0  0  0  0
 11 12  4  0  0  0  0
 11 27  1  0  0  0  0
 12 13  4  0  0  0  0
 12 28  1  0  0  0  0
 13 14  4  0  0  0  0
 13 16  1  0  0  0  0
 14 15  4  0  0  0  0
 14 29  1  0  0  0  0
 15 30  1  0  0  0  0
 16 17  1  0  0  0  0
 17 31  1  0  0  0  0
 17 32  1  0  0  0  0
 17 33  1  0  0  0  0
 18 19  1  0  0  0  0
 18 34  1  0  0  0  0
 19 20  1  0  0  0  0
 19 23  1  0  0  0  0
 19 35  1  0  0  0  0
 20 21  1  0  0  0  0
 20 36  1  0  0  0  0
 20 37  1  0  0  0  0
 21 22  1  0  0  0  0
 21 24  1  0  0  0  0
 21 38  1  0  0  0  0
 22 23  1  0  0  0  0
 22 39  1  0  0  0  0
 22 40  1  0  0  0  0
 23 41  1  0  0  0  0
 23 42  1  0  0  0  0
 24 43  1  0  0  0  0
 24 44  1  0  0  0  0
M  END
> <ConfClashScore>
0 

> <ConfOneFourInteractionScore>
-0.984337 

> <ConfScore>
-0.0194706 

> <ConfScorePBest>
0.00279354 

> <ConfTolerance>
0.415858 

$$$$
c13.sdf
 OpenBabel04162418043D

 44 47  0  0  0  0  0  0  0  0999 V2000
    2.1080   -0.3773   -1.8532 N   0  0  0  1  0  0  0  0  0  0  0  0
    2.5363    0.5907   -2.6455 C   0  0  0  1  0  0  0  0  0  0  0  0
    2.1525    0.6996   -3.8968 N   0  0  0  1  0  0  0  0  0  0  0  0
    1.2986   -0.1837   -4.4202 C   0  0  0  1  0  0  0  0  0  0  0  0
    0.8205   -1.2304   -3.6033 C   0  0  0  1  0  0  0  0  0  0  0  0
    1.2615   -1.2961   -2.2850 C   0  0  0  1  0  0  0  0  0  0  0  0
    0.7019   -0.3513   -5.6890 C   0  0  0  1  0  0  0  0  0  0  0  0
   -0.0689   -1.4011   -5.6538 N   0  0  0  1  0  0  0  0  0  0  0  0
   -0.0256   -1.9781   -4.3778 N   0  0  0  1  0  0  0  0  0  0  0  0
   -0.7906   -3.1271   -4.1278 C   0  0  0  1  0  0  0  0  0  0  0  0
   -0.5049   -4.2158   -4.9298 C   0  0  0  1  0  0  0  0  0  0  0  0
   -1.2006   -5.4027   -4.7605 C   0  0  0  1  0  0  0  0  0  0  0  0
   -2.1836   -5.4958   -3.7934 C   0  0  0  1  0  0  0  0  0  0  0  0
   -2.4699   -4.4037   -2.9891 C   0  0  0  1  0  0  0  0  0  0  0  0
   -1.7764   -3.2202   -3.1578 C   0  0  0  1  0  0  0  0  0  0  0  0
   -2.9899   -6.6012   -3.6743 O   0  0  0  1  0  0  0  0  0  0  0  0
   -2.5924   -7.6826   -4.5490 C   0  0  0  1  0  0  0  0  0  0  0  0
    3.3976    1.4990   -2.1527 N   0  0  0  1  0  0  0  0  0  0  0  0
    4.1064    2.4877   -2.9772 C   0  0  0  1  0  0  0  0  0  0  0  0
    3.6418    3.9093   -2.6605 C   0  0  0  1  0  0  0  0  0  0  0  0
    4.7885    4.8110   -3.1307 C   0  0  0  1  0  0  0  0  0  0  0  0
    6.0550    3.9543   -3.0068 C   0  0  0  1  0  0  0  0  0  0  0  0
    5.5926    2.5484   -2.6167 C   0  0  0  1  0  0  0  0  0  0  0  0
    4.5785    5.2261   -4.5382 N   0  0  0  1  0  0  0  0  0  0  0  0
    0.9317   -2.0526   -1.6523 H   0  0  0  1  0  0  0  0  0  0  0  0
    0.8529    0.2621   -6.5152 H   0  0  0  1  0  0  0  0  0  0  0  0
    0.2320   -4.1446   -5.6603 H   0  0  0  1  0  0  0  0  0  0  0  0
   -0.9829   -6.2233   -5.3613 H   0  0  0  1  0  0  0  0  0  0  0  0
   -3.2069   -4.4749   -2.2586 H   0  0  0  1  0  0  0  0  0  0  0  0
   -1.9941   -2.3996   -2.5570 H   0  0  0  1  0  0  0  0  0  0  0  0
   -3.1436   -8.5651   -4.2993 H   0  0  0  1  0  0  0  0  0  0  0  0
   -1.5458   -7.8706   -4.4306 H   0  0  0  1  0  0  0  0  0  0  0  0
   -2.7940   -7.4121   -5.5646 H   0  0  0  1  0  0  0  0  0  0  0  0
    3.5623    1.5014   -1.1866 H   0  0  0  1  0  0  0  0  0  0  0  0
    3.9671    2.2552   -4.0123 H   0  0  0  1  0  0  0  0  0  0  0  0
    3.4771    4.0264   -1.6098 H   0  0  0  1  0  0  0  0  0  0  0  0
    2.7411    4.1381   -3.1909 H   0  0  0  1  0  0  0  0  0  0  0  0
    4.8612    5.6790   -2.5093 H   0  0  0  1  0  0  0  0  0  0  0  0
    6.6990    4.3542   -2.2517 H   0  0  0  1  0  0  0  0  0  0  0  0
    6.5749    3.9262   -3.9415 H   0  0  0  1  0  0  0  0  0  0  0  0
    5.7290    2.3884   -1.5675 H   0  0  0  1  0  0  0  0  0  0  0  0
    6.1401    1.8102   -3.1647 H   0  0  0  1  0  0  0  0  0  0  0  0
    5.2021    5.9480   -4.7629 H   0  0  0  1  0  0  0  0  0  0  0  0
    3.6581    5.5428   -4.6513 H   0  0  0  1  0  0  0  0  0  0  0  0
  1  2  4  0  0  0  0
  1  6  4  0  0  0  0
  2  3  4  0  0  0  0
  2 18  1  0  0  0  0
  3  4  4  0  0  0  0
  4  5  4  0  0  0  0
  4  7  4  0  0  0  0
  5  6  4  0  0  0  0
  5  9  4  0  0  0  0
  6 25  1  0  0  0  0
  7  8  4  0  0  0  0
  7 26  1  0  0  0  0
  8  9  4  0  0  0  0
  9 10  1  0  0  0  0
 10 11  4  0  0  0  0
 10 15  4  0  0  0  0
 11 12  4  0  0  0  0
 11 27  1  0  0  0  0
 12 13  4  0  0  0  0
 12 28  1  0  0  0  0
 13 14  4  0  0  0  0
 13 16  1  0  0  0  0
 14 15  4  0  0  0  0
 14 29  1  0  0  0  0
 15 30  1  0  0  0  0
 16 17  1  0  0  0  0
 17 31  1  0  0  0  0
 17 32  1  0  0  0  0
 17 33  1  0  0  0  0
 18 19  1  0  0  0  0
 18 34  1  0  0  0  0
 19 20  1  0  0  0  0
 19 23  1  0  0  0  0
 19 35  1  0  0  0  0
 20 21  1  0  0  0  0
 20 36  1  0  0  0  0
 20 37  1  0  0  0  0
 21 22  1  0  0  0  0
 21 24  1  0  0  0  0
 21 38  1  0  0  0  0
 22 23  1  0  0  0  0
 22 39  1  0  0  0  0
 22 40  1  0  0  0  0
 23 41  1  0  0  0  0
 23 42  1  0  0  0  0
 24 43  1  0  0  0  0
 24 44  1  0  0  0  0
M  END
> <ConfClashScore>
0 

> <ConfOneFourInteractionScore>
-0.984337 

> <ConfScore>
-0.0187694 

> <ConfScorePBest>
0.00278021 

> <ConfTolerance>
0.48104 

$$$$
c13.sdf
 OpenBabel04162418043D

 44 47  0  0  0  0  0  0  0  0999 V2000
    2.1079   -0.3774   -1.8532 N   0  0  0  1  0  0  0  0  0  0  0  0
    2.5364    0.5907   -2.6454 C   0  0  0  1  0  0  0  0  0  0  0  0
    2.1526    0.6996   -3.8968 N   0  0  0  1  0  0  0  0  0  0  0  0
    1.2985   -0.1838   -4.4201 C   0  0  0  1  0  0  0  0  0  0  0  0
    0.8204   -1.2305   -3.6033 C   0  0  0  1  0  0  0  0  0  0  0  0
    1.2615   -1.2960   -2.2849 C   0  0  0  1  0  0  0  0  0  0  0  0
    0.7019   -0.3513   -5.6890 C   0  0  0  1  0  0  0  0  0  0  0  0
   -0.0689   -1.4010   -5.6538 N   0  0  0  1  0  0  0  0  0  0  0  0
   -0.0256   -1.9781   -4.3778 N   0  0  0  1  0  0  0  0  0  0  0  0
   -0.7584   -3.1315   -4.0321 C   0  0  0  1  0  0  0  0  0  0  0  0
   -1.6709   -3.1453   -2.9941 C   0  0  0  1  0  0  0  0  0  0  0  0
   -2.3686   -4.3064   -2.7003 C   0  0  0  1  0  0  0  0  0  0  0  0
   -2.1481   -5.4518   -3.4417 C   0  0  0  1  0  0  0  0  0  0  0  0
   -1.2328   -5.4378   -4.4827 C   0  0  0  1  0  0  0  0  0  0  0  0
   -0.5371   -4.2801   -4.7758 C   0  0  0  1  0  0  0  0  0  0  0  0
   -2.8224   -6.5817   -3.1527 O   0  0  0  1  0  0  0  0  0  0  0  0
   -2.3622   -7.7640   -3.8476 C   0  0  0  1  0  0  0  0  0  0  0  0
    3.4099    1.5117   -2.1457 N   0  0  0  1  0  0  0  0  0  0  0  0
    3.9775    2.5701   -2.9860 C   0  0  0  1  0  0  0  0  0  0  0  0
    2.8742    3.5114   -3.4814 C   0  0  0  1  0  0  0  0  0  0  0  0
    2.7984    4.6155   -2.4267 C   0  0  0  1  0  0  0  0  0  0  0  0
    4.2745    4.8357   -2.0867 C   0  0  0  1  0  0  0  0  0  0  0  0
    4.9274    3.4540   -2.1676 C   0  0  0  1  0  0  0  0  0  0  0  0
    2.1890    5.8368   -2.9752 N   0  0  0  1  0  0  0  0  0  0  0  0
    0.9317   -2.0526   -1.6522 H   0  0  0  1  0  0  0  0  0  0  0  0
    0.8530    0.2620   -6.5152 H   0  0  0  1  0  0  0  0  0  0  0  0
   -1.8340   -2.2846   -2.4336 H   0  0  0  1  0  0  0  0  0  0  0  0
   -3.0582   -4.3158   -1.9218 H   0  0  0  1  0  0  0  0  0  0  0  0
   -1.0697   -6.2985   -5.0433 H   0  0  0  1  0  0  0  0  0  0  0  0
    0.1525   -4.2707   -5.5544 H   0  0  0  1  0  0  0  0  0  0  0  0
   -1.3175   -7.6698   -4.0596 H   0  0  0  1  0  0  0  0  0  0  0  0
   -2.9034   -7.8721   -4.7642 H   0  0  0  1  0  0  0  0  0  0  0  0
   -2.5250   -8.6247   -3.2330 H   0  0  0  1  0  0  0  0  0  0  0  0
    3.6644    1.4644   -1.2005 H   0  0  0  1  0  0  0  0  0  0  0  0
    4.4944    2.1307   -3.8134 H   0  0  0  1  0  0  0  0  0  0  0  0
    1.9407    2.9933   -3.5520 H   0  0  0  1  0  0  0  0  0  0  0  0
    3.1289    3.9202   -4.4369 H   0  0  0  1  0  0  0  0  0  0  0  0
    2.2459    4.2951   -1.5683 H   0  0  0  1  0  0  0  0  0  0  0  0
    4.3742    5.2384   -1.1004 H   0  0  0  1  0  0  0  0  0  0  0  0
    4.7244    5.5029   -2.7920 H   0  0  0  1  0  0  0  0  0  0  0  0
    5.8784    3.5225   -2.6532 H   0  0  0  1  0  0  0  0  0  0  0  0
    5.0560    3.0480   -1.1860 H   0  0  0  1  0  0  0  0  0  0  0  0
    2.6374    6.0785   -3.8124 H   0  0  0  1  0  0  0  0  0  0  0  0
    2.2860    6.5681   -2.3300 H   0  0  0  1  0  0  0  0  0  0  0  0
  1  2  4  0  0  0  0
  1  6  4  0  0  0  0
  2  3  4  0  0  0  0
  2 18  1  0  0  0  0
  3  4  4  0  0  0  0
  4  5  4  0  0  0  0
  4  7  4  0  0  0  0
  5  6  4  0  0  0  0
  5  9  4  0  0  0  0
  6 25  1  0  0  0  0
  7  8  4  0  0  0  0
  7 26  1  0  0  0  0
  8  9  4  0  0  0  0
  9 10  1  0  0  0  0
 10 11  4  0  0  0  0
 10 15  4  0  0  0  0
 11 12  4  0  0  0  0
 11 27  1  0  0  0  0
 12 13  4  0  0  0  0
 12 28  1  0  0  0  0
 13 14  4  0  0  0  0
 13 16  1  0  0  0  0
 14 15  4  0  0  0  0
 14 29  1  0  0  0  0
 15 30  1  0  0  0  0
 16 17  1  0  0  0  0
 17 31  1  0  0  0  0
 17 32  1  0  0  0  0
 17 33  1  0  0  0  0
 18 19  1  0  0  0  0
 18 34  1  0  0  0  0
 19 20  1  0  0  0  0
 19 23  1  0  0  0  0
 19 35  1  0  0  0  0
 20 21  1  0  0  0  0
 20 36  1  0  0  0  0
 20 37  1  0  0  0  0
 21 22  1  0  0  0  0
 21 24  1  0  0  0  0
 21 38  1  0  0  0  0
 22 23  1  0  0  0  0
 22 39  1  0  0  0  0
 22 40  1  0  0  0  0
 23 41  1  0  0  0  0
 23 42  1  0  0  0  0
 24 43  1  0  0  0  0
 24 44  1  0  0  0  0
M  END
> <ConfClashScore>
0 

> <ConfOneFourInteractionScore>
-0.981848 

> <ConfScore>
-0.0177409 

> <ConfScorePBest>
0.00276689 

> <ConfTolerance>
0.317505 

$$$$
c13.sdf
 OpenBabel04162418043D

 44 47  0  0  0  0  0  0  0  0999 V2000
    2.1079   -0.3773   -1.8532 N   0  0  0  1  0  0  0  0  0  0  0  0
    2.5364    0.5907   -2.6454 C   0  0  0  1  0  0  0  0  0  0  0  0
    2.1526    0.6996   -3.8969 N   0  0  0  1  0  0  0  0  0  0  0  0
    1.2985   -0.1838   -4.4201 C   0  0  0  1  0  0  0  0  0  0  0  0
    0.8204   -1.2305   -3.6033 C   0  0  0  1  0  0  0  0  0  0  0  0
    1.2614   -1.2959   -2.2849 C   0  0  0  1  0  0  0  0  0  0  0  0
    0.7019   -0.3513   -5.6890 C   0  0  0  1  0  0  0  0  0  0  0  0
   -0.0689   -1.4010   -5.6538 N   0  0  0  1  0  0  0  0  0  0  0  0
   -0.0256   -1.9781   -4.3778 N   0  0  0  1  0  0  0  0  0  0  0  0
   -0.8610   -3.0769   -4.0691 C   0  0  0  1  0  0  0  0  0  0  0  0
   -2.0573   -3.2455   -4.7403 C   0  0  0  1  0  0  0  0  0  0  0  0
   -2.8734   -4.3254   -4.4414 C   0  0  0  1  0  0  0  0  0  0  0  0
   -2.4933   -5.2306   -3.4685 C   0  0  0  1  0  0  0  0  0  0  0  0
   -1.2934   -5.0613   -2.7953 C   0  0  0  1  0  0  0  0  0  0  0  0
   -0.4796   -3.9846   -3.0933 C   0  0  0  1  0  0  0  0  0  0  0  0
   -3.3720   -6.2397   -3.2600 O   0  0  0  1  0  0  0  0  0  0  0  0
   -2.9668   -7.2885   -2.3665 C   0  0  0  1  0  0  0  0  0  0  0  0
    3.3977    1.4990   -2.1526 N   0  0  0  1  0  0  0  0  0  0  0  0
    3.8030    1.5576   -0.7590 C   0  0  0  1  0  0  0  0  0  0  0  0
    4.2719    0.1813   -0.2811 C   0  0  0  1  0  0  0  0  0  0  0  0
    5.5263    0.4192    0.5692 C   0  0  0  1  0  0  0  0  0  0  0  0
    5.6573    1.9421    0.6809 C   0  0  0  1  0  0  0  0  0  0  0  0
    5.0089    2.4855   -0.5924 C   0  0  0  1  0  0  0  0  0  0  0  0
    5.3643   -0.1922    1.9222 N   0  0  0  1  0  0  0  0  0  0  0  0
    0.9316   -2.0526   -1.6522 H   0  0  0  1  0  0  0  0  0  0  0  0
    0.8529    0.2620   -6.5152 H   0  0  0  1  0  0  0  0  0  0  0  0
   -2.3452   -2.5622   -5.4696 H   0  0  0  1  0  0  0  0  0  0  0  0
   -3.7716   -4.4546   -4.9493 H   0  0  0  1  0  0  0  0  0  0  0  0
   -1.0055   -5.7446   -2.0660 H   0  0  0  1  0  0  0  0  0  0  0  0
    0.4187   -3.8554   -2.5853 H   0  0  0  1  0  0  0  0  0  0  0  0
   -3.8325   -7.7327   -1.9212 H   0  0  0  1  0  0  0  0  0  0  0  0
   -2.3408   -6.8818   -1.6001 H   0  0  0  1  0  0  0  0  0  0  0  0
   -2.4254   -8.0325   -2.9126 H   0  0  0  1  0  0  0  0  0  0  0  0
    3.7740    2.1601   -2.7704 H   0  0  0  1  0  0  0  0  0  0  0  0
    2.9832    1.9003   -0.1628 H   0  0  0  1  0  0  0  0  0  0  0  0
    4.5064   -0.4407   -1.1195 H   0  0  0  1  0  0  0  0  0  0  0  0
    3.5096   -0.2849    0.3074 H   0  0  0  1  0  0  0  0  0  0  0  0
    6.3879    0.0034    0.0901 H   0  0  0  1  0  0  0  0  0  0  0  0
    5.1438    2.3017    1.5481 H   0  0  0  1  0  0  0  0  0  0  0  0
    6.6870    2.2289    0.7311 H   0  0  0  1  0  0  0  0  0  0  0  0
    5.6732    2.4126   -1.4280 H   0  0  0  1  0  0  0  0  0  0  0  0
    4.7016    3.5029   -0.4680 H   0  0  0  1  0  0  0  0  0  0  0  0
    5.3566   -1.1688    1.8411 H   0  0  0  1  0  0  0  0  0  0  0  0
    4.5198    0.1092    2.3177 H   0  0  0  1  0  0  0  0  0  0  0  0
  1  2  4  0  0  0  0
  1  6  4  0  0  0  0
  2  3  4  0  0  0  0
  2 18  1  0  0  0  0
  3  4  4  0  0  0  0
  4  5  4  0  0  0  0
  4  7  4  0  0  0  0
  5  6  4  0  0  0  0
  5  9  4  0  0  0  0
  6 25  1  0  0  0  0
  7  8  4  0  0  0  0
  7 26  1  0  0  0  0
  8  9  4  0  0  0  0
  9 10  1  0  0  0  0
 10 11  4  0  0  0  0
 10 15  4  0  0  0  0
 11 12  4  0  0  0  0
 11 27  1  0  0  0  0
 12 13  4  0  0  0  0
 12 28  1  0  0  0  0
 13 14  4  0  0  0  0
 13 16  1  0  0  0  0
 14 15  4  0  0  0  0
 14 29  1  0  0  0  0
 15 30  1  0  0  0  0
 16 17  1  0  0  0  0
 17 31  1  0  0  0  0
 17 32  1  0  0  0  0
 17 33  1  0  0  0  0
 18 19  1  0  0  0  0
 18 34  1  0  0  0  0
 19 20  1  0  0  0  0
 19 23  1  0  0  0  0
 19 35  1  0  0  0  0
 20 21  1  0  0  0  0
 20 36  1  0  0  0  0
 20 37  1  0  0  0  0
 21 22  1  0  0  0  0
 21 24  1  0  0  0  0
 21 38  1  0  0  0  0
 22 23  1  0  0  0  0
 22 39  1  0  0  0  0
 22 40  1  0  0  0  0
 23 41  1  0  0  0  0
 23 42  1  0  0  0  0
 24 43  1  0  0  0  0
 24 44  1  0  0  0  0
M  END
> <ConfClashScore>
0 

> <ConfOneFourInteractionScore>
-0.985399 

> <ConfScore>
-0.0160863 

> <ConfScorePBest>
0.00275356 

> <ConfTolerance>
0.295062 

$$$$
c13.sdf
 OpenBabel04162418043D

 44 47  0  0  0  0  0  0  0  0999 V2000
    2.1080   -0.3774   -1.8533 N   0  0  0  1  0  0  0  0  0  0  0  0
    2.5364    0.5907   -2.6455 C   0  0  0  1  0  0  0  0  0  0  0  0
    2.1525    0.6996   -3.8968 N   0  0  0  1  0  0  0  0  0  0  0  0
    1.2985   -0.1838   -4.4201 C   0  0  0  1  0  0  0  0  0  0  0  0
    0.8205   -1.2305   -3.6034 C   0  0  0  1  0  0  0  0  0  0  0  0
    1.2616   -1.2961   -2.2850 C   0  0  0  1  0  0  0  0  0  0  0  0
    0.7018   -0.3512   -5.6890 C   0  0  0  1  0  0  0  0  0  0  0  0
   -0.0689   -1.4010   -5.6537 N   0  0  0  1  0  0  0  0  0  0  0  0
   -0.0256   -1.9781   -4.3778 N   0  0  0  1  0  0  0  0  0  0  0  0
   -0.9250   -3.0201   -4.0157 C   0  0  0  1  0  0  0  0  0  0  0  0
   -2.2474   -2.7268   -3.7412 C   0  0  0  1  0  0  0  0  0  0  0  0
   -3.1247   -3.7424   -3.3937 C   0  0  0  1  0  0  0  0  0  0  0  0
   -2.6758   -5.0473   -3.3166 C   0  0  0  1  0  0  0  0  0  0  0  0
   -1.3493   -5.3412   -3.5919 C   0  0  0  1  0  0  0  0  0  0  0  0
   -0.4746   -4.3287   -3.9384 C   0  0  0  1  0  0  0  0  0  0  0  0
   -3.4315   -6.1123   -2.9855 O   0  0  0  1  0  0  0  0  0  0  0  0
   -4.7746   -5.7980   -2.5498 C   0  0  0  1  0  0  0  0  0  0  0  0
    3.4009    1.5329   -2.2122 N   0  0  0  1  0  0  0  0  0  0  0  0
    3.9299    2.5939   -3.0514 C   0  0  0  1  0  0  0  0  0  0  0  0
    3.1456    3.8896   -2.8314 C   0  0  0  1  0  0  0  0  0  0  0  0
    4.1793    5.0220   -2.7827 C   0  0  0  1  0  0  0  0  0  0  0  0
    5.5192    4.3626   -3.1271 C   0  0  0  1  0  0  0  0  0  0  0  0
    5.3745    2.9142   -2.6599 C   0  0  0  1  0  0  0  0  0  0  0  0
    3.8462    6.0732   -3.7778 N   0  0  0  1  0  0  0  0  0  0  0  0
    0.9318   -2.0527   -1.6523 H   0  0  0  1  0  0  0  0  0  0  0  0
    0.8527    0.2621   -6.5152 H   0  0  0  1  0  0  0  0  0  0  0  0
   -2.5844   -1.7444   -3.7953 H   0  0  0  1  0  0  0  0  0  0  0  0
   -4.1207   -3.5223   -3.1911 H   0  0  0  1  0  0  0  0  0  0  0  0
   -1.0124   -6.3236   -3.5378 H   0  0  0  1  0  0  0  0  0  0  0  0
    0.5215   -4.5487   -4.1410 H   0  0  0  1  0  0  0  0  0  0  0  0
   -5.4622   -5.9860   -3.3478 H   0  0  0  1  0  0  0  0  0  0  0  0
   -4.8265   -4.7665   -2.2702 H   0  0  0  1  0  0  0  0  0  0  0  0
   -5.0288   -6.4091   -1.7091 H   0  0  0  1  0  0  0  0  0  0  0  0
    3.6886    1.4989   -1.2759 H   0  0  0  1  0  0  0  0  0  0  0  0
    3.8787    2.2965   -4.0779 H   0  0  0  1  0  0  0  0  0  0  0  0
    2.4612    4.0487   -3.6382 H   0  0  0  1  0  0  0  0  0  0  0  0
    2.6056    3.8425   -1.9088 H   0  0  0  1  0  0  0  0  0  0  0  0
    4.2152    5.4545   -1.8047 H   0  0  0  1  0  0  0  0  0  0  0  0
    6.3212    4.8468   -2.6100 H   0  0  0  1  0  0  0  0  0  0  0  0
    5.6985    4.4021   -4.1813 H   0  0  0  1  0  0  0  0  0  0  0  0
    6.0653    2.2722   -3.1655 H   0  0  0  1  0  0  0  0  0  0  0  0
    5.5178    2.8311   -1.6027 H   0  0  0  1  0  0  0  0  0  0  0  0
    4.4144    6.8574   -3.6279 H   0  0  0  1  0  0  0  0  0  0  0  0
    2.9050    6.3286   -3.6802 H   0  0  0  1  0  0  0  0  0  0  0  0
  1  2  4  0  0  0  0
  1  6  4  0  0  0  0
  2  3  4  0  0  0  0
  2 18  1  0  0  0  0
  3  4  4  0  0  0  0
  4  5  4  0  0  0  0
  4  7  4  0  0  0  0
  5  6  4  0  0  0  0
  5  9  4  0  0  0  0
  6 25  1  0  0  0  0
  7  8  4  0  0  0  0
  7 26  1  0  0  0  0
  8  9  4  0  0  0  0
  9 10  1  0  0  0  0
 10 11  4  0  0  0  0
 10 15  4  0  0  0  0
 11 12  4  0  0  0  0
 11 27  1  0  0  0  0
 12 13  4  0  0  0  0
 12 28  1  0  0  0  0
 13 14  4  0  0  0  0
 13 16  1  0  0  0  0
 14 15  4  0  0  0  0
 14 29  1  0  0  0  0
 15 30  1  0  0  0  0
 16 17  1  0  0  0  0
 17 31  1  0  0  0  0
 17 32  1  0  0  0  0
 17 33  1  0  0  0  0
 18 19  1  0  0  0  0
 18 34  1  0  0  0  0
 19 20  1  0  0  0  0
 19 23  1  0  0  0  0
 19 35  1  0  0  0  0
 20 21  1  0  0  0  0
 20 36  1  0  0  0  0
 20 37  1  0  0  0  0
 21 22  1  0  0  0  0
 21 24  1  0  0  0  0
 21 38  1  0  0  0  0
 22 23  1  0  0  0  0
 22 39  1  0  0  0  0
 22 40  1  0  0  0  0
 23 41  1  0  0  0  0
 23 42  1  0  0  0  0
 24 43  1  0  0  0  0
 24 44  1  0  0  0  0
M  END
> <ConfClashScore>
0 

> <ConfOneFourInteractionScore>
-0.984337 

> <ConfScore>
-0.0159646 

> <ConfScorePBest>
0.00274023 

> <ConfTolerance>
0.500445 

$$$$
c13.sdf
 OpenBabel04162418043D

 44 47  0  0  0  0  0  0  0  0999 V2000
    2.1079   -0.3773   -1.8533 N   0  0  0  1  0  0  0  0  0  0  0  0
    2.5364    0.5907   -2.6455 C   0  0  0  1  0  0  0  0  0  0  0  0
    2.1526    0.6996   -3.8969 N   0  0  0  1  0  0  0  0  0  0  0  0
    1.2985   -0.1838   -4.4201 C   0  0  0  1  0  0  0  0  0  0  0  0
    0.8205   -1.2305   -3.6033 C   0  0  0  1  0  0  0  0  0  0  0  0
    1.2615   -1.2960   -2.2849 C   0  0  0  1  0  0  0  0  0  0  0  0
    0.7019   -0.3513   -5.6890 C   0  0  0  1  0  0  0  0  0  0  0  0
   -0.0689   -1.4010   -5.6538 N   0  0  0  1  0  0  0  0  0  0  0  0
   -0.0256   -1.9781   -4.3778 N   0  0  0  1  0  0  0  0  0  0  0  0
   -0.8022   -3.1445   -4.1240 C   0  0  0  1  0  0  0  0  0  0  0  0
   -0.5109   -4.3250   -4.7810 C   0  0  0  1  0  0  0  0  0  0  0  0
   -1.2636   -5.4617   -4.5300 C   0  0  0  1  0  0  0  0  0  0  0  0
   -2.3085   -5.4133   -3.6267 C   0  0  0  1  0  0  0  0  0  0  0  0
   -2.6005   -4.2292   -2.9677 C   0  0  0  1  0  0  0  0  0  0  0  0
   -1.8502   -3.0957   -3.2180 C   0  0  0  1  0  0  0  0  0  0  0  0
   -3.1136   -6.4536   -3.3049 O   0  0  0  1  0  0  0  0  0  0  0  0
   -2.7807   -7.7365   -3.8579 C   0  0  0  1  0  0  0  0  0  0  0  0
    3.3977    1.4988   -2.1527 N   0  0  0  1  0  0  0  0  0  0  0  0
    3.9437    2.6581   -2.8658 C   0  0  0  1  0  0  0  0  0  0  0  0
    4.7587    2.2260   -4.0849 C   0  0  0  1  0  0  0  0  0  0  0  0
    4.7767    3.4548   -5.0007 C   0  0  0  1  0  0  0  0  0  0  0  0
    3.4814    4.2139   -4.6863 C   0  0  0  1  0  0  0  0  0  0  0  0
    2.8306    3.4926   -3.5038 C   0  0  0  1  0  0  0  0  0  0  0  0
    5.9726    4.3119   -4.7061 N   0  0  0  1  0  0  0  0  0  0  0  0
    0.9316   -2.0526   -1.6523 H   0  0  0  1  0  0  0  0  0  0  0  0
    0.8529    0.2620   -6.5153 H   0  0  0  1  0  0  0  0  0  0  0  0
    0.2728   -4.3605   -5.4638 H   0  0  0  1  0  0  0  0  0  0  0  0
   -1.0419   -6.3511   -5.0214 H   0  0  0  1  0  0  0  0  0  0  0  0
   -3.3842   -4.1937   -2.2849 H   0  0  0  1  0  0  0  0  0  0  0  0
   -2.0719   -2.2063   -2.7266 H   0  0  0  1  0  0  0  0  0  0  0  0
   -3.5916   -8.4158   -3.6976 H   0  0  0  1  0  0  0  0  0  0  0  0
   -1.9005   -8.1130   -3.3800 H   0  0  0  1  0  0  0  0  0  0  0  0
   -2.6018   -7.6363   -4.9081 H   0  0  0  1  0  0  0  0  0  0  0  0
    3.6891    1.3734   -1.2255 H   0  0  0  1  0  0  0  0  0  0  0  0
    4.5330    3.2460   -2.1934 H   0  0  0  1  0  0  0  0  0  0  0  0
    5.7533    1.9564   -3.7969 H   0  0  0  1  0  0  0  0  0  0  0  0
    4.2919    1.3974   -4.5755 H   0  0  0  1  0  0  0  0  0  0  0  0
    4.7957    3.1560   -6.0281 H   0  0  0  1  0  0  0  0  0  0  0  0
    2.8285    4.1974   -5.5339 H   0  0  0  1  0  0  0  0  0  0  0  0
    3.7017    5.2279   -4.4248 H   0  0  0  1  0  0  0  0  0  0  0  0
    2.4456    4.2012   -2.8005 H   0  0  0  1  0  0  0  0  0  0  0  0
    2.0376    2.8596   -3.8435 H   0  0  0  1  0  0  0  0  0  0  0  0
    5.8703    4.7237   -3.8228 H   0  0  0  1  0  0  0  0  0  0  0  0
    6.0471    5.0133   -5.3866 H   0  0  0  1  0  0  0  0  0  0  0  0
  1  2  4  0  0  0  0
  1  6  4  0  0  0  0
  2  3  4  0  0  0  0
  2 18  1  0  0  0  0
  3  4  4  0  0  0  0
  4  5  4  0  0  0  0
  4  7  4  0  0  0  0
  5  6  4  0  0  0  0
  5  9  4  0  0  0  0
  6 25  1  0  0  0  0
  7  8  4  0  0  0  0
  7 26  1  0  0  0  0
  8  9  4  0  0  0  0
  9 10  1  0  0  0  0
 10 11  4  0  0  0  0
 10 15  4  0  0  0  0
 11 12  4  0  0  0  0
 11 27  1  0  0  0  0
 12 13  4  0  0  0  0
 12 28  1  0  0  0  0
 13 14  4  0  0  0  0
 13 16  1  0  0  0  0
 14 15  4  0  0  0  0
 14 29  1  0  0  0  0
 15 30  1  0  0  0  0
 16 17  1  0  0  0  0
 17 31  1  0  0  0  0
 17 32  1  0  0  0  0
 17 33  1  0  0  0  0
 18 19  1  0  0  0  0
 18 34  1  0  0  0  0
 19 20  1  0  0  0  0
 19 23  1  0  0  0  0
 19 35  1  0  0  0  0
 20 21  1  0  0  0  0
 20 36  1  0  0  0  0
 20 37  1  0  0  0  0
 21 22  1  0  0  0  0
 21 24  1  0  0  0  0
 21 38  1  0  0  0  0
 22 23  1  0  0  0  0
 22 39  1  0  0  0  0
 22 40  1  0  0  0  0
 23 41  1  0  0  0  0
 23 42  1  0  0  0  0
 24 43  1  0  0  0  0
 24 44  1  0  0  0  0
M  END
> <ConfClashScore>
0 

> <ConfOneFourInteractionScore>
-0.980204 

> <ConfScore>
-0.0150347 

> <ConfScorePBest>
0.0027269 

> <ConfTolerance>
0.251294 

$$$$
c13.sdf
 OpenBabel04162418043D

 44 47  0  0  0  0  0  0  0  0999 V2000
    2.1079   -0.3773   -1.8533 N   0  0  0  1  0  0  0  0  0  0  0  0
    2.5363    0.5907   -2.6455 C   0  0  0  1  0  0  0  0  0  0  0  0
    2.1526    0.6996   -3.8968 N   0  0  0  1  0  0  0  0  0  0  0  0
    1.2985   -0.1838   -4.4201 C   0  0  0  1  0  0  0  0  0  0  0  0
    0.8205   -1.2305   -3.6033 C   0  0  0  1  0  0  0  0  0  0  0  0
    1.2615   -1.2960   -2.2849 C   0  0  0  1  0  0  0  0  0  0  0  0
    0.7019   -0.3513   -5.6890 C   0  0  0  1  0  0  0  0  0  0  0  0
   -0.0689   -1.4010   -5.6537 N   0  0  0  1  0  0  0  0  0  0  0  0
   -0.0256   -1.9781   -4.3778 N   0  0  0  1  0  0  0  0  0  0  0  0
   -0.7644   -3.1411   -4.0292 C   0  0  0  1  0  0  0  0  0  0  0  0
   -1.9502   -3.4280   -4.6785 C   0  0  0  1  0  0  0  0  0  0  0  0
   -2.7140   -4.5135   -4.2788 C   0  0  0  1  0  0  0  0  0  0  0  0
   -2.2925   -5.3057   -3.2276 C   0  0  0  1  0  0  0  0  0  0  0  0
   -1.1031   -5.0178   -2.5764 C   0  0  0  1  0  0  0  0  0  0  0  0
   -0.3415   -3.9354   -2.9748 C   0  0  0  1  0  0  0  0  0  0  0  0
   -3.0414   -6.3631   -2.8338 O   0  0  0  1  0  0  0  0  0  0  0  0
   -2.4742   -7.2371   -1.8456 C   0  0  0  1  0  0  0  0  0  0  0  0
    3.3977    1.4989   -2.1527 N   0  0  0  1  0  0  0  0  0  0  0  0
    3.9960    2.6098   -2.8824 C   0  0  0  1  0  0  0  0  0  0  0  0
    2.8831    3.4572   -3.5789 C   0  0  0  1  0  0  0  0  0  0  0  0
    2.5470    4.5063   -2.4540 C   0  0  0  1  0  0  0  0  0  0  0  0
    3.9271    4.8428   -1.9062 C   0  0  0  1  0  0  0  0  0  0  0  0
    4.7234    3.5450   -1.9141 C   0  0  0  1  0  0  0  0  0  0  0  0
    1.8800    5.7171   -3.0239 N   0  0  0  1  0  0  0  0  0  0  0  0
    0.9317   -2.0526   -1.6522 H   0  0  0  1  0  0  0  0  0  0  0  0
    0.8529    0.2620   -6.5152 H   0  0  0  1  0  0  0  0  0  0  0  0
   -2.2695   -2.8295   -5.4669 H   0  0  0  1  0  0  0  0  0  0  0  0
   -3.6043   -4.7319   -4.7700 H   0  0  0  1  0  0  0  0  0  0  0  0
   -0.7839   -5.6162   -1.7880 H   0  0  0  1  0  0  0  0  0  0  0  0
    0.5488   -3.7170   -2.4838 H   0  0  0  1  0  0  0  0  0  0  0  0
   -1.9490   -6.6575   -1.1154 H   0  0  0  1  0  0  0  0  0  0  0  0
   -1.7950   -7.9158   -2.3176 H   0  0  0  1  0  0  0  0  0  0  0  0
   -3.2560   -7.7892   -1.3671 H   0  0  0  1  0  0  0  0  0  0  0  0
    3.6476    1.4043   -1.2098 H   0  0  0  1  0  0  0  0  0  0  0  0
    4.6807    2.2305   -3.6121 H   0  0  0  1  0  0  0  0  0  0  0  0
    2.0307    2.8587   -3.8238 H   0  0  0  1  0  0  0  0  0  0  0  0
    3.2501    3.9349   -4.4631 H   0  0  0  1  0  0  0  0  0  0  0  0
    1.9233    4.0777   -1.6976 H   0  0  0  1  0  0  0  0  0  0  0  0
    3.8466    5.2208   -0.9084 H   0  0  0  1  0  0  0  0  0  0  0  0
    4.4035    5.5723   -2.5272 H   0  0  0  1  0  0  0  0  0  0  0  0
    4.7481    3.1181   -0.9333 H   0  0  0  1  0  0  0  0  0  0  0  0
    5.7230    3.7243   -2.2509 H   0  0  0  1  0  0  0  0  0  0  0  0
    2.4935    6.1690   -3.6403 H   0  0  0  1  0  0  0  0  0  0  0  0
    1.6380    6.3288   -2.2975 H   0  0  0  1  0  0  0  0  0  0  0  0
  1  2  4  0  0  0  0
  1  6  4  0  0  0  0
  2  3  4  0  0  0  0
  2 18  1  0  0  0  0
  3  4  4  0  0  0  0
  4  5  4  0  0  0  0
  4  7  4  0  0  0  0
  5  6  4  0  0  0  0
  5  9  4  0  0  0  0
  6 25  1  0  0  0  0
  7  8  4  0  0  0  0
  7 26  1  0  0  0  0
  8  9  4  0  0  0  0
  9 10  1  0  0  0  0
 10 11  4  0  0  0  0
 10 15  4  0  0  0  0
 11 12  4  0  0  0  0
 11 27  1  0  0  0  0
 12 13  4  0  0  0  0
 12 28  1  0  0  0  0
 13 14  4  0  0  0  0
 13 16  1  0  0  0  0
 14 15  4  0  0  0  0
 14 29  1  0  0  0  0
 15 30  1  0  0  0  0
 16 17  1  0  0  0  0
 17 31  1  0  0  0  0
 17 32  1  0  0  0  0
 17 33  1  0  0  0  0
 18 19  1  0  0  0  0
 18 34  1  0  0  0  0
 19 20  1  0  0  0  0
 19 23  1  0  0  0  0
 19 35  1  0  0  0  0
 20 21  1  0  0  0  0
 20 36  1  0  0  0  0
 20 37  1  0  0  0  0
 21 22  1  0  0  0  0
 21 24  1  0  0  0  0
 21 38  1  0  0  0  0
 22 23  1  0  0  0  0
 22 39  1  0  0  0  0
 22 40  1  0  0  0  0
 23 41  1  0  0  0  0
 23 42  1  0  0  0  0
 24 43  1  0  0  0  0
 24 44  1  0  0  0  0
M  END
> <ConfClashScore>
0 

> <ConfOneFourInteractionScore>
-0.985399 

> <ConfScore>
-0.0130838 

> <ConfScorePBest>
0.00271357 

> <ConfTolerance>
0.256512 

$$$$
c13.sdf
 OpenBabel04162418043D

 44 47  0  0  0  0  0  0  0  0999 V2000
    2.1080   -0.3773   -1.8532 N   0  0  0  1  0  0  0  0  0  0  0  0
    2.5363    0.5907   -2.6455 C   0  0  0  1  0  0  0  0  0  0  0  0
    2.1526    0.6996   -3.8968 N   0  0  0  1  0  0  0  0  0  0  0  0
    1.2986   -0.1837   -4.4201 C   0  0  0  1  0  0  0  0  0  0  0  0
    0.8205   -1.2304   -3.6034 C   0  0  0  1  0  0  0  0  0  0  0  0
    1.2615   -1.2959   -2.2850 C   0  0  0  1  0  0  0  0  0  0  0  0
    0.7019   -0.3513   -5.6890 C   0  0  0  1  0  0  0  0  0  0  0  0
   -0.0689   -1.4010   -5.6537 N   0  0  0  1  0  0  0  0  0  0  0  0
   -0.0256   -1.9781   -4.3778 N   0  0  0  1  0  0  0  0  0  0  0  0
   -0.6691   -3.2210   -4.1236 C   0  0  0  1  0  0  0  0  0  0  0  0
    0.0077   -4.4063   -4.3398 C   0  0  0  1  0  0  0  0  0  0  0  0
   -0.6176   -5.6174   -4.0870 C   0  0  0  1  0  0  0  0  0  0  0  0
   -1.9195   -5.6395   -3.6236 C   0  0  0  1  0  0  0  0  0  0  0  0
   -2.5982   -4.4505   -3.4067 C   0  0  0  1  0  0  0  0  0  0  0  0
   -1.9749   -3.2429   -3.6588 C   0  0  0  1  0  0  0  0  0  0  0  0
   -2.4926   -6.8134   -3.2942 O   0  0  0  1  0  0  0  0  0  0  0  0
   -3.8756   -6.7243   -2.8793 C   0  0  0  1  0  0  0  0  0  0  0  0
    3.4042    1.4827   -2.1026 N   0  0  0  1  0  0  0  0  0  0  0  0
    3.8092    1.4051   -0.6952 C   0  0  0  1  0  0  0  0  0  0  0  0
    4.5633    2.6625   -0.2919 C   0  0  0  1  0  0  0  0  0  0  0  0
    3.8776    3.2491    0.9528 C   0  0  0  1  0  0  0  0  0  0  0  0
    3.0366    2.0920    1.4630 C   0  0  0  1  0  0  0  0  0  0  0  0
    2.5687    1.3456    0.2165 C   0  0  0  1  0  0  0  0  0  0  0  0
    4.8782    3.6654    1.9644 N   0  0  0  1  0  0  0  0  0  0  0  0
    0.9318   -2.0526   -1.6522 H   0  0  0  1  0  0  0  0  0  0  0  0
    0.8529    0.2621   -6.5152 H   0  0  0  1  0  0  0  0  0  0  0  0
    0.9860   -4.3898   -4.6923 H   0  0  0  1  0  0  0  0  0  0  0  0
   -0.1069   -6.5094   -4.2459 H   0  0  0  1  0  0  0  0  0  0  0  0
   -3.5766   -4.4670   -3.0543 H   0  0  0  1  0  0  0  0  0  0  0  0
   -2.4854   -2.3509   -3.4999 H   0  0  0  1  0  0  0  0  0  0  0  0
   -4.4595   -6.3032   -3.6708 H   0  0  0  1  0  0  0  0  0  0  0  0
   -3.9482   -6.1013   -2.0124 H   0  0  0  1  0  0  0  0  0  0  0  0
   -4.2420   -7.7026   -2.6476 H   0  0  0  1  0  0  0  0  0  0  0  0
    3.7694    2.1968   -2.6658 H   0  0  0  1  0  0  0  0  0  0  0  0
    4.4216    0.5404   -0.5469 H   0  0  0  1  0  0  0  0  0  0  0  0
    5.5802    2.4189   -0.0653 H   0  0  0  1  0  0  0  0  0  0  0  0
    4.5360    3.3740   -1.0907 H   0  0  0  1  0  0  0  0  0  0  0  0
    3.2624    4.0854    0.6937 H   0  0  0  1  0  0  0  0  0  0  0  0
    3.6238    1.4491    2.0850 H   0  0  0  1  0  0  0  0  0  0  0  0
    2.1972    2.4562    2.0176 H   0  0  0  1  0  0  0  0  0  0  0  0
    2.3071    0.3341    0.4475 H   0  0  0  1  0  0  0  0  0  0  0  0
    1.7326    1.8363   -0.2363 H   0  0  0  1  0  0  0  0  0  0  0  0
    5.3827    2.8818    2.2672 H   0  0  0  1  0  0  0  0  0  0  0  0
    4.4197    4.0737    2.7283 H   0  0  0  1  0  0  0  0  0  0  0  0
  1  2  4  0  0  0  0
  1  6  4  0  0  0  0
  2  3  4  0  0  0  0
  2 18  1  0  0  0  0
  3  4  4  0  0  0  0
  4  5  4  0  0  0  0
  4  7  4  0  0  0  0
  5  6  4  0  0  0  0
  5  9  4  0  0  0  0
  6 25  1  0  0  0  0
  7  8  4  0  0  0  0
  7 26  1  0  0  0  0
  8  9  4  0  0  0  0
  9 10  1  0  0  0  0
 10 11  4  0  0  0  0
 10 15  4  0  0  0  0
 11 12  4  0  0  0  0
 11 27  1  0  0  0  0
 12 13  4  0  0  0  0
 12 28  1  0  0  0  0
 13 14  4  0  0  0  0
 13 16  1  0  0  0  0
 14 15  4  0  0  0  0
 14 29  1  0  0  0  0
 15 30  1  0  0  0  0
 16 17  1  0  0  0  0
 17 31  1  0  0  0  0
 17 32  1  0  0  0  0
 17 33  1  0  0  0  0
 18 19  1  0  0  0  0
 18 34  1  0  0  0  0
 19 20  1  0  0  0  0
 19 23  1  0  0  0  0
 19 35  1  0  0  0  0
 20 21  1  0  0  0  0
 20 36  1  0  0  0  0
 20 37  1  0  0  0  0
 21 22  1  0  0  0  0
 21 24  1  0  0  0  0
 21 38  1  0  0  0  0
 22 23  1  0  0  0  0
 22 39  1  0  0  0  0
 22 40  1  0  0  0  0
 23 41  1  0  0  0  0
 23 42  1  0  0  0  0
 24 43  1  0  0  0  0
 24 44  1  0  0  0  0
M  END
> <ConfClashScore>
0 

> <ConfOneFourInteractionScore>
-0.991168 

> <ConfScore>
-0.0123006 

> <ConfScorePBest>
0.00270024 

> <ConfTolerance>
0.38886 

$$$$
c13.sdf
 OpenBabel04162418043D

 44 47  0  0  0  0  0  0  0  0999 V2000
    2.1080   -0.3774   -1.8532 N   0  0  0  1  0  0  0  0  0  0  0  0
    2.5364    0.5907   -2.6455 C   0  0  0  1  0  0  0  0  0  0  0  0
    2.1525    0.6997   -3.8968 N   0  0  0  1  0  0  0  0  0  0  0  0
    1.2985   -0.1838   -4.4201 C   0  0  0  1  0  0  0  0  0  0  0  0
    0.8205   -1.2305   -3.6033 C   0  0  0  1  0  0  0  0  0  0  0  0
    1.2616   -1.2961   -2.2850 C   0  0  0  1  0  0  0  0  0  0  0  0
    0.7018   -0.3513   -5.6890 C   0  0  0  1  0  0  0  0  0  0  0  0
   -0.0690   -1.4010   -5.6537 N   0  0  0  1  0  0  0  0  0  0  0  0
   -0.0256   -1.9781   -4.3778 N   0  0  0  1  0  0  0  0  0  0  0  0
   -0.8600   -3.0488   -4.0241 C   0  0  0  1  0  0  0  0  0  0  0  0
   -1.7851   -2.7776   -3.0338 C   0  0  0  1  0  0  0  0  0  0  0  0
   -2.6614   -3.7666   -2.6145 C   0  0  0  1  0  0  0  0  0  0  0  0
   -2.6064   -5.0251   -3.1830 C   0  0  0  1  0  0  0  0  0  0  0  0
   -1.6784   -5.2970   -4.1762 C   0  0  0  1  0  0  0  0  0  0  0  0
   -0.8047   -4.3111   -4.5943 C   0  0  0  1  0  0  0  0  0  0  0  0
   -3.4041   -6.0684   -2.8527 O   0  0  0  1  0  0  0  0  0  0  0  0
   -4.3133   -5.8784   -1.7574 C   0  0  0  1  0  0  0  0  0  0  0  0
    3.4024    1.5223   -2.1867 N   0  0  0  1  0  0  0  0  0  0  0  0
    3.9204    2.6247   -2.9984 C   0  0  0  1  0  0  0  0  0  0  0  0
    4.7184    3.6243   -2.1010 C   0  0  0  1  0  0  0  0  0  0  0  0
    6.1687    3.0163   -2.1787 C   0  0  0  1  0  0  0  0  0  0  0  0
    6.2713    2.6175   -3.6445 C   0  0  0  1  0  0  0  0  0  0  0  0
    4.8999    2.0919   -4.0463 C   0  0  0  1  0  0  0  0  0  0  0  0
    7.2033    4.0346   -1.8203 N   0  0  0  1  0  0  0  0  0  0  0  0
    0.9319   -2.0528   -1.6523 H   0  0  0  1  0  0  0  0  0  0  0  0
    0.8527    0.2622   -6.5151 H   0  0  0  1  0  0  0  0  0  0  0  0
   -1.8238   -1.8318   -2.6031 H   0  0  0  1  0  0  0  0  0  0  0  0
   -3.3602   -3.5614   -1.8721 H   0  0  0  1  0  0  0  0  0  0  0  0
   -1.6396   -6.2429   -4.6068 H   0  0  0  1  0  0  0  0  0  0  0  0
   -0.1059   -4.5162   -5.3367 H   0  0  0  1  0  0  0  0  0  0  0  0
   -4.4916   -4.8325   -1.6185 H   0  0  0  1  0  0  0  0  0  0  0  0
   -3.8877   -6.2888   -0.8656 H   0  0  0  1  0  0  0  0  0  0  0  0
   -5.2379   -6.3721   -1.9718 H   0  0  0  1  0  0  0  0  0  0  0  0
    3.7009    1.4554   -1.2558 H   0  0  0  1  0  0  0  0  0  0  0  0
    3.1070    3.1286   -3.4773 H   0  0  0  1  0  0  0  0  0  0  0  0
    4.6881    4.6174   -2.4980 H   0  0  0  1  0  0  0  0  0  0  0  0
    4.3492    3.6298   -1.0966 H   0  0  0  1  0  0  0  0  0  0  0  0
    6.2676    2.1657   -1.5373 H   0  0  0  1  0  0  0  0  0  0  0  0
    7.0105    1.8540   -3.7689 H   0  0  0  1  0  0  0  0  0  0  0  0
    6.5310    3.4668   -4.2414 H   0  0  0  1  0  0  0  0  0  0  0  0
    4.6348    2.4506   -5.0190 H   0  0  0  1  0  0  0  0  0  0  0  0
    4.8975    1.0220   -4.0472 H   0  0  0  1  0  0  0  0  0  0  0  0
    7.1377    4.2456   -0.8655 H   0  0  0  1  0  0  0  0  0  0  0  0
    7.0557    4.8488   -2.3454 H   0  0  0  1  0  0  0  0  0  0  0  0
  1  2  4  0  0  0  0
  1  6  4  0  0  0  0
  2  3  4  0  0  0  0
  2 18  1  0  0  0  0
  3  4  4  0  0  0  0
  4  5  4  0  0  0  0
  4  7  4  0  0  0  0
  5  6  4  0  0  0  0
  5  9  4  0  0  0  0
  6 25  1  0  0  0  0
  7  8  4  0  0  0  0
  7 26  1  0  0  0  0
  8  9  4  0  0  0  0
  9 10  1  0  0  0  0
 10 11  4  0  0  0  0
 10 15  4  0  0  0  0
 11 12  4  0  0  0  0
 11 27  1  0  0  0  0
 12 13  4  0  0  0  0
 12 28  1  0  0  0  0
 13 14  4  0  0  0  0
 13 16  1  0  0  0  0
 14 15  4  0  0  0  0
 14 29  1  0  0  0  0
 15 30  1  0  0  0  0
 16 17  1  0  0  0  0
 17 31  1  0  0  0  0
 17 32  1  0  0  0  0
 17 33  1  0  0  0  0
 18 19  1  0  0  0  0
 18 34  1  0  0  0  0
 19 20  1  0  0  0  0
 19 23  1  0  0  0  0
 19 35  1  0  0  0  0
 20 21  1  0  0  0  0
 20 36  1  0  0  0  0
 20 37  1  0  0  0  0
 21 22  1  0  0  0  0
 21 24  1  0  0  0  0
 21 38  1  0  0  0  0
 22 23  1  0  0  0  0
 22 39  1  0  0  0  0
 22 40  1  0  0  0  0
 23 41  1  0  0  0  0
 23 42  1  0  0  0  0
 24 43  1  0  0  0  0
 24 44  1  0  0  0  0
M  END
> <ConfClashScore>
0 

> <ConfOneFourInteractionScore>
-0.984337 

> <ConfScore>
-0.011753 

> <ConfScorePBest>
0.00268692 

> <ConfTolerance>
0.362496 

$$$$
c13.sdf
 OpenBabel04162418043D

 44 47  0  0  0  0  0  0  0  0999 V2000
    2.1080   -0.3773   -1.8533 N   0  0  0  1  0  0  0  0  0  0  0  0
    2.5363    0.5907   -2.6455 C   0  0  0  1  0  0  0  0  0  0  0  0
    2.1524    0.6996   -3.8968 N   0  0  0  1  0  0  0  0  0  0  0  0
    1.2985   -0.1838   -4.4201 C   0  0  0  1  0  0  0  0  0  0  0  0
    0.8204   -1.2304   -3.6033 C   0  0  0  1  0  0  0  0  0  0  0  0
    1.2616   -1.2961   -2.2850 C   0  0  0  1  0  0  0  0  0  0  0  0
    0.7018   -0.3512   -5.6890 C   0  0  0  1  0  0  0  0  0  0  0  0
   -0.0690   -1.4010   -5.6537 N   0  0  0  1  0  0  0  0  0  0  0  0
   -0.0256   -1.9781   -4.3778 N   0  0  0  1  0  0  0  0  0  0  0  0
   -0.7547   -3.1260   -4.0337 C   0  0  0  1  0  0  0  0  0  0  0  0
   -0.4272   -4.2697   -4.7373 C   0  0  0  1  0  0  0  0  0  0  0  0
   -1.0853   -5.4600   -4.4699 C   0  0  0  1  0  0  0  0  0  0  0  0
   -2.0727   -5.5020   -3.5037 C   0  0  0  1  0  0  0  0  0  0  0  0
   -2.4011   -4.3550   -2.7981 C   0  0  0  1  0  0  0  0  0  0  0  0
   -1.7450   -3.1679   -3.0647 C   0  0  0  1  0  0  0  0  0  0  0  0
   -2.6478   -6.7163   -3.3345 O   0  0  0  1  0  0  0  0  0  0  0  0
   -3.5353   -6.8720   -2.2162 C   0  0  0  1  0  0  0  0  0  0  0  0
    3.3976    1.4989   -2.1527 N   0  0  0  1  0  0  0  0  0  0  0  0
    3.9405    2.6162   -2.9305 C   0  0  0  1  0  0  0  0  0  0  0  0
    5.1612    3.2175   -2.2254 C   0  0  0  1  0  0  0  0  0  0  0  0
    6.3574    2.4544   -2.7944 C   0  0  0  1  0  0  0  0  0  0  0  0
    5.9762    2.3151   -4.2702 C   0  0  0  1  0  0  0  0  0  0  0  0
    4.4578    2.1241   -4.2881 C   0  0  0  1  0  0  0  0  0  0  0  0
    7.6220    3.2309   -2.6326 N   0  0  0  1  0  0  0  0  0  0  0  0
    0.9319   -2.0527   -1.6523 H   0  0  0  1  0  0  0  0  0  0  0  0
    0.8527    0.2621   -6.5151 H   0  0  0  1  0  0  0  0  0  0  0  0
    0.3129   -4.2372   -5.4672 H   0  0  0  1  0  0  0  0  0  0  0  0
   -0.8361   -6.3215   -4.9964 H   0  0  0  1  0  0  0  0  0  0  0  0
   -3.1412   -4.3873   -2.0683 H   0  0  0  1  0  0  0  0  0  0  0  0
   -1.9941   -2.3064   -2.5381 H   0  0  0  1  0  0  0  0  0  0  0  0
   -3.9365   -5.9184   -1.9433 H   0  0  0  1  0  0  0  0  0  0  0  0
   -2.9963   -7.2822   -1.3879 H   0  0  0  1  0  0  0  0  0  0  0  0
   -4.3342   -7.5314   -2.4843 H   0  0  0  1  0  0  0  0  0  0  0  0
    3.6788    1.4080   -1.2183 H   0  0  0  1  0  0  0  0  0  0  0  0
    3.1823    3.3591   -3.0654 H   0  0  0  1  0  0  0  0  0  0  0  0
    5.2439    4.2623   -2.4410 H   0  0  0  1  0  0  0  0  0  0  0  0
    5.0928    3.0755   -1.1671 H   0  0  0  1  0  0  0  0  0  0  0  0
    6.4643    1.4968   -2.3289 H   0  0  0  1  0  0  0  0  0  0  0  0
    6.2476    3.1978   -4.8107 H   0  0  0  1  0  0  0  0  0  0  0  0
    6.4641    1.4669   -4.7033 H   0  0  0  1  0  0  0  0  0  0  0  0
    4.0225    2.6980   -5.0793 H   0  0  0  1  0  0  0  0  0  0  0  0
    4.2170    1.0903   -4.4224 H   0  0  0  1  0  0  0  0  0  0  0  0
    7.4863    4.1473   -2.9522 H   0  0  0  1  0  0  0  0  0  0  0  0
    8.3350    2.8057   -3.1534 H   0  0  0  1  0  0  0  0  0  0  0  0
  1  2  4  0  0  0  0
  1  6  4  0  0  0  0
  2  3  4  0  0  0  0
  2 18  1  0  0  0  0
  3  4  4  0  0  0  0
  4  5  4  0  0  0  0
  4  7  4  0  0  0  0
  5  6  4  0  0  0  0
  5  9  4  0  0  0  0
  6 25  1  0  0  0  0
  7  8  4  0  0  0  0
  7 26  1  0  0  0  0
  8  9  4  0  0  0  0
  9 10  1  0  0  0  0
 10 11  4  0  0  0  0
 10 15  4  0  0  0  0
 11 12  4  0  0  0  0
 11 27  1  0  0  0  0
 12 13  4  0  0  0  0
 12 28  1  0  0  0  0
 13 14  4  0  0  0  0
 13 16  1  0  0  0  0
 14 15  4  0  0  0  0
 14 29  1  0  0  0  0
 15 30  1  0  0  0  0
 16 17  1  0  0  0  0
 17 31  1  0  0  0  0
 17 32  1  0  0  0  0
 17 33  1  0  0  0  0
 18 19  1  0  0  0  0
 18 34  1  0  0  0  0
 19 20  1  0  0  0  0
 19 23  1  0  0  0  0
 19 35  1  0  0  0  0
 20 21  1  0  0  0  0
 20 36  1  0  0  0  0
 20 37  1  0  0  0  0
 21 22  1  0  0  0  0
 21 24  1  0  0  0  0
 21 38  1  0  0  0  0
 22 23  1  0  0  0  0
 22 39  1  0  0  0  0
 22 40  1  0  0  0  0
 23 41  1  0  0  0  0
 23 42  1  0  0  0  0
 24 43  1  0  0  0  0
 24 44  1  0  0  0  0
M  END
> <ConfClashScore>
0 

> <ConfOneFourInteractionScore>
-0.985399 

> <ConfScore>
-0.00817082 

> <ConfScorePBest>
0.00267359 

> <ConfTolerance>
0.484931 

$$$$
c13.sdf
 OpenBabel04162418043D

 44 47  0  0  0  0  0  0  0  0999 V2000
    2.1079   -0.3774   -1.8532 N   0  0  0  1  0  0  0  0  0  0  0  0
    2.5363    0.5907   -2.6455 C   0  0  0  1  0  0  0  0  0  0  0  0
    2.1525    0.6997   -3.8968 N   0  0  0  1  0  0  0  0  0  0  0  0
    1.2986   -0.1837   -4.4201 C   0  0  0  1  0  0  0  0  0  0  0  0
    0.8204   -1.2304   -3.6033 C   0  0  0  1  0  0  0  0  0  0  0  0
    1.2614   -1.2960   -2.2849 C   0  0  0  1  0  0  0  0  0  0  0  0
    0.7019   -0.3513   -5.6890 C   0  0  0  1  0  0  0  0  0  0  0  0
   -0.0689   -1.4010   -5.6538 N   0  0  0  1  0  0  0  0  0  0  0  0
   -0.0256   -1.9781   -4.3778 N   0  0  0  1  0  0  0  0  0  0  0  0
   -0.7806   -3.1368   -4.0811 C   0  0  0  1  0  0  0  0  0  0  0  0
   -2.0769   -3.2546   -4.5457 C   0  0  0  1  0  0  0  0  0  0  0  0
   -2.8148   -4.3926   -4.2594 C   0  0  0  1  0  0  0  0  0  0  0  0
   -2.2563   -5.4071   -3.5050 C   0  0  0  1  0  0  0  0  0  0  0  0
   -0.9560   -5.2888   -3.0392 C   0  0  0  1  0  0  0  0  0  0  0  0
   -0.2201   -4.1542   -3.3245 C   0  0  0  1  0  0  0  0  0  0  0  0
   -3.0226   -6.4762   -3.2596 O   0  0  0  1  0  0  0  0  0  0  0  0
   -4.3538   -6.6244   -3.8587 C   0  0  0  1  0  0  0  0  0  0  0  0
    3.3977    1.4989   -2.1526 N   0  0  0  1  0  0  0  0  0  0  0  0
    3.9521    2.6887   -2.8068 C   0  0  0  1  0  0  0  0  0  0  0  0
    2.8392    3.4967   -3.4831 C   0  0  0  1  0  0  0  0  0  0  0  0
    2.3799    4.4958   -2.4211 C   0  0  0  1  0  0  0  0  0  0  0  0
    3.7036    4.8992   -1.7669 C   0  0  0  1  0  0  0  0  0  0  0  0
    4.5666    3.6353   -1.7680 C   0  0  0  1  0  0  0  0  0  0  0  0
    1.6981    5.6783   -3.0445 N   0  0  0  1  0  0  0  0  0  0  0  0
    0.9317   -2.0526   -1.6522 H   0  0  0  1  0  0  0  0  0  0  0  0
    0.8529    0.2621   -6.5152 H   0  0  0  1  0  0  0  0  0  0  0  0
   -2.4986   -2.4895   -5.1099 H   0  0  0  1  0  0  0  0  0  0  0  0
   -3.7890   -4.4829   -4.6123 H   0  0  0  1  0  0  0  0  0  0  0  0
   -0.5342   -6.0539   -2.4749 H   0  0  0  1  0  0  0  0  0  0  0  0
    0.7541   -4.0638   -2.9716 H   0  0  0  1  0  0  0  0  0  0  0  0
   -4.9146   -7.3501   -3.3077 H   0  0  0  1  0  0  0  0  0  0  0  0
   -4.2538   -6.9469   -4.8739 H   0  0  0  1  0  0  0  0  0  0  0  0
   -4.8637   -5.6840   -3.8312 H   0  0  0  1  0  0  0  0  0  0  0  0
    3.6949    1.3446   -1.2316 H   0  0  0  1  0  0  0  0  0  0  0  0
    4.6881    2.3915   -3.5244 H   0  0  0  1  0  0  0  0  0  0  0  0
    3.2153    4.0086   -4.3442 H   0  0  0  1  0  0  0  0  0  0  0  0
    2.0317    2.8569   -3.7724 H   0  0  0  1  0  0  0  0  0  0  0  0
    1.7216    4.0358   -1.7140 H   0  0  0  1  0  0  0  0  0  0  0  0
    3.5372    5.2366   -0.7651 H   0  0  0  1  0  0  0  0  0  0  0  0
    4.1774    5.6752   -2.3310 H   0  0  0  1  0  0  0  0  0  0  0  0
    4.5552    3.1793   -0.8001 H   0  0  0  1  0  0  0  0  0  0  0  0
    5.5738    3.8760   -2.0376 H   0  0  0  1  0  0  0  0  0  0  0  0
    2.2269    5.9971   -3.8056 H   0  0  0  1  0  0  0  0  0  0  0  0
    1.6158    6.3950   -2.3811 H   0  0  0  1  0  0  0  0  0  0  0  0
  1  2  4  0  0  0  0
  1  6  4  0  0  0  0
  2  3  4  0  0  0  0
  2 18  1  0  0  0  0
  3  4  4  0  0  0  0
  4  5  4  0  0  0  0
  4  7  4  0  0  0  0
  5  6  4  0  0  0  0
  5  9  4  0  0  0  0
  6 25  1  0  0  0  0
  7  8  4  0  0  0  0
  7 26  1  0  0  0  0
  8  9  4  0  0  0  0
  9 10  1  0  0  0  0
 10 11  4  0  0  0  0
 10 15  4  0  0  0  0
 11 12  4  0  0  0  0
 11 27  1  0  0  0  0
 12 13  4  0  0  0  0
 12 28  1  0  0  0  0
 13 14  4  0  0  0  0
 13 16  1  0  0  0  0
 14 15  4  0  0  0  0
 14 29  1  0  0  0  0
 15 30  1  0  0  0  0
 16 17  1  0  0  0  0
 17 31  1  0  0  0  0
 17 32  1  0  0  0  0
 17 33  1  0  0  0  0
 18 19  1  0  0  0  0
 18 34  1  0  0  0  0
 19 20  1  0  0  0  0
 19 23  1  0  0  0  0
 19 35  1  0  0  0  0
 20 21  1  0  0  0  0
 20 36  1  0  0  0  0
 20 37  1  0  0  0  0
 21 22  1  0  0  0  0
 21 24  1  0  0  0  0
 21 38  1  0  0  0  0
 22 23  1  0  0  0  0
 22 39  1  0  0  0  0
 22 40  1  0  0  0  0
 23 41  1  0  0  0  0
 23 42  1  0  0  0  0
 24 43  1  0  0  0  0
 24 44  1  0  0  0  0
M  END
> <ConfClashScore>
0 

> <ConfOneFourInteractionScore>
-0.985399 

> <ConfScore>
-0.00769316 

> <ConfScorePBest>
0.00266026 

> <ConfTolerance>
0.420622 

$$$$
c13.sdf
 OpenBabel04162418043D

 44 47  0  0  0  0  0  0  0  0999 V2000
    2.1079   -0.3773   -1.8532 N   0  0  0  1  0  0  0  0  0  0  0  0
    2.5363    0.5907   -2.6455 C   0  0  0  1  0  0  0  0  0  0  0  0
    2.1526    0.6996   -3.8968 N   0  0  0  1  0  0  0  0  0  0  0  0
    1.2985   -0.1837   -4.4201 C   0  0  0  1  0  0  0  0  0  0  0  0
    0.8205   -1.2305   -3.6033 C   0  0  0  1  0  0  0  0  0  0  0  0
    1.2615   -1.2960   -2.2850 C   0  0  0  1  0  0  0  0  0  0  0  0
    0.7019   -0.3513   -5.6890 C   0  0  0  1  0  0  0  0  0  0  0  0
   -0.0689   -1.4011   -5.6538 N   0  0  0  1  0  0  0  0  0  0  0  0
   -0.0256   -1.9781   -4.3778 N   0  0  0  1  0  0  0  0  0  0  0  0
   -0.8666   -3.0845   -4.0670 C   0  0  0  1  0  0  0  0  0  0  0  0
   -2.1309   -3.1679   -4.6190 C   0  0  0  1  0  0  0  0  0  0  0  0
   -2.9475   -4.2475   -4.3206 C   0  0  0  1  0  0  0  0  0  0  0  0
   -2.4995   -5.2379   -3.4669 C   0  0  0  1  0  0  0  0  0  0  0  0
   -1.2314   -5.1540   -2.9133 C   0  0  0  1  0  0  0  0  0  0  0  0
   -0.4171   -4.0776   -3.2107 C   0  0  0  1  0  0  0  0  0  0  0  0
   -3.3853   -6.2381   -3.2460 O   0  0  0  1  0  0  0  0  0  0  0  0
   -3.0166   -7.2412   -2.2867 C   0  0  0  1  0  0  0  0  0  0  0  0
    3.3932    1.5123   -2.1917 N   0  0  0  1  0  0  0  0  0  0  0  0
    3.9682    2.6113   -2.9573 C   0  0  0  1  0  0  0  0  0  0  0  0
    5.0109    3.3762   -2.1256 C   0  0  0  1  0  0  0  0  0  0  0  0
    6.2198    3.6353   -3.0109 C   0  0  0  1  0  0  0  0  0  0  0  0
    5.8168    3.1698   -4.4232 C   0  0  0  1  0  0  0  0  0  0  0  0
    4.7764    2.0914   -4.1332 C   0  0  0  1  0  0  0  0  0  0  0  0
    6.5519    5.0792   -3.0196 N   0  0  0  1  0  0  0  0  0  0  0  0
    0.9316   -2.0526   -1.6523 H   0  0  0  1  0  0  0  0  0  0  0  0
    0.8530    0.2620   -6.5153 H   0  0  0  1  0  0  0  0  0  0  0  0
   -2.4696   -2.4207   -5.2582 H   0  0  0  1  0  0  0  0  0  0  0  0
   -3.8973   -4.3123   -4.7392 H   0  0  0  1  0  0  0  0  0  0  0  0
   -0.8927   -5.9013   -2.2741 H   0  0  0  1  0  0  0  0  0  0  0  0
    0.5328   -4.0127   -2.7922 H   0  0  0  1  0  0  0  0  0  0  0  0
   -3.5029   -8.1630   -2.5289 H   0  0  0  1  0  0  0  0  0  0  0  0
   -3.3160   -6.9264   -1.3088 H   0  0  0  1  0  0  0  0  0  0  0  0
   -1.9560   -7.3816   -2.3076 H   0  0  0  1  0  0  0  0  0  0  0  0
    3.6608    1.4416   -1.2515 H   0  0  0  1  0  0  0  0  0  0  0  0
    3.1871    3.2639   -3.2872 H   0  0  0  1  0  0  0  0  0  0  0  0
    4.5988    4.3059   -1.7928 H   0  0  0  1  0  0  0  0  0  0  0  0
    5.3003    2.7901   -1.2784 H   0  0  0  1  0  0  0  0  0  0  0  0
    7.0631    3.0769   -2.6617 H   0  0  0  1  0  0  0  0  0  0  0  0
    5.3929    3.9735   -4.9885 H   0  0  0  1  0  0  0  0  0  0  0  0
    6.6555    2.7656   -4.9507 H   0  0  0  1  0  0  0  0  0  0  0  0
    4.1449    1.9431   -4.9841 H   0  0  0  1  0  0  0  0  0  0  0  0
    5.2553    1.1690   -3.8787 H   0  0  0  1  0  0  0  0  0  0  0  0
    7.3002    5.2391   -3.6319 H   0  0  0  1  0  0  0  0  0  0  0  0
    6.8037    5.3616   -2.1156 H   0  0  0  1  0  0  0  0  0  0  0  0
  1  2  4  0  0  0  0
  1  6  4  0  0  0  0
  2  3  4  0  0  0  0
  2 18  1  0  0  0  0
  3  4  4  0  0  0  0
  4  5  4  0  0  0  0
  4  7  4  0  0  0  0
  5  6  4  0  0  0  0
  5  9  4  0  0  0  0
  6 25  1  0  0  0  0
  7  8  4  0  0  0  0
  7 26  1  0  0  0  0
  8  9  4  0  0  0  0
  9 10  1  0  0  0  0
 10 11  4  0  0  0  0
 10 15  4  0  0  0  0
 11 12  4  0  0  0  0
 11 27  1  0  0  0  0
 12 13  4  0  0  0  0
 12 28  1  0  0  0  0
 13 14  4  0  0  0  0
 13 16  1  0  0  0  0
 14 15  4  0  0  0  0
 14 29  1  0  0  0  0
 15 30  1  0  0  0  0
 16 17  1  0  0  0  0
 17 31  1  0  0  0  0
 17 32  1  0  0  0  0
 17 33  1  0  0  0  0
 18 19  1  0  0  0  0
 18 34  1  0  0  0  0
 19 20  1  0  0  0  0
 19 23  1  0  0  0  0
 19 35  1  0  0  0  0
 20 21  1  0  0  0  0
 20 36  1  0  0  0  0
 20 37  1  0  0  0  0
 21 22  1  0  0  0  0
 21 24  1  0  0  0  0
 21 38  1  0  0  0  0
 22 23  1  0  0  0  0
 22 39  1  0  0  0  0
 22 40  1  0  0  0  0
 23 41  1  0  0  0  0
 23 42  1  0  0  0  0
 24 43  1  0  0  0  0
 24 44  1  0  0  0  0
M  END
> <ConfClashScore>
0 

> <ConfOneFourInteractionScore>
-0.985399 

> <ConfScore>
-0.00721476 

> <ConfScorePBest>
0.00264693 

> <ConfTolerance>
0.395098 

$$$$
c13.sdf
 OpenBabel04162418043D

 44 47  0  0  0  0  0  0  0  0999 V2000
    2.1080   -0.3774   -1.8532 N   0  0  0  1  0  0  0  0  0  0  0  0
    2.5364    0.5908   -2.6455 C   0  0  0  1  0  0  0  0  0  0  0  0
    2.1526    0.6996   -3.8968 N   0  0  0  1  0  0  0  0  0  0  0  0
    1.2985   -0.1838   -4.4201 C   0  0  0  1  0  0  0  0  0  0  0  0
    0.8205   -1.2304   -3.6033 C   0  0  0  1  0  0  0  0  0  0  0  0
    1.2616   -1.2961   -2.2850 C   0  0  0  1  0  0  0  0  0  0  0  0
    0.7019   -0.3512   -5.6889 C   0  0  0  1  0  0  0  0  0  0  0  0
   -0.0689   -1.4009   -5.6537 N   0  0  0  1  0  0  0  0  0  0  0  0
   -0.0256   -1.9781   -4.3778 N   0  0  0  1  0  0  0  0  0  0  0  0
   -0.6766   -3.2013   -4.1597 C   0  0  0  1  0  0  0  0  0  0  0  0
   -1.5305   -3.6067   -5.1681 C   0  0  0  1  0  0  0  0  0  0  0  0
   -2.2190   -4.8043   -5.0534 C   0  0  0  1  0  0  0  0  0  0  0  0
   -2.0556   -5.5905   -3.9284 C   0  0  0  1  0  0  0  0  0  0  0  0
   -1.1990   -5.1838   -2.9172 C   0  0  0  1  0  0  0  0  0  0  0  0
   -0.5125   -3.9897   -3.0315 C   0  0  0  1  0  0  0  0  0  0  0  0
   -2.7287   -6.7519   -3.8146 O   0  0  0  1  0  0  0  0  0  0  0  0
   -3.6867   -7.0098   -4.8673 C   0  0  0  1  0  0  0  0  0  0  0  0
    3.3925    1.4706   -2.1099 N   0  0  0  1  0  0  0  0  0  0  0  0
    3.7922    1.6254   -0.7104 C   0  0  0  1  0  0  0  0  0  0  0  0
    5.1491    0.9572   -0.4630 C   0  0  0  1  0  0  0  0  0  0  0  0
    6.1791    2.0600   -0.7084 C   0  0  0  1  0  0  0  0  0  0  0  0
    5.4957    3.2809   -0.0879 C   0  0  0  1  0  0  0  0  0  0  0  0
    4.0020    3.1068   -0.3726 C   0  0  0  1  0  0  0  0  0  0  0  0
    7.4716    1.7563   -0.0242 N   0  0  0  1  0  0  0  0  0  0  0  0
    0.9318   -2.0526   -1.6523 H   0  0  0  1  0  0  0  0  0  0  0  0
    0.8529    0.2621   -6.5152 H   0  0  0  1  0  0  0  0  0  0  0  0
   -1.6566   -3.0132   -6.0128 H   0  0  0  1  0  0  0  0  0  0  0  0
   -2.8585   -5.1113   -5.8138 H   0  0  0  1  0  0  0  0  0  0  0  0
   -1.0730   -5.7773   -2.0725 H   0  0  0  1  0  0  0  0  0  0  0  0
    0.1269   -3.6826   -2.2710 H   0  0  0  1  0  0  0  0  0  0  0  0
   -4.1097   -6.0849   -5.1999 H   0  0  0  1  0  0  0  0  0  0  0  0
   -4.4641   -7.6436   -4.4944 H   0  0  0  1  0  0  0  0  0  0  0  0
   -3.1951   -7.4918   -5.6864 H   0  0  0  1  0  0  0  0  0  0  0  0
    3.8075    2.0955   -2.7406 H   0  0  0  1  0  0  0  0  0  0  0  0
    3.0436    1.1990   -0.0759 H   0  0  0  1  0  0  0  0  0  0  0  0
    5.2983    0.1445   -1.1429 H   0  0  0  1  0  0  0  0  0  0  0  0
    5.2143    0.5981    0.5428 H   0  0  0  1  0  0  0  0  0  0  0  0
    6.3536    2.2026   -1.7545 H   0  0  0  1  0  0  0  0  0  0  0  0
    5.6733    3.3121    0.9669 H   0  0  0  1  0  0  0  0  0  0  0  0
    5.8590    4.1809   -0.5381 H   0  0  0  1  0  0  0  0  0  0  0  0
    3.7098    3.7193   -1.1999 H   0  0  0  1  0  0  0  0  0  0  0  0
    3.4278    3.3740    0.4899 H   0  0  0  1  0  0  0  0  0  0  0  0
    8.1125    2.4762   -0.2014 H   0  0  0  1  0  0  0  0  0  0  0  0
    7.8297    0.9097   -0.3639 H   0  0  0  1  0  0  0  0  0  0  0  0
  1  2  4  0  0  0  0
  1  6  4  0  0  0  0
  2  3  4  0  0  0  0
  2 18  1  0  0  0  0
  3  4  4  0  0  0  0
  4  5  4  0  0  0  0
  4  7  4  0  0  0  0
  5  6  4  0  0  0  0
  5  9  4  0  0  0  0
  6 25  1  0  0  0  0
  7  8  4  0  0  0  0
  7 26  1  0  0  0  0
  8  9  4  0  0  0  0
  9 10  1  0  0  0  0
 10 11  4  0  0  0  0
 10 15  4  0  0  0  0
 11 12  4  0  0  0  0
 11 27  1  0  0  0  0
 12 13  4  0  0  0  0
 12 28  1  0  0  0  0
 13 14  4  0  0  0  0
 13 16  1  0  0  0  0
 14 15  4  0  0  0  0
 14 29  1  0  0  0  0
 15 30  1  0  0  0  0
 16 17  1  0  0  0  0
 17 31  1  0  0  0  0
 17 32  1  0  0  0  0
 17 33  1  0  0  0  0
 18 19  1  0  0  0  0
 18 34  1  0  0  0  0
 19 20  1  0  0  0  0
 19 23  1  0  0  0  0
 19 35  1  0  0  0  0
 20 21  1  0  0  0  0
 20 36  1  0  0  0  0
 20 37  1  0  0  0  0
 21 22  1  0  0  0  0
 21 24  1  0  0  0  0
 21 38  1  0  0  0  0
 22 23  1  0  0  0  0
 22 39  1  0  0  0  0
 22 40  1  0  0  0  0
 23 41  1  0  0  0  0
 23 42  1  0  0  0  0
 24 43  1  0  0  0  0
 24 44  1  0  0  0  0
M  END
> <ConfClashScore>
0 

> <ConfOneFourInteractionScore>
-0.984337 

> <ConfScore>
-0.00686551 

> <ConfScorePBest>
0.0026336 

> <ConfTolerance>
0.52169 

$$$$
c13.sdf
 OpenBabel04162418043D

 44 47  0  0  0  0  0  0  0  0999 V2000
    2.1079   -0.3773   -1.8532 N   0  0  0  1  0  0  0  0  0  0  0  0
    2.5363    0.5907   -2.6455 C   0  0  0  1  0  0  0  0  0  0  0  0
    2.1526    0.6996   -3.8968 N   0  0  0  1  0  0  0  0  0  0  0  0
    1.2985   -0.1837   -4.4201 C   0  0  0  1  0  0  0  0  0  0  0  0
    0.8205   -1.2305   -3.6033 C   0  0  0  1  0  0  0  0  0  0  0  0
    1.2615   -1.2959   -2.2849 C   0  0  0  1  0  0  0  0  0  0  0  0
    0.7019   -0.3514   -5.6890 C   0  0  0  1  0  0  0  0  0  0  0  0
   -0.0689   -1.4011   -5.6537 N   0  0  0  1  0  0  0  0  0  0  0  0
   -0.0256   -1.9781   -4.3778 N   0  0  0  1  0  0  0  0  0  0  0  0
   -0.7805   -3.1369   -4.0811 C   0  0  0  1  0  0  0  0  0  0  0  0
   -1.9007   -3.4964   -4.8064 C   0  0  0  1  0  0  0  0  0  0  0  0
   -2.6008   -4.6461   -4.4757 C   0  0  0  1  0  0  0  0  0  0  0  0
   -2.1821   -5.4300   -3.4172 C   0  0  0  1  0  0  0  0  0  0  0  0
   -1.0585   -5.0693   -2.6898 C   0  0  0  1  0  0  0  0  0  0  0  0
   -0.3604   -3.9230   -3.0195 C   0  0  0  1  0  0  0  0  0  0  0  0
   -2.7788   -6.5542   -3.0041 O   0  0  0  1  0  0  0  0  0  0  0  0
   -4.0984   -6.9552   -3.5044 C   0  0  0  1  0  0  0  0  0  0  0  0
    3.3977    1.4989   -2.1527 N   0  0  0  1  0  0  0  0  0  0  0  0
    3.8602    1.5154   -0.7641 C   0  0  0  1  0  0  0  0  0  0  0  0
    5.3886    1.6053   -0.7035 C   0  0  0  1  0  0  0  0  0  0  0  0
    5.7255    3.0944   -0.5485 C   0  0  0  1  0  0  0  0  0  0  0  0
    4.3769    3.8195   -0.5435 C   0  0  0  1  0  0  0  0  0  0  0  0
    3.3764    2.7678   -0.0518 C   0  0  0  1  0  0  0  0  0  0  0  0
    6.4530    3.3349    0.7354 N   0  0  0  1  0  0  0  0  0  0  0  0
    0.9317   -2.0526   -1.6522 H   0  0  0  1  0  0  0  0  0  0  0  0
    0.8530    0.2619   -6.5153 H   0  0  0  1  0  0  0  0  0  0  0  0
   -2.2183   -2.9044   -5.6004 H   0  0  0  1  0  0  0  0  0  0  0  0
   -3.4414   -4.9188   -5.0240 H   0  0  0  1  0  0  0  0  0  0  0  0
   -0.7410   -5.6613   -1.8959 H   0  0  0  1  0  0  0  0  0  0  0  0
    0.4802   -3.6502   -2.4711 H   0  0  0  1  0  0  0  0  0  0  0  0
   -4.2249   -8.0095   -3.3732 H   0  0  0  1  0  0  0  0  0  0  0  0
   -4.1739   -6.7139   -4.5442 H   0  0  0  1  0  0  0  0  0  0  0  0
   -4.8590   -6.4346   -2.9609 H   0  0  0  1  0  0  0  0  0  0  0  0
    3.7355    2.1904   -2.7593 H   0  0  0  1  0  0  0  0  0  0  0  0
    3.5129    0.6368   -0.2616 H   0  0  0  1  0  0  0  0  0  0  0  0
    5.7595    1.0524    0.1342 H   0  0  0  1  0  0  0  0  0  0  0  0
    5.8185    1.2200   -1.6044 H   0  0  0  1  0  0  0  0  0  0  0  0
    6.3270    3.4290   -1.3678 H   0  0  0  1  0  0  0  0  0  0  0  0
    4.1226    4.1515   -1.5284 H   0  0  0  1  0  0  0  0  0  0  0  0
    4.4010    4.6579    0.1209 H   0  0  0  1  0  0  0  0  0  0  0  0
    2.3767    3.0174   -0.3402 H   0  0  0  1  0  0  0  0  0  0  0  0
    3.4235    2.6533    1.0110 H   0  0  0  1  0  0  0  0  0  0  0  0
    5.9822    2.8844    1.4675 H   0  0  0  1  0  0  0  0  0  0  0  0
    6.4897    4.2977    0.9145 H   0  0  0  1  0  0  0  0  0  0  0  0
  1  2  4  0  0  0  0
  1  6  4  0  0  0  0
  2  3  4  0  0  0  0
  2 18  1  0  0  0  0
  3  4  4  0  0  0  0
  4  5  4  0  0  0  0
  4  7  4  0  0  0  0
  5  6  4  0  0  0  0
  5  9  4  0  0  0  0
  6 25  1  0  0  0  0
  7  8  4  0  0  0  0
  7 26  1  0  0  0  0
  8  9  4  0  0  0  0
  9 10  1  0  0  0  0
 10 11  4  0  0  0  0
 10 15  4  0  0  0  0
 11 12  4  0  0  0  0
 11 27  1  0  0  0  0
 12 13  4  0  0  0  0
 12 28  1  0  0  0  0
 13 14  4  0  0  0  0
 13 16  1  0  0  0  0
 14 15  4  0  0  0  0
 14 29  1  0  0  0  0
 15 30  1  0  0  0  0
 16 17  1  0  0  0  0
 17 31  1  0  0  0  0
 17 32  1  0  0  0  0
 17 33  1  0  0  0  0
 18 19  1  0  0  0  0
 18 34  1  0  0  0  0
 19 20  1  0  0  0  0
 19 23  1  0  0  0  0
 19 35  1  0  0  0  0
 20 21  1  0  0  0  0
 20 36  1  0  0  0  0
 20 37  1  0  0  0  0
 21 22  1  0  0  0  0
 21 24  1  0  0  0  0
 21 38  1  0  0  0  0
 22 23  1  0  0  0  0
 22 39  1  0  0  0  0
 22 40  1  0  0  0  0
 23 41  1  0  0  0  0
 23 42  1  0  0  0  0
 24 43  1  0  0  0  0
 24 44  1  0  0  0  0
M  END
> <ConfClashScore>
0 

> <ConfOneFourInteractionScore>
-0.984337 

> <ConfScore>
-0.0061304 

> <ConfScorePBest>
0.00262028 

> <ConfTolerance>
0.526533 

$$$$
c13.sdf
 OpenBabel04162418043D

 44 47  0  0  0  0  0  0  0  0999 V2000
    2.1078   -0.3773   -1.8533 N   0  0  0  1  0  0  0  0  0  0  0  0
    2.5364    0.5907   -2.6455 C   0  0  0  1  0  0  0  0  0  0  0  0
    2.1526    0.6996   -3.8968 N   0  0  0  1  0  0  0  0  0  0  0  0
    1.2986   -0.1837   -4.4201 C   0  0  0  1  0  0  0  0  0  0  0  0
    0.8204   -1.2305   -3.6034 C   0  0  0  1  0  0  0  0  0  0  0  0
    1.2615   -1.2959   -2.2849 C   0  0  0  1  0  0  0  0  0  0  0  0
    0.7020   -0.3513   -5.6891 C   0  0  0  1  0  0  0  0  0  0  0  0
   -0.0689   -1.4010   -5.6538 N   0  0  0  1  0  0  0  0  0  0  0  0
   -0.0256   -1.9781   -4.3778 N   0  0  0  1  0  0  0  0  0  0  0  0
   -0.7858   -3.1447   -4.0792 C   0  0  0  1  0  0  0  0  0  0  0  0
   -1.7470   -3.1077   -3.0867 C   0  0  0  1  0  0  0  0  0  0  0  0
   -2.4905   -4.2418   -2.7997 C   0  0  0  1  0  0  0  0  0  0  0  0
   -2.2671   -5.4110   -3.5022 C   0  0  0  1  0  0  0  0  0  0  0  0
   -1.3030   -5.4478   -4.4975 C   0  0  0  1  0  0  0  0  0  0  0  0
   -0.5615   -4.3171   -4.7838 C   0  0  0  1  0  0  0  0  0  0  0  0
   -2.9450   -6.6141   -3.3019 O   0  0  0  1  0  0  0  0  0  0  0  0
   -3.9824   -6.6253   -2.3088 C   0  0  0  1  0  0  0  0  0  0  0  0
    3.4009    1.5329   -2.2121 N   0  0  0  1  0  0  0  0  0  0  0  0
    3.8349    2.6688   -3.0158 C   0  0  0  1  0  0  0  0  0  0  0  0
    3.5739    4.0078   -2.2470 C   0  0  0  1  0  0  0  0  0  0  0  0
    4.9269    4.2546   -1.4974 C   0  0  0  1  0  0  0  0  0  0  0  0
    5.9914    3.7864   -2.5084 C   0  0  0  1  0  0  0  0  0  0  0  0
    5.3683    2.5987   -3.2628 C   0  0  0  1  0  0  0  0  0  0  0  0
    5.0986    5.6889   -1.1756 N   0  0  0  1  0  0  0  0  0  0  0  0
    0.9316   -2.0525   -1.6522 H   0  0  0  1  0  0  0  0  0  0  0  0
    0.8530    0.2620   -6.5153 H   0  0  0  1  0  0  0  0  0  0  0  0
   -1.9123   -2.2292   -2.5554 H   0  0  0  1  0  0  0  0  0  0  0  0
   -3.2166   -4.2129   -2.0556 H   0  0  0  1  0  0  0  0  0  0  0  0
   -1.1377   -6.3264   -5.0289 H   0  0  0  1  0  0  0  0  0  0  0  0
    0.1645   -4.3460   -5.5278 H   0  0  0  1  0  0  0  0  0  0  0  0
   -4.2062   -7.6358   -2.0376 H   0  0  0  1  0  0  0  0  0  0  0  0
   -4.8605   -6.1598   -2.7053 H   0  0  0  1  0  0  0  0  0  0  0  0
   -3.6534   -6.0885   -1.4436 H   0  0  0  1  0  0  0  0  0  0  0  0
    3.7578    1.4480   -1.3034 H   0  0  0  1  0  0  0  0  0  0  0  0
    3.3093    2.6684   -3.9479 H   0  0  0  1  0  0  0  0  0  0  0  0
    2.7648    3.9020   -1.5549 H   0  0  0  1  0  0  0  0  0  0  0  0
    3.3602    4.8060   -2.9270 H   0  0  0  1  0  0  0  0  0  0  0  0
    4.9754    3.6783   -0.5972 H   0  0  0  1  0  0  0  0  0  0  0  0
    6.8789    3.4772   -1.9969 H   0  0  0  1  0  0  0  0  0  0  0  0
    6.2289    4.5762   -3.1902 H   0  0  0  1  0  0  0  0  0  0  0  0
    5.7605    1.6767   -2.8873 H   0  0  0  1  0  0  0  0  0  0  0  0
    5.5772    2.6760   -4.3093 H   0  0  0  1  0  0  0  0  0  0  0  0
    4.3369    5.9980   -0.6420 H   0  0  0  1  0  0  0  0  0  0  0  0
    5.1464    6.2064   -2.0065 H   0  0  0  1  0  0  0  0  0  0  0  0
  1  2  4  0  0  0  0
  1  6  4  0  0  0  0
  2  3  4  0  0  0  0
  2 18  1  0  0  0  0
  3  4  4  0  0  0  0
  4  5  4  0  0  0  0
  4  7  4  0  0  0  0
  5  6  4  0  0  0  0
  5  9  4  0  0  0  0
  6 25  1  0  0  0  0
  7  8  4  0  0  0  0
  7 26  1  0  0  0  0
  8  9  4  0  0  0  0
  9 10  1  0  0  0  0
 10 11  4  0  0  0  0
 10 15  4  0  0  0  0
 11 12  4  0  0  0  0
 11 27  1  0  0  0  0
 12 13  4  0  0  0  0
 12 28  1  0  0  0  0
 13 14  4  0  0  0  0
 13 16  1  0  0  0  0
 14 15  4  0  0  0  0
 14 29  1  0  0  0  0
 15 30  1  0  0  0  0
 16 17  1  0  0  0  0
 17 31  1  0  0  0  0
 17 32  1  0  0  0  0
 17 33  1  0  0  0  0
 18 19  1  0  0  0  0
 18 34  1  0  0  0  0
 19 20  1  0  0  0  0
 19 23  1  0  0  0  0
 19 35  1  0  0  0  0
 20 21  1  0  0  0  0
 20 36  1  0  0  0  0
 20 37  1  0  0  0  0
 21 22  1  0  0  0  0
 21 24  1  0  0  0  0
 21 38  1  0  0  0  0
 22 23  1  0  0  0  0
 22 39  1  0  0  0  0
 22 40  1  0  0  0  0
 23 41  1  0  0  0  0
 23 42  1  0  0  0  0
 24 43  1  0  0  0  0
 24 44  1  0  0  0  0
M  END
> <ConfClashScore>
0 

> <ConfOneFourInteractionScore>
-0.984337 

> <ConfScore>
-0.0053752 

> <ConfScorePBest>
0.00260695 

> <ConfTolerance>
0.558439 

$$$$
c13.sdf
 OpenBabel04162418043D

 44 47  0  0  0  0  0  0  0  0999 V2000
    2.1079   -0.3773   -1.8532 N   0  0  0  1  0  0  0  0  0  0  0  0
    2.5363    0.5907   -2.6455 C   0  0  0  1  0  0  0  0  0  0  0  0
    2.1526    0.6996   -3.8968 N   0  0  0  1  0  0  0  0  0  0  0  0
    1.2985   -0.1838   -4.4201 C   0  0  0  1  0  0  0  0  0  0  0  0
    0.8205   -1.2305   -3.6033 C   0  0  0  1  0  0  0  0  0  0  0  0
    1.2615   -1.2960   -2.2850 C   0  0  0  1  0  0  0  0  0  0  0  0
    0.7019   -0.3512   -5.6890 C   0  0  0  1  0  0  0  0  0  0  0  0
   -0.0689   -1.4010   -5.6538 N   0  0  0  1  0  0  0  0  0  0  0  0
   -0.0256   -1.9781   -4.3778 N   0  0  0  1  0  0  0  0  0  0  0  0
   -0.7969   -3.1366   -4.1258 C   0  0  0  1  0  0  0  0  0  0  0  0
   -1.9746   -3.0401   -3.4089 C   0  0  0  1  0  0  0  0  0  0  0  0
   -2.7331   -4.1747   -3.1664 C   0  0  0  1  0  0  0  0  0  0  0  0
   -2.3093   -5.4032   -3.6371 C   0  0  0  1  0  0  0  0  0  0  0  0
   -1.1281   -5.4997   -4.3560 C   0  0  0  1  0  0  0  0  0  0  0  0
   -0.3716   -4.3686   -4.5978 C   0  0  0  1  0  0  0  0  0  0  0  0
   -2.9532   -6.5628   -3.4609 O   0  0  0  1  0  0  0  0  0  0  0  0
   -4.1867   -6.6473   -2.6708 C   0  0  0  1  0  0  0  0  0  0  0  0
    3.4098    1.5117   -2.1456 N   0  0  0  1  0  0  0  0  0  0  0  0
    3.8629    1.4663   -0.7545 C   0  0  0  1  0  0  0  0  0  0  0  0
    5.1393    0.6244   -0.6328 C   0  0  0  1  0  0  0  0  0  0  0  0
    6.1819    1.5117    0.0515 C   0  0  0  1  0  0  0  0  0  0  0  0
    5.3900    2.6353    0.7245 C   0  0  0  1  0  0  0  0  0  0  0  0
    4.2539    2.8673   -0.2717 C   0  0  0  1  0  0  0  0  0  0  0  0
    6.9439    0.7290    1.0702 N   0  0  0  1  0  0  0  0  0  0  0  0
    0.9317   -2.0527   -1.6523 H   0  0  0  1  0  0  0  0  0  0  0  0
    0.8528    0.2621   -6.5152 H   0  0  0  1  0  0  0  0  0  0  0  0
   -2.2916   -2.1164   -3.0513 H   0  0  0  1  0  0  0  0  0  0  0  0
   -3.6214   -4.1015   -2.6304 H   0  0  0  1  0  0  0  0  0  0  0  0
   -0.8111   -6.4234   -4.7136 H   0  0  0  1  0  0  0  0  0  0  0  0
    0.5167   -4.4417   -5.1338 H   0  0  0  1  0  0  0  0  0  0  0  0
   -4.8401   -7.3747   -3.1054 H   0  0  0  1  0  0  0  0  0  0  0  0
   -4.6708   -5.6932   -2.6625 H   0  0  0  1  0  0  0  0  0  0  0  0
   -3.9488   -6.9358   -1.6683 H   0  0  0  1  0  0  0  0  0  0  0  0
    3.7426    2.2221   -2.7331 H   0  0  0  1  0  0  0  0  0  0  0  0
    3.0869    1.0611   -0.1393 H   0  0  0  1  0  0  0  0  0  0  0  0
    4.9516   -0.2479   -0.0422 H   0  0  0  1  0  0  0  0  0  0  0  0
    5.4829    0.3318   -1.6030 H   0  0  0  1  0  0  0  0  0  0  0  0
    6.8609    1.9144   -0.6707 H   0  0  0  1  0  0  0  0  0  0  0  0
    5.0138    2.3280    1.6779 H   0  0  0  1  0  0  0  0  0  0  0  0
    5.9881    3.5146    0.8431 H   0  0  0  1  0  0  0  0  0  0  0  0
    3.4250    3.3456    0.2071 H   0  0  0  1  0  0  0  0  0  0  0  0
    4.5884    3.4683   -1.0912 H   0  0  0  1  0  0  0  0  0  0  0  0
    7.3881   -0.0287    0.6354 H   0  0  0  1  0  0  0  0  0  0  0  0
    6.3268    0.3965    1.7549 H   0  0  0  1  0  0  0  0  0  0  0  0
  1  2  4  0  0  0  0
  1  6  4  0  0  0  0
  2  3  4  0  0  0  0
  2 18  1  0  0  0  0
  3  4  4  0  0  0  0
  4  5  4  0  0  0  0
  4  7  4  0  0  0  0
  5  6  4  0  0  0  0
  5  9  4  0  0  0  0
  6 25  1  0  0  0  0
  7  8  4  0  0  0  0
  7 26  1  0  0  0  0
  8  9  4  0  0  0  0
  9 10  1  0  0  0  0
 10 11  4  0  0  0  0
 10 15  4  0  0  0  0
 11 12  4  0  0  0  0
 11 27  1  0  0  0  0
 12 13  4  0  0  0  0
 12 28  1  0  0  0  0
 13 14  4  0  0  0  0
 13 16  1  0  0  0  0
 14 15  4  0  0  0  0
 14 29  1  0  0  0  0
 15 30  1  0  0  0  0
 16 17  1  0  0  0  0
 17 31  1  0  0  0  0
 17 32  1  0  0  0  0
 17 33  1  0  0  0  0
 18 19  1  0  0  0  0
 18 34  1  0  0  0  0
 19 20  1  0  0  0  0
 19 23  1  0  0  0  0
 19 35  1  0  0  0  0
 20 21  1  0  0  0  0
 20 36  1  0  0  0  0
 20 37  1  0  0  0  0
 21 22  1  0  0  0  0
 21 24  1  0  0  0  0
 21 38  1  0  0  0  0
 22 23  1  0  0  0  0
 22 39  1  0  0  0  0
 22 40  1  0  0  0  0
 23 41  1  0  0  0  0
 23 42  1  0  0  0  0
 24 43  1  0  0  0  0
 24 44  1  0  0  0  0
M  END
> <ConfClashScore>
0 

> <ConfOneFourInteractionScore>
-0.984337 

> <ConfScore>
-0.00193619 

> <ConfScorePBest>
0.00259362 

> <ConfTolerance>
0.392933 

$$$$
c13.sdf
 OpenBabel04162418043D

 44 47  0  0  0  0  0  0  0  0999 V2000
    2.1080   -0.3774   -1.8532 N   0  0  0  1  0  0  0  0  0  0  0  0
    2.5363    0.5907   -2.6455 C   0  0  0  1  0  0  0  0  0  0  0  0
    2.1525    0.6997   -3.8967 N   0  0  0  1  0  0  0  0  0  0  0  0
    1.2985   -0.1838   -4.4201 C   0  0  0  1  0  0  0  0  0  0  0  0
    0.8205   -1.2305   -3.6033 C   0  0  0  1  0  0  0  0  0  0  0  0
    1.2616   -1.2960   -2.2849 C   0  0  0  1  0  0  0  0  0  0  0  0
    0.7019   -0.3512   -5.6890 C   0  0  0  1  0  0  0  0  0  0  0  0
   -0.0690   -1.4010   -5.6537 N   0  0  0  1  0  0  0  0  0  0  0  0
   -0.0256   -1.9781   -4.3778 N   0  0  0  1  0  0  0  0  0  0  0  0
   -0.7658   -3.1435   -4.0285 C   0  0  0  1  0  0  0  0  0  0  0  0
   -0.2851   -4.0024   -3.0584 C   0  0  0  1  0  0  0  0  0  0  0  0
   -1.0084   -5.1339   -2.7146 C   0  0  0  1  0  0  0  0  0  0  0  0
   -2.2075   -5.4060   -3.3458 C   0  0  0  1  0  0  0  0  0  0  0  0
   -2.6895   -4.5444   -4.3188 C   0  0  0  1  0  0  0  0  0  0  0  0
   -1.9684   -3.4161   -4.6616 C   0  0  0  1  0  0  0  0  0  0  0  0
   -2.8206   -6.5401   -2.9314 O   0  0  0  1  0  0  0  0  0  0  0  0
   -4.0286   -6.9184   -3.6098 C   0  0  0  1  0  0  0  0  0  0  0  0
    3.3914    1.4695   -2.1106 N   0  0  0  1  0  0  0  0  0  0  0  0
    3.8723    1.4820   -0.7346 C   0  0  0  1  0  0  0  0  0  0  0  0
    4.5221    0.1289   -0.3907 C   0  0  0  1  0  0  0  0  0  0  0  0
    6.0246    0.3618   -0.7640 C   0  0  0  1  0  0  0  0  0  0  0  0
    6.2559    1.8015   -0.2889 C   0  0  0  1  0  0  0  0  0  0  0  0
    4.9749    2.5838   -0.5610 C   0  0  0  1  0  0  0  0  0  0  0  0
    6.9203   -0.6004   -0.0405 N   0  0  0  1  0  0  0  0  0  0  0  0
    0.9318   -2.0527   -1.6522 H   0  0  0  1  0  0  0  0  0  0  0  0
    0.8528    0.2622   -6.5151 H   0  0  0  1  0  0  0  0  0  0  0  0
    0.6192   -3.7998   -2.5862 H   0  0  0  1  0  0  0  0  0  0  0  0
   -0.6486   -5.7781   -1.9817 H   0  0  0  1  0  0  0  0  0  0  0  0
   -3.5937   -4.7469   -4.7910 H   0  0  0  1  0  0  0  0  0  0  0  0
   -2.3281   -2.7719   -5.3946 H   0  0  0  1  0  0  0  0  0  0  0  0
   -4.8650   -6.4424   -3.1421 H   0  0  0  1  0  0  0  0  0  0  0  0
   -4.1484   -7.9804   -3.5587 H   0  0  0  1  0  0  0  0  0  0  0  0
   -3.9723   -6.6142   -4.6341 H   0  0  0  1  0  0  0  0  0  0  0  0
    3.7277    2.1745   -2.7023 H   0  0  0  1  0  0  0  0  0  0  0  0
    3.0543    1.6746   -0.0722 H   0  0  0  1  0  0  0  0  0  0  0  0
    4.4139   -0.0973    0.6494 H   0  0  0  1  0  0  0  0  0  0  0  0
    4.0980   -0.6615   -0.9741 H   0  0  0  1  0  0  0  0  0  0  0  0
    6.1809    0.2714   -1.8187 H   0  0  0  1  0  0  0  0  0  0  0  0
    7.0715    2.2373   -0.8271 H   0  0  0  1  0  0  0  0  0  0  0  0
    6.4738    1.8102    0.7586 H   0  0  0  1  0  0  0  0  0  0  0  0
    4.7418    3.2258    0.2627 H   0  0  0  1  0  0  0  0  0  0  0  0
    5.0703    3.1673   -1.4528 H   0  0  0  1  0  0  0  0  0  0  0  0
    6.6047   -1.5162   -0.1891 H   0  0  0  1  0  0  0  0  0  0  0  0
    6.9058   -0.4017    0.9190 H   0  0  0  1  0  0  0  0  0  0  0  0
  1  2  4  0  0  0  0
  1  6  4  0  0  0  0
  2  3  4  0  0  0  0
  2 18  1  0  0  0  0
  3  4  4  0  0  0  0
  4  5  4  0  0  0  0
  4  7  4  0  0  0  0
  5  6  4  0  0  0  0
  5  9  4  0  0  0  0
  6 25  1  0  0  0  0
  7  8  4  0  0  0  0
  7 26  1  0  0  0  0
  8  9  4  0  0  0  0
  9 10  1  0  0  0  0
 10 11  4  0  0  0  0
 10 15  4  0  0  0  0
 11 12  4  0  0  0  0
 11 27  1  0  0  0  0
 12 13  4  0  0  0  0
 12 28  1  0  0  0  0
 13 14  4  0  0  0  0
 13 16  1  0  0  0  0
 14 15  4  0  0  0  0
 14 29  1  0  0  0  0
 15 30  1  0  0  0  0
 16 17  1  0  0  0  0
 17 31  1  0  0  0  0
 17 32  1  0  0  0  0
 17 33  1  0  0  0  0
 18 19  1  0  0  0  0
 18 34  1  0  0  0  0
 19 20  1  0  0  0  0
 19 23  1  0  0  0  0
 19 35  1  0  0  0  0
 20 21  1  0  0  0  0
 20 36  1  0  0  0  0
 20 37  1  0  0  0  0
 21 22  1  0  0  0  0
 21 24  1  0  0  0  0
 21 38  1  0  0  0  0
 22 23  1  0  0  0  0
 22 39  1  0  0  0  0
 22 40  1  0  0  0  0
 23 41  1  0  0  0  0
 23 42  1  0  0  0  0
 24 43  1  0  0  0  0
 24 44  1  0  0  0  0
M  END
> <ConfClashScore>
0 

> <ConfOneFourInteractionScore>
-0.985399 

> <ConfScore>
-0.00137552 

> <ConfScorePBest>
0.00258029 

> <ConfTolerance>
0.445724 

$$$$
c13.sdf
 OpenBabel04162418043D

 44 47  0  0  0  0  0  0  0  0999 V2000
    2.1079   -0.3773   -1.8532 N   0  0  0  1  0  0  0  0  0  0  0  0
    2.5363    0.5907   -2.6455 C   0  0  0  1  0  0  0  0  0  0  0  0
    2.1525    0.6996   -3.8968 N   0  0  0  1  0  0  0  0  0  0  0  0
    1.2986   -0.1837   -4.4201 C   0  0  0  1  0  0  0  0  0  0  0  0
    0.8204   -1.2305   -3.6033 C   0  0  0  1  0  0  0  0  0  0  0  0
    1.2615   -1.2961   -2.2849 C   0  0  0  1  0  0  0  0  0  0  0  0
    0.7018   -0.3513   -5.6890 C   0  0  0  1  0  0  0  0  0  0  0  0
   -0.0690   -1.4011   -5.6537 N   0  0  0  1  0  0  0  0  0  0  0  0
   -0.0256   -1.9781   -4.3778 N   0  0  0  1  0  0  0  0  0  0  0  0
   -0.7806   -3.1369   -4.0811 C   0  0  0  1  0  0  0  0  0  0  0  0
   -2.1129   -2.9672   -3.7552 C   0  0  0  1  0  0  0  0  0  0  0  0
   -2.9002   -4.0695   -3.4609 C   0  0  0  1  0  0  0  0  0  0  0  0
   -2.3515   -5.3378   -3.4881 C   0  0  0  1  0  0  0  0  0  0  0  0
   -1.0151   -5.5078   -3.8150 C   0  0  0  1  0  0  0  0  0  0  0  0
   -0.2302   -4.4088   -4.1085 C   0  0  0  1  0  0  0  0  0  0  0  0
   -3.0602   -6.4486   -3.2076 O   0  0  0  1  0  0  0  0  0  0  0  0
   -4.4614   -6.2258   -2.9253 C   0  0  0  1  0  0  0  0  0  0  0  0
    3.4098    1.5117   -2.1457 N   0  0  0  1  0  0  0  0  0  0  0  0
    3.9043    2.6119   -2.9545 C   0  0  0  1  0  0  0  0  0  0  0  0
    2.7362    3.3528   -3.6097 C   0  0  0  1  0  0  0  0  0  0  0  0
    3.0695    4.8415   -3.4850 C   0  0  0  1  0  0  0  0  0  0  0  0
    3.7661    4.9007   -2.1254 C   0  0  0  1  0  0  0  0  0  0  0  0
    4.6288    3.6351   -2.0707 C   0  0  0  1  0  0  0  0  0  0  0  0
    3.9689    5.2802   -4.5659 N   0  0  0  1  0  0  0  0  0  0  0  0
    0.9317   -2.0527   -1.6522 H   0  0  0  1  0  0  0  0  0  0  0  0
    0.8528    0.2621   -6.5151 H   0  0  0  1  0  0  0  0  0  0  0  0
   -2.5248   -2.0125   -3.7308 H   0  0  0  1  0  0  0  0  0  0  0  0
   -3.9037   -3.9422   -3.2196 H   0  0  0  1  0  0  0  0  0  0  0  0
   -0.6032   -6.4625   -3.8394 H   0  0  0  1  0  0  0  0  0  0  0  0
    0.7734   -4.5361   -4.3498 H   0  0  0  1  0  0  0  0  0  0  0  0
   -4.8863   -7.1128   -2.5040 H   0  0  0  1  0  0  0  0  0  0  0  0
   -4.9733   -5.9817   -3.8326 H   0  0  0  1  0  0  0  0  0  0  0  0
   -4.5610   -5.4182   -2.2305 H   0  0  0  1  0  0  0  0  0  0  0  0
    3.7115    1.4288   -1.2170 H   0  0  0  1  0  0  0  0  0  0  0  0
    4.5688    2.2343   -3.7032 H   0  0  0  1  0  0  0  0  0  0  0  0
    1.8214    3.1312   -3.1010 H   0  0  0  1  0  0  0  0  0  0  0  0
    2.6486    3.0749   -4.6393 H   0  0  0  1  0  0  0  0  0  0  0  0
    2.1826    5.4399   -3.4933 H   0  0  0  1  0  0  0  0  0  0  0  0
    3.0466    4.9006   -1.3334 H   0  0  0  1  0  0  0  0  0  0  0  0
    4.3768    5.7763   -2.0530 H   0  0  0  1  0  0  0  0  0  0  0  0
    5.6085    3.8330   -2.4527 H   0  0  0  1  0  0  0  0  0  0  0  0
    4.7032    3.2758   -1.0656 H   0  0  0  1  0  0  0  0  0  0  0  0
    4.7687    4.7140   -4.5761 H   0  0  0  1  0  0  0  0  0  0  0  0
    4.2308    6.2124   -4.4145 H   0  0  0  1  0  0  0  0  0  0  0  0
  1  2  4  0  0  0  0
  1  6  4  0  0  0  0
  2  3  4  0  0  0  0
  2 18  1  0  0  0  0
  3  4  4  0  0  0  0
  4  5  4  0  0  0  0
  4  7  4  0  0  0  0
  5  6  4  0  0  0  0
  5  9  4  0  0  0  0
  6 25  1  0  0  0  0
  7  8  4  0  0  0  0
  7 26  1  0  0  0  0
  8  9  4  0  0  0  0
  9 10  1  0  0  0  0
 10 11  4  0  0  0  0
 10 15  4  0  0  0  0
 11 12  4  0  0  0  0
 11 27  1  0  0  0  0
 12 13  4  0  0  0  0
 12 28  1  0  0  0  0
 13 14  4  0  0  0  0
 13 16  1  0  0  0  0
 14 15  4  0  0  0  0
 14 29  1  0  0  0  0
 15 30  1  0  0  0  0
 16 17  1  0  0  0  0
 17 31  1  0  0  0  0
 17 32  1  0  0  0  0
 17 33  1  0  0  0  0
 18 19  1  0  0  0  0
 18 34  1  0  0  0  0
 19 20  1  0  0  0  0
 19 23  1  0  0  0  0
 19 35  1  0  0  0  0
 20 21  1  0  0  0  0
 20 36  1  0  0  0  0
 20 37  1  0  0  0  0
 21 22  1  0  0  0  0
 21 24  1  0  0  0  0
 21 38  1  0  0  0  0
 22 23  1  0  0  0  0
 22 39  1  0  0  0  0
 22 40  1  0  0  0  0
 23 41  1  0  0  0  0
 23 42  1  0  0  0  0
 24 43  1  0  0  0  0
 24 44  1  0  0  0  0
M  END
> <ConfClashScore>
0 

> <ConfOneFourInteractionScore>
-0.991168 

> <ConfScore>
-0.000987539 

> <ConfScorePBest>
0.00256696 

> <ConfTolerance>
0.432989 

$$$$
c13.sdf
 OpenBabel04162418043D

 44 47  0  0  0  0  0  0  0  0999 V2000
    2.1079   -0.3774   -1.8532 N   0  0  0  1  0  0  0  0  0  0  0  0
    2.5363    0.5907   -2.6455 C   0  0  0  1  0  0  0  0  0  0  0  0
    2.1525    0.6996   -3.8968 N   0  0  0  1  0  0  0  0  0  0  0  0
    1.2985   -0.1837   -4.4201 C   0  0  0  1  0  0  0  0  0  0  0  0
    0.8205   -1.2305   -3.6033 C   0  0  0  1  0  0  0  0  0  0  0  0
    1.2615   -1.2960   -2.2849 C   0  0  0  1  0  0  0  0  0  0  0  0
    0.7019   -0.3513   -5.6890 C   0  0  0  1  0  0  0  0  0  0  0  0
   -0.0689   -1.4010   -5.6537 N   0  0  0  1  0  0  0  0  0  0  0  0
   -0.0256   -1.9780   -4.3778 N   0  0  0  1  0  0  0  0  0  0  0  0
   -0.8602   -3.0488   -4.0240 C   0  0  0  1  0  0  0  0  0  0  0  0
   -1.5994   -3.1150   -2.8581 C   0  0  0  1  0  0  0  0  0  0  0  0
   -2.3989   -4.2189   -2.6063 C   0  0  0  1  0  0  0  0  0  0  0  0
   -2.4529   -5.2558   -3.5186 C   0  0  0  1  0  0  0  0  0  0  0  0
   -1.7114   -5.1893   -4.6879 C   0  0  0  1  0  0  0  0  0  0  0  0
   -0.9141   -4.0886   -4.9391 C   0  0  0  1  0  0  0  0  0  0  0  0
   -3.2606   -6.2789   -3.1635 O   0  0  0  1  0  0  0  0  0  0  0  0
   -3.2060   -7.5110   -3.8992 C   0  0  0  1  0  0  0  0  0  0  0  0
    3.4010    1.5329   -2.2120 N   0  0  0  1  0  0  0  0  0  0  0  0
    3.9271    2.6307   -3.0659 C   0  0  0  1  0  0  0  0  0  0  0  0
    2.7967    3.3550   -3.7972 C   0  0  0  1  0  0  0  0  0  0  0  0
    3.3760    4.7286   -4.1530 C   0  0  0  1  0  0  0  0  0  0  0  0
    4.4258    5.0183   -3.0726 C   0  0  0  1  0  0  0  0  0  0  0  0
    4.5310    3.7529   -2.2181 C   0  0  0  1  0  0  0  0  0  0  0  0
    4.0128    4.6937   -5.5054 N   0  0  0  1  0  0  0  0  0  0  0  0
    0.9317   -2.0526   -1.6523 H   0  0  0  1  0  0  0  0  0  0  0  0
    0.8529    0.2620   -6.5152 H   0  0  0  1  0  0  0  0  0  0  0  0
   -1.5558   -2.3366   -2.1698 H   0  0  0  1  0  0  0  0  0  0  0  0
   -2.9584   -4.2670   -1.7309 H   0  0  0  1  0  0  0  0  0  0  0  0
   -1.7551   -5.9677   -5.3762 H   0  0  0  1  0  0  0  0  0  0  0  0
   -0.3548   -4.0405   -5.8145 H   0  0  0  1  0  0  0  0  0  0  0  0
   -3.9290   -7.4886   -4.6876 H   0  0  0  1  0  0  0  0  0  0  0  0
   -3.4201   -8.3281   -3.2424 H   0  0  0  1  0  0  0  0  0  0  0  0
   -2.2282   -7.6344   -4.3158 H   0  0  0  1  0  0  0  0  0  0  0  0
    3.6994    1.4906   -1.2796 H   0  0  0  1  0  0  0  0  0  0  0  0
    4.6443    2.2353   -3.7544 H   0  0  0  1  0  0  0  0  0  0  0  0
    1.9428    3.4597   -3.1610 H   0  0  0  1  0  0  0  0  0  0  0  0
    2.5192    2.8224   -4.6828 H   0  0  0  1  0  0  0  0  0  0  0  0
    2.6084    5.4739   -4.1387 H   0  0  0  1  0  0  0  0  0  0  0  0
    5.3702    5.2383   -3.5247 H   0  0  0  1  0  0  0  0  0  0  0  0
    4.1166    5.8464   -2.4698 H   0  0  0  1  0  0  0  0  0  0  0  0
    3.9809    3.8704   -1.3080 H   0  0  0  1  0  0  0  0  0  0  0  0
    5.5549    3.5397   -1.9916 H   0  0  0  1  0  0  0  0  0  0  0  0
    4.4133    5.5664   -5.7010 H   0  0  0  1  0  0  0  0  0  0  0  0
    3.3334    4.4876   -6.1809 H   0  0  0  1  0  0  0  0  0  0  0  0
  1  2  4  0  0  0  0
  1  6  4  0  0  0  0
  2  3  4  0  0  0  0
  2 18  1  0  0  0  0
  3  4  4  0  0  0  0
  4  5  4  0  0  0  0
  4  7  4  0  0  0  0
  5  6  4  0  0  0  0
  5  9  4  0  0  0  0
  6 25  1  0  0  0  0
  7  8  4  0  0  0  0
  7 26  1  0  0  0  0
  8  9  4  0  0  0  0
  9 10  1  0  0  0  0
 10 11  4  0  0  0  0
 10 15  4  0  0  0  0
 11 12  4  0  0  0  0
 11 27  1  0  0  0  0
 12 13  4  0  0  0  0
 12 28  1  0  0  0  0
 13 14  4  0  0  0  0
 13 16  1  0  0  0  0
 14 15  4  0  0  0  0
 14 29  1  0  0  0  0
 15 30  1  0  0  0  0
 16 17  1  0  0  0  0
 17 31  1  0  0  0  0
 17 32  1  0  0  0  0
 17 33  1  0  0  0  0
 18 19  1  0  0  0  0
 18 34  1  0  0  0  0
 19 20  1  0  0  0  0
 19 23  1  0  0  0  0
 19 35  1  0  0  0  0
 20 21  1  0  0  0  0
 20 36  1  0  0  0  0
 20 37  1  0  0  0  0
 21 22  1  0  0  0  0
 21 24  1  0  0  0  0
 21 38  1  0  0  0  0
 22 23  1  0  0  0  0
 22 39  1  0  0  0  0
 22 40  1  0  0  0  0
 23 41  1  0  0  0  0
 23 42  1  0  0  0  0
 24 43  1  0  0  0  0
 24 44  1  0  0  0  0
M  END
> <ConfClashScore>
0 

> <ConfOneFourInteractionScore>
-0.985399 

> <ConfScore>
-2.77716e-05 

> <ConfScorePBest>
0.00255363 

> <ConfTolerance>
0.446487 

$$$$
c13.sdf
 OpenBabel04162418043D

 44 47  0  0  0  0  0  0  0  0999 V2000
    2.1080   -0.3774   -1.8532 N   0  0  0  1  0  0  0  0  0  0  0  0
    2.5363    0.5907   -2.6455 C   0  0  0  1  0  0  0  0  0  0  0  0
    2.1526    0.6996   -3.8968 N   0  0  0  1  0  0  0  0  0  0  0  0
    1.2986   -0.1837   -4.4201 C   0  0  0  1  0  0  0  0  0  0  0  0
    0.8204   -1.2305   -3.6034 C   0  0  0  1  0  0  0  0  0  0  0  0
    1.2616   -1.2960   -2.2849 C   0  0  0  1  0  0  0  0  0  0  0  0
    0.7019   -0.3512   -5.6889 C   0  0  0  1  0  0  0  0  0  0  0  0
   -0.0689   -1.4010   -5.6537 N   0  0  0  1  0  0  0  0  0  0  0  0
   -0.0256   -1.9781   -4.3778 N   0  0  0  1  0  0  0  0  0  0  0  0
   -0.7644   -3.1411   -4.0292 C   0  0  0  1  0  0  0  0  0  0  0  0
   -0.1110   -4.3444   -3.8419 C   0  0  0  1  0  0  0  0  0  0  0  0
   -0.8310   -5.4775   -3.4967 C   0  0  0  1  0  0  0  0  0  0  0  0
   -2.2028   -5.4052   -3.3450 C   0  0  0  1  0  0  0  0  0  0  0  0
   -2.8581   -4.1982   -3.5329 C   0  0  0  1  0  0  0  0  0  0  0  0
   -2.1403   -3.0683   -3.8771 C   0  0  0  1  0  0  0  0  0  0  0  0
   -3.0095   -6.4420   -3.0161 O   0  0  0  1  0  0  0  0  0  0  0  0
   -2.3842   -7.7164   -2.7981 C   0  0  0  1  0  0  0  0  0  0  0  0
    3.4098    1.5117   -2.1457 N   0  0  0  1  0  0  0  0  0  0  0  0
    3.8417    1.4810   -0.7547 C   0  0  0  1  0  0  0  0  0  0  0  0
    4.3452    0.0923   -0.3606 C   0  0  0  1  0  0  0  0  0  0  0  0
    5.2465    0.3319    0.8555 C   0  0  0  1  0  0  0  0  0  0  0  0
    5.7956    1.7533    0.6796 C   0  0  0  1  0  0  0  0  0  0  0  0
    5.0864    2.3458   -0.5404 C   0  0  0  1  0  0  0  0  0  0  0  0
    4.4575    0.2290    2.1194 N   0  0  0  1  0  0  0  0  0  0  0  0
    0.9318   -2.0527   -1.6522 H   0  0  0  1  0  0  0  0  0  0  0  0
    0.8528    0.2621   -6.5151 H   0  0  0  1  0  0  0  0  0  0  0  0
    0.9208   -4.3997   -3.9599 H   0  0  0  1  0  0  0  0  0  0  0  0
   -0.3387   -6.3821   -3.3518 H   0  0  0  1  0  0  0  0  0  0  0  0
   -3.8899   -4.1428   -3.4149 H   0  0  0  1  0  0  0  0  0  0  0  0
   -2.6325   -2.1636   -4.0220 H   0  0  0  1  0  0  0  0  0  0  0  0
   -1.3639   -7.5692   -2.5114 H   0  0  0  1  0  0  0  0  0  0  0  0
   -2.4216   -8.2907   -3.7000 H   0  0  0  1  0  0  0  0  0  0  0  0
   -2.9012   -8.2387   -2.0204 H   0  0  0  1  0  0  0  0  0  0  0  0
    3.7557    2.2120   -2.7376 H   0  0  0  1  0  0  0  0  0  0  0  0
    3.0370    1.7958   -0.1238 H   0  0  0  1  0  0  0  0  0  0  0  0
    3.5260   -0.5459   -0.1024 H   0  0  0  1  0  0  0  0  0  0  0  0
    4.9021   -0.3477   -1.1614 H   0  0  0  1  0  0  0  0  0  0  0  0
    6.0462   -0.3788    0.8748 H   0  0  0  1  0  0  0  0  0  0  0  0
    6.8523    1.7233    0.5142 H   0  0  0  1  0  0  0  0  0  0  0  0
    5.5868    2.3404    1.5495 H   0  0  0  1  0  0  0  0  0  0  0  0
    5.7229    2.3029   -1.3994 H   0  0  0  1  0  0  0  0  0  0  0  0
    4.8073    3.3616   -0.3529 H   0  0  0  1  0  0  0  0  0  0  0  0
    3.8003    0.9552    2.1549 H   0  0  0  1  0  0  0  0  0  0  0  0
    5.0617    0.2977    2.8879 H   0  0  0  1  0  0  0  0  0  0  0  0
  1  2  4  0  0  0  0
  1  6  4  0  0  0  0
  2  3  4  0  0  0  0
  2 18  1  0  0  0  0
  3  4  4  0  0  0  0
  4  5  4  0  0  0  0
  4  7  4  0  0  0  0
  5  6  4  0  0  0  0
  5  9  4  0  0  0  0
  6 25  1  0  0  0  0
  7  8  4  0  0  0  0
  7 26  1  0  0  0  0
  8  9  4  0  0  0  0
  9 10  1  0  0  0  0
 10 11  4  0  0  0  0
 10 15  4  0  0  0  0
 11 12  4  0  0  0  0
 11 27  1  0  0  0  0
 12 13  4  0  0  0  0
 12 28  1  0  0  0  0
 13 14  4  0  0  0  0
 13 16  1  0  0  0  0
 14 15  4  0  0  0  0
 14 29  1  0  0  0  0
 15 30  1  0  0  0  0
 16 17  1  0  0  0  0
 17 31  1  0  0  0  0
 17 32  1  0  0  0  0
 17 33  1  0  0  0  0
 18 19  1  0  0  0  0
 18 34  1  0  0  0  0
 19 20  1  0  0  0  0
 19 23  1  0  0  0  0
 19 35  1  0  0  0  0
 20 21  1  0  0  0  0
 20 36  1  0  0  0  0
 20 37  1  0  0  0  0
 21 22  1  0  0  0  0
 21 24  1  0  0  0  0
 21 38  1  0  0  0  0
 22 23  1  0  0  0  0
 22 39  1  0  0  0  0
 22 40  1  0  0  0  0
 23 41  1  0  0  0  0
 23 42  1  0  0  0  0
 24 43  1  0  0  0  0
 24 44  1  0  0  0  0
M  END
> <ConfClashScore>
0 

> <ConfOneFourInteractionScore>
-0.985399 

> <ConfScore>
0.000168025 

> <ConfScorePBest>
0.00254031 

> <ConfTolerance>
0.274681 

$$$$
c13.sdf
 OpenBabel04162418043D

 44 47  0  0  0  0  0  0  0  0999 V2000
    2.1079   -0.3773   -1.8532 N   0  0  0  1  0  0  0  0  0  0  0  0
    2.5364    0.5907   -2.6455 C   0  0  0  1  0  0  0  0  0  0  0  0
    2.1526    0.6997   -3.8968 N   0  0  0  1  0  0  0  0  0  0  0  0
    1.2985   -0.1838   -4.4201 C   0  0  0  1  0  0  0  0  0  0  0  0
    0.8204   -1.2305   -3.6034 C   0  0  0  1  0  0  0  0  0  0  0  0
    1.2615   -1.2960   -2.2850 C   0  0  0  1  0  0  0  0  0  0  0  0
    0.7019   -0.3513   -5.6890 C   0  0  0  1  0  0  0  0  0  0  0  0
   -0.0689   -1.4011   -5.6538 N   0  0  0  1  0  0  0  0  0  0  0  0
   -0.0256   -1.9781   -4.3778 N   0  0  0  1  0  0  0  0  0  0  0  0
   -0.9045   -3.0424   -4.0685 C   0  0  0  1  0  0  0  0  0  0  0  0
   -2.1556   -3.0974   -4.6531 C   0  0  0  1  0  0  0  0  0  0  0  0
   -3.0148   -4.1432   -4.3540 C   0  0  0  1  0  0  0  0  0  0  0  0
   -2.6225   -5.1281   -3.4673 C   0  0  0  1  0  0  0  0  0  0  0  0
   -1.3676   -5.0728   -2.8810 C   0  0  0  1  0  0  0  0  0  0  0  0
   -0.5108   -4.0300   -3.1791 C   0  0  0  1  0  0  0  0  0  0  0  0
   -3.5462   -6.0941   -3.2493 O   0  0  0  1  0  0  0  0  0  0  0  0
   -3.1663   -7.1844   -2.3953 C   0  0  0  1  0  0  0  0  0  0  0  0
    3.4009    1.5329   -2.2121 N   0  0  0  1  0  0  0  0  0  0  0  0
    3.9321    2.6053   -3.0580 C   0  0  0  1  0  0  0  0  0  0  0  0
    3.4627    3.9719   -2.5411 C   0  0  0  1  0  0  0  0  0  0  0  0
    4.7413    4.7307   -2.1747 C   0  0  0  1  0  0  0  0  0  0  0  0
    5.8283    4.0985   -3.0507 C   0  0  0  1  0  0  0  0  0  0  0  0
    5.4630    2.6244   -2.9918 C   0  0  0  1  0  0  0  0  0  0  0  0
    4.5970    6.1871   -2.4808 N   0  0  0  1  0  0  0  0  0  0  0  0
    0.9317   -2.0526   -1.6522 H   0  0  0  1  0  0  0  0  0  0  0  0
    0.8529    0.2620   -6.5153 H   0  0  0  1  0  0  0  0  0  0  0  0
   -2.4524   -2.3541   -5.3172 H   0  0  0  1  0  0  0  0  0  0  0  0
   -3.9548   -4.1868   -4.7970 H   0  0  0  1  0  0  0  0  0  0  0  0
   -1.0707   -5.8160   -2.2168 H   0  0  0  1  0  0  0  0  0  0  0  0
    0.4291   -3.9864   -2.7362 H   0  0  0  1  0  0  0  0  0  0  0  0
   -3.4416   -8.1107   -2.8549 H   0  0  0  1  0  0  0  0  0  0  0  0
   -3.6665   -7.0911   -1.4541 H   0  0  0  1  0  0  0  0  0  0  0  0
   -2.1077   -7.1640   -2.2407 H   0  0  0  1  0  0  0  0  0  0  0  0
    3.6904    1.4975   -1.2765 H   0  0  0  1  0  0  0  0  0  0  0  0
    3.6066    2.4590   -4.0668 H   0  0  0  1  0  0  0  0  0  0  0  0
    2.8392    3.8519   -1.6799 H   0  0  0  1  0  0  0  0  0  0  0  0
    2.9229    4.4946   -3.3029 H   0  0  0  1  0  0  0  0  0  0  0  0
    4.9712    4.6047   -1.1373 H   0  0  0  1  0  0  0  0  0  0  0  0
    5.7846    4.4701   -4.0532 H   0  0  0  1  0  0  0  0  0  0  0  0
    6.8036    4.2738   -2.6471 H   0  0  0  1  0  0  0  0  0  0  0  0
    5.8839    2.0973   -3.8223 H   0  0  0  1  0  0  0  0  0  0  0  0
    5.8073    2.1858   -2.0786 H   0  0  0  1  0  0  0  0  0  0  0  0
    3.7840    6.5318   -2.0557 H   0  0  0  1  0  0  0  0  0  0  0  0
    4.5364    6.3124   -3.4509 H   0  0  0  1  0  0  0  0  0  0  0  0
  1  2  4  0  0  0  0
  1  6  4  0  0  0  0
  2  3  4  0  0  0  0
  2 18  1  0  0  0  0
  3  4  4  0  0  0  0
  4  5  4  0  0  0  0
  4  7  4  0  0  0  0
  5  6  4  0  0  0  0
  5  9  4  0  0  0  0
  6 25  1  0  0  0  0
  7  8  4  0  0  0  0
  7 26  1  0  0  0  0
  8  9  4  0  0  0  0
  9 10  1  0  0  0  0
 10 11  4  0  0  0  0
 10 15  4  0  0  0  0
 11 12  4  0  0  0  0
 11 27  1  0  0  0  0
 12 13  4  0  0  0  0
 12 28  1  0  0  0  0
 13 14  4  0  0  0  0
 13 16  1  0  0  0  0
 14 15  4  0  0  0  0
 14 29  1  0  0  0  0
 15 30  1  0  0  0  0
 16 17  1  0  0  0  0
 17 31  1  0  0  0  0
 17 32  1  0  0  0  0
 17 33  1  0  0  0  0
 18 19  1  0  0  0  0
 18 34  1  0  0  0  0
 19 20  1  0  0  0  0
 19 23  1  0  0  0  0
 19 35  1  0  0  0  0
 20 21  1  0  0  0  0
 20 36  1  0  0  0  0
 20 37  1  0  0  0  0
 21 22  1  0  0  0  0
 21 24  1  0  0  0  0
 21 38  1  0  0  0  0
 22 23  1  0  0  0  0
 22 39  1  0  0  0  0
 22 40  1  0  0  0  0
 23 41  1  0  0  0  0
 23 42  1  0  0  0  0
 24 43  1  0  0  0  0
 24 44  1  0  0  0  0
M  END
> <ConfClashScore>
0 

> <ConfOneFourInteractionScore>
-0.984337 

> <ConfScore>
0.000592295 

> <ConfScorePBest>
0.00252698 

> <ConfTolerance>
0.476755 

$$$$
c13.sdf
 OpenBabel04162418043D

 44 47  0  0  0  0  0  0  0  0999 V2000
    2.1079   -0.3774   -1.8532 N   0  0  0  1  0  0  0  0  0  0  0  0
    2.5363    0.5907   -2.6455 C   0  0  0  1  0  0  0  0  0  0  0  0
    2.1526    0.6996   -3.8968 N   0  0  0  1  0  0  0  0  0  0  0  0
    1.2986   -0.1837   -4.4201 C   0  0  0  1  0  0  0  0  0  0  0  0
    0.8204   -1.2305   -3.6033 C   0  0  0  1  0  0  0  0  0  0  0  0
    1.2615   -1.2960   -2.2850 C   0  0  0  1  0  0  0  0  0  0  0  0
    0.7019   -0.3513   -5.6890 C   0  0  0  1  0  0  0  0  0  0  0  0
   -0.0689   -1.4010   -5.6538 N   0  0  0  1  0  0  0  0  0  0  0  0
   -0.0256   -1.9781   -4.3778 N   0  0  0  1  0  0  0  0  0  0  0  0
   -0.8609   -3.0770   -4.0691 C   0  0  0  1  0  0  0  0  0  0  0  0
   -1.8664   -2.9385   -3.1311 C   0  0  0  1  0  0  0  0  0  0  0  0
   -2.6884   -4.0140   -2.8324 C   0  0  0  1  0  0  0  0  0  0  0  0
   -2.4992   -5.2262   -3.4687 C   0  0  0  1  0  0  0  0  0  0  0  0
   -1.4906   -5.3650   -4.4095 C   0  0  0  1  0  0  0  0  0  0  0  0
   -0.6709   -4.2928   -4.7074 C   0  0  0  1  0  0  0  0  0  0  0  0
   -3.2331   -6.3443   -3.2565 O   0  0  0  1  0  0  0  0  0  0  0  0
   -4.3719   -6.2270   -2.3896 C   0  0  0  1  0  0  0  0  0  0  0  0
    3.3976    1.4989   -2.1527 N   0  0  0  1  0  0  0  0  0  0  0  0
    4.0326    2.5428   -2.9587 C   0  0  0  1  0  0  0  0  0  0  0  0
    4.7277    1.9508   -4.1849 C   0  0  0  1  0  0  0  0  0  0  0  0
    4.8372    3.1159   -5.1746 C   0  0  0  1  0  0  0  0  0  0  0  0
    3.6551    4.0375   -4.8486 C   0  0  0  1  0  0  0  0  0  0  0  0
    2.9895    3.4644   -3.5953 C   0  0  0  1  0  0  0  0  0  0  0  0
    6.1322    3.8402   -4.9892 N   0  0  0  1  0  0  0  0  0  0  0  0
    0.9317   -2.0526   -1.6523 H   0  0  0  1  0  0  0  0  0  0  0  0
    0.8529    0.2620   -6.5153 H   0  0  0  1  0  0  0  0  0  0  0  0
   -2.0063   -2.0275   -2.6493 H   0  0  0  1  0  0  0  0  0  0  0  0
   -3.4476   -3.9087   -2.1295 H   0  0  0  1  0  0  0  0  0  0  0  0
   -1.3507   -6.2760   -4.8914 H   0  0  0  1  0  0  0  0  0  0  0  0
    0.0883   -4.3981   -5.4104 H   0  0  0  1  0  0  0  0  0  0  0  0
   -5.0734   -5.5386   -2.8124 H   0  0  0  1  0  0  0  0  0  0  0  0
   -4.0554   -5.8701   -1.4317 H   0  0  0  1  0  0  0  0  0  0  0  0
   -4.8355   -7.1850   -2.2784 H   0  0  0  1  0  0  0  0  0  0  0  0
    3.6127    1.4593   -1.1974 H   0  0  0  1  0  0  0  0  0  0  0  0
    4.7195    3.0946   -2.3516 H   0  0  0  1  0  0  0  0  0  0  0  0
    4.1446    1.1563   -4.6015 H   0  0  0  1  0  0  0  0  0  0  0  0
    5.6989    1.5837   -3.9266 H   0  0  0  1  0  0  0  0  0  0  0  0
    4.7681    2.7598   -6.1813 H   0  0  0  1  0  0  0  0  0  0  0  0
    2.9609    4.0498   -5.6628 H   0  0  0  1  0  0  0  0  0  0  0  0
    4.0027    5.0318   -4.6606 H   0  0  0  1  0  0  0  0  0  0  0  0
    2.7253    4.2513   -2.9202 H   0  0  0  1  0  0  0  0  0  0  0  0
    2.1129    2.9102   -3.8585 H   0  0  0  1  0  0  0  0  0  0  0  0
    6.8690    3.1942   -4.9736 H   0  0  0  1  0  0  0  0  0  0  0  0
    6.1121    4.3331   -4.1424 H   0  0  0  1  0  0  0  0  0  0  0  0
  1  2  4  0  0  0  0
  1  6  4  0  0  0  0
  2  3  4  0  0  0  0
  2 18  1  0  0  0  0
  3  4  4  0  0  0  0
  4  5  4  0  0  0  0
  4  7  4  0  0  0  0
  5  6  4  0  0  0  0
  5  9  4  0  0  0  0
  6 25  1  0  0  0  0
  7  8  4  0  0  0  0
  7 26  1  0  0  0  0
  8  9  4  0  0  0  0
  9 10  1  0  0  0  0
 10 11  4  0  0  0  0
 10 15  4  0  0  0  0
 11 12  4  0  0  0  0
 11 27  1  0  0  0  0
 12 13  4  0  0  0  0
 12 28  1  0  0  0  0
 13 14  4  0  0  0  0
 13 16  1  0  0  0  0
 14 15  4  0  0  0  0
 14 29  1  0  0  0  0
 15 30  1  0  0  0  0
 16 17  1  0  0  0  0
 17 31  1  0  0  0  0
 17 32  1  0  0  0  0
 17 33  1  0  0  0  0
 18 19  1  0  0  0  0
 18 34  1  0  0  0  0
 19 20  1  0  0  0  0
 19 23  1  0  0  0  0
 19 35  1  0  0  0  0
 20 21  1  0  0  0  0
 20 36  1  0  0  0  0
 20 37  1  0  0  0  0
 21 22  1  0  0  0  0
 21 24  1  0  0  0  0
 21 38  1  0  0  0  0
 22 23  1  0  0  0  0
 22 39  1  0  0  0  0
 22 40  1  0  0  0  0
 23 41  1  0  0  0  0
 23 42  1  0  0  0  0
 24 43  1  0  0  0  0
 24 44  1  0  0  0  0
M  END
> <ConfClashScore>
0 

> <ConfOneFourInteractionScore>
-0.980204 

> <ConfScore>
0.00226638 

> <ConfScorePBest>
0.00251365 

> <ConfTolerance>
0.236863 

$$$$
c13.sdf
 OpenBabel04162418043D

 44 47  0  0  0  0  0  0  0  0999 V2000
    2.1080   -0.3774   -1.8532 N   0  0  0  1  0  0  0  0  0  0  0  0
    2.5364    0.5907   -2.6455 C   0  0  0  1  0  0  0  0  0  0  0  0
    2.1526    0.6997   -3.8968 N   0  0  0  1  0  0  0  0  0  0  0  0
    1.2986   -0.1837   -4.4201 C   0  0  0  1  0  0  0  0  0  0  0  0
    0.8205   -1.2304   -3.6033 C   0  0  0  1  0  0  0  0  0  0  0  0
    1.2616   -1.2960   -2.2849 C   0  0  0  1  0  0  0  0  0  0  0  0
    0.7019   -0.3512   -5.6890 C   0  0  0  1  0  0  0  0  0  0  0  0
   -0.0689   -1.4010   -5.6537 N   0  0  0  1  0  0  0  0  0  0  0  0
   -0.0256   -1.9781   -4.3778 N   0  0  0  1  0  0  0  0  0  0  0  0
   -0.7943   -3.1326   -4.1265 C   0  0  0  1  0  0  0  0  0  0  0  0
   -1.6120   -3.2508   -3.0186 C   0  0  0  1  0  0  0  0  0  0  0  0
   -2.3508   -4.4073   -2.8230 C   0  0  0  1  0  0  0  0  0  0  0  0
   -2.2657   -5.4442   -3.7329 C   0  0  0  1  0  0  0  0  0  0  0  0
   -1.4454   -5.3254   -4.8440 C   0  0  0  1  0  0  0  0  0  0  0  0
   -0.7087   -4.1725   -5.0392 C   0  0  0  1  0  0  0  0  0  0  0  0
   -3.0275   -6.5231   -3.4343 O   0  0  0  1  0  0  0  0  0  0  0  0
   -2.8175   -7.7107   -4.2141 C   0  0  0  1  0  0  0  0  0  0  0  0
    3.4058    1.5381   -2.2096 N   0  0  0  1  0  0  0  0  0  0  0  0
    3.9695    1.5025   -0.8563 C   0  0  0  1  0  0  0  0  0  0  0  0
    4.4671    0.0914   -0.5189 C   0  0  0  1  0  0  0  0  0  0  0  0
    5.9324    0.2352   -0.1007 C   0  0  0  1  0  0  0  0  0  0  0  0
    6.1183    1.7133    0.2503 C   0  0  0  1  0  0  0  0  0  0  0  0
    5.2079    2.4011   -0.7671 C   0  0  0  1  0  0  0  0  0  0  0  0
    6.2195   -0.6163    1.0783 N   0  0  0  1  0  0  0  0  0  0  0  0
    0.9319   -2.0527   -1.6523 H   0  0  0  1  0  0  0  0  0  0  0  0
    0.8528    0.2621   -6.5151 H   0  0  0  1  0  0  0  0  0  0  0  0
   -1.6730   -2.4722   -2.3319 H   0  0  0  1  0  0  0  0  0  0  0  0
   -2.9693   -4.4947   -1.9915 H   0  0  0  1  0  0  0  0  0  0  0  0
   -1.3843   -6.1040   -5.5309 H   0  0  0  1  0  0  0  0  0  0  0  0
   -0.0903   -4.0850   -5.8708 H   0  0  0  1  0  0  0  0  0  0  0  0
   -2.9803   -7.4921   -5.2488 H   0  0  0  1  0  0  0  0  0  0  0  0
   -3.5019   -8.4702   -3.8983 H   0  0  0  1  0  0  0  0  0  0  0  0
   -1.8138   -8.0547   -4.0762 H   0  0  0  1  0  0  0  0  0  0  0  0
    3.6633    2.2644   -2.8151 H   0  0  0  1  0  0  0  0  0  0  0  0
    3.2275    1.8164   -0.1520 H   0  0  0  1  0  0  0  0  0  0  0  0
    4.3883   -0.5431   -1.3767 H   0  0  0  1  0  0  0  0  0  0  0  0
    3.8925   -0.3208    0.2842 H   0  0  0  1  0  0  0  0  0  0  0  0
    6.5793   -0.0410   -0.9070 H   0  0  0  1  0  0  0  0  0  0  0  0
    5.8038    1.9169    1.2527 H   0  0  0  1  0  0  0  0  0  0  0  0
    7.1371    2.0166    0.1272 H   0  0  0  1  0  0  0  0  0  0  0  0
    4.9391    3.3805   -0.4306 H   0  0  0  1  0  0  0  0  0  0  0  0
    5.6919    2.4708   -1.7189 H   0  0  0  1  0  0  0  0  0  0  0  0
    7.1533   -0.4950    1.3497 H   0  0  0  1  0  0  0  0  0  0  0  0
    6.0662   -1.5563    0.8472 H   0  0  0  1  0  0  0  0  0  0  0  0
  1  2  4  0  0  0  0
  1  6  4  0  0  0  0
  2  3  4  0  0  0  0
  2 18  1  0  0  0  0
  3  4  4  0  0  0  0
  4  5  4  0  0  0  0
  4  7  4  0  0  0  0
  5  6  4  0  0  0  0
  5  9  4  0  0  0  0
  6 25  1  0  0  0  0
  7  8  4  0  0  0  0
  7 26  1  0  0  0  0
  8  9  4  0  0  0  0
  9 10  1  0  0  0  0
 10 11  4  0  0  0  0
 10 15  4  0  0  0  0
 11 12  4  0  0  0  0
 11 27  1  0  0  0  0
 12 13  4  0  0  0  0
 12 28  1  0  0  0  0
 13 14  4  0  0  0  0
 13 16  1  0  0  0  0
 14 15  4  0  0  0  0
 14 29  1  0  0  0  0
 15 30  1  0  0  0  0
 16 17  1  0  0  0  0
 17 31  1  0  0  0  0
 17 32  1  0  0  0  0
 17 33  1  0  0  0  0
 18 19  1  0  0  0  0
 18 34  1  0  0  0  0
 19 20  1  0  0  0  0
 19 23  1  0  0  0  0
 19 35  1  0  0  0  0
 20 21  1  0  0  0  0
 20 36  1  0  0  0  0
 20 37  1  0  0  0  0
 21 22  1  0  0  0  0
 21 24  1  0  0  0  0
 21 38  1  0  0  0  0
 22 23  1  0  0  0  0
 22 39  1  0  0  0  0
 22 40  1  0  0  0  0
 23 41  1  0  0  0  0
 23 42  1  0  0  0  0
 24 43  1  0  0  0  0
 24 44  1  0  0  0  0
M  END
> <ConfClashScore>
0 

> <ConfOneFourInteractionScore>
-0.985399 

> <ConfScore>
0.00350631 

> <ConfScorePBest>
0.00250032 

> <ConfTolerance>
0.336127 

$$$$
c13.sdf
 OpenBabel04162418043D

 44 47  0  0  0  0  0  0  0  0999 V2000
    2.1079   -0.3773   -1.8532 N   0  0  0  1  0  0  0  0  0  0  0  0
    2.5363    0.5907   -2.6455 C   0  0  0  1  0  0  0  0  0  0  0  0
    2.1526    0.6996   -3.8968 N   0  0  0  1  0  0  0  0  0  0  0  0
    1.2985   -0.1838   -4.4201 C   0  0  0  1  0  0  0  0  0  0  0  0
    0.8204   -1.2305   -3.6033 C   0  0  0  1  0  0  0  0  0  0  0  0
    1.2615   -1.2960   -2.2849 C   0  0  0  1  0  0  0  0  0  0  0  0
    0.7019   -0.3513   -5.6890 C   0  0  0  1  0  0  0  0  0  0  0  0
   -0.0689   -1.4011   -5.6537 N   0  0  0  1  0  0  0  0  0  0  0  0
   -0.0256   -1.9781   -4.3778 N   0  0  0  1  0  0  0  0  0  0  0  0
   -0.7806   -3.1369   -4.0811 C   0  0  0  1  0  0  0  0  0  0  0  0
   -2.0594   -3.2764   -4.5863 C   0  0  0  1  0  0  0  0  0  0  0  0
   -2.7972   -4.4145   -4.2999 C   0  0  0  1  0  0  0  0  0  0  0  0
   -2.2562   -5.4071   -3.5049 C   0  0  0  1  0  0  0  0  0  0  0  0
   -0.9734   -5.2669   -2.9982 C   0  0  0  1  0  0  0  0  0  0  0  0
   -0.2377   -4.1323   -3.2837 C   0  0  0  1  0  0  0  0  0  0  0  0
   -3.0709   -6.4672   -3.2899 O   0  0  0  1  0  0  0  0  0  0  0  0
   -2.5628   -7.5293   -2.4675 C   0  0  0  1  0  0  0  0  0  0  0  0
    3.4042    1.4827   -2.1027 N   0  0  0  1  0  0  0  0  0  0  0  0
    3.9981    2.5966   -2.8424 C   0  0  0  1  0  0  0  0  0  0  0  0
    4.7768    2.1041   -4.0511 C   0  0  0  1  0  0  0  0  0  0  0  0
    4.8451    3.3175   -4.9844 C   0  0  0  1  0  0  0  0  0  0  0  0
    3.6516    4.2095   -4.6173 C   0  0  0  1  0  0  0  0  0  0  0  0
    2.9203    3.4705   -3.4933 C   0  0  0  1  0  0  0  0  0  0  0  0
    6.1277    4.0579   -4.7780 N   0  0  0  1  0  0  0  0  0  0  0  0
    0.9317   -2.0526   -1.6523 H   0  0  0  1  0  0  0  0  0  0  0  0
    0.8529    0.2620   -6.5152 H   0  0  0  1  0  0  0  0  0  0  0  0
   -2.4681   -2.5278   -5.1813 H   0  0  0  1  0  0  0  0  0  0  0  0
   -3.7580   -4.5214   -4.6834 H   0  0  0  1  0  0  0  0  0  0  0  0
   -0.5647   -6.0157   -2.4032 H   0  0  0  1  0  0  0  0  0  0  0  0
    0.7231   -4.0254   -2.9002 H   0  0  0  1  0  0  0  0  0  0  0  0
   -3.3670   -8.1732   -2.1784 H   0  0  0  1  0  0  0  0  0  0  0  0
   -2.1056   -7.1154   -1.5931 H   0  0  0  1  0  0  0  0  0  0  0  0
   -1.8372   -8.0905   -3.0182 H   0  0  0  1  0  0  0  0  0  0  0  0
    3.6472    1.3740   -1.1595 H   0  0  0  1  0  0  0  0  0  0  0  0
    4.6197    3.1698   -2.1868 H   0  0  0  1  0  0  0  0  0  0  0  0
    4.2662    1.2915   -4.5243 H   0  0  0  1  0  0  0  0  0  0  0  0
    5.7593    1.7908   -3.7658 H   0  0  0  1  0  0  0  0  0  0  0  0
    4.7736    3.0044   -6.0051 H   0  0  0  1  0  0  0  0  0  0  0  0
    3.0070    4.3380   -5.4617 H   0  0  0  1  0  0  0  0  0  0  0  0
    3.9901    5.1661   -4.2776 H   0  0  0  1  0  0  0  0  0  0  0  0
    2.1316    2.8654   -3.8894 H   0  0  0  1  0  0  0  0  0  0  0  0
    2.5172    4.1637   -2.7848 H   0  0  0  1  0  0  0  0  0  0  0  0
    6.1659    4.8228   -5.3895 H   0  0  0  1  0  0  0  0  0  0  0  0
    6.8827    3.4591   -4.9567 H   0  0  0  1  0  0  0  0  0  0  0  0
  1  2  4  0  0  0  0
  1  6  4  0  0  0  0
  2  3  4  0  0  0  0
  2 18  1  0  0  0  0
  3  4  4  0  0  0  0
  4  5  4  0  0  0  0
  4  7  4  0  0  0  0
  5  6  4  0  0  0  0
  5  9  4  0  0  0  0
  6 25  1  0  0  0  0
  7  8  4  0  0  0  0
  7 26  1  0  0  0  0
  8  9  4  0  0  0  0
  9 10  1  0  0  0  0
 10 11  4  0  0  0  0
 10 15  4  0  0  0  0
 11 12  4  0  0  0  0
 11 27  1  0  0  0  0
 12 13  4  0  0  0  0
 12 28  1  0  0  0  0
 13 14  4  0  0  0  0
 13 16  1  0  0  0  0
 14 15  4  0  0  0  0
 14 29  1  0  0  0  0
 15 30  1  0  0  0  0
 16 17  1  0  0  0  0
 17 31  1  0  0  0  0
 17 32  1  0  0  0  0
 17 33  1  0  0  0  0
 18 19  1  0  0  0  0
 18 34  1  0  0  0  0
 19 20  1  0  0  0  0
 19 23  1  0  0  0  0
 19 35  1  0  0  0  0
 20 21  1  0  0  0  0
 20 36  1  0  0  0  0
 20 37  1  0  0  0  0
 21 22  1  0  0  0  0
 21 24  1  0  0  0  0
 21 38  1  0  0  0  0
 22 23  1  0  0  0  0
 22 39  1  0  0  0  0
 22 40  1  0  0  0  0
 23 41  1  0  0  0  0
 23 42  1  0  0  0  0
 24 43  1  0  0  0  0
 24 44  1  0  0  0  0
M  END
> <ConfClashScore>
0 

> <ConfOneFourInteractionScore>
-0.980204 

> <ConfScore>
0.00398258 

> <ConfScorePBest>
0.00248699 

> <ConfTolerance>
0.203575 

$$$$
c13.sdf
 OpenBabel04162418043D

 44 47  0  0  0  0  0  0  0  0999 V2000
    2.1079   -0.3773   -1.8532 N   0  0  0  1  0  0  0  0  0  0  0  0
    2.5363    0.5907   -2.6455 C   0  0  0  1  0  0  0  0  0  0  0  0
    2.1525    0.6996   -3.8968 N   0  0  0  1  0  0  0  0  0  0  0  0
    1.2986   -0.1837   -4.4201 C   0  0  0  1  0  0  0  0  0  0  0  0
    0.8204   -1.2305   -3.6033 C   0  0  0  1  0  0  0  0  0  0  0  0
    1.2615   -1.2960   -2.2849 C   0  0  0  1  0  0  0  0  0  0  0  0
    0.7019   -0.3512   -5.6889 C   0  0  0  1  0  0  0  0  0  0  0  0
   -0.0690   -1.4010   -5.6538 N   0  0  0  1  0  0  0  0  0  0  0  0
   -0.0256   -1.9781   -4.3778 N   0  0  0  1  0  0  0  0  0  0  0  0
   -0.8610   -3.0770   -4.0690 C   0  0  0  1  0  0  0  0  0  0  0  0
   -0.4314   -4.0427   -3.1784 C   0  0  0  1  0  0  0  0  0  0  0  0
   -1.2522   -5.1168   -2.8719 C   0  0  0  1  0  0  0  0  0  0  0  0
   -2.4980   -5.2249   -3.4607 C   0  0  0  1  0  0  0  0  0  0  0  0
   -2.9286   -4.2563   -4.3538 C   0  0  0  1  0  0  0  0  0  0  0  0
   -2.1104   -3.1853   -4.6597 C   0  0  0  1  0  0  0  0  0  0  0  0
   -3.3452   -6.2508   -3.2083 O   0  0  0  1  0  0  0  0  0  0  0  0
   -4.4667   -6.4128   -4.0985 C   0  0  0  1  0  0  0  0  0  0  0  0
    3.3977    1.4988   -2.1526 N   0  0  0  1  0  0  0  0  0  0  0  0
    3.7735    1.5863   -0.7348 C   0  0  0  1  0  0  0  0  0  0  0  0
    2.5393    1.6989    0.1603 C   0  0  0  1  0  0  0  0  0  0  0  0
    3.0103    1.2255    1.5398 C   0  0  0  1  0  0  0  0  0  0  0  0
    4.1504    0.2376    1.2621 C   0  0  0  1  0  0  0  0  0  0  0  0
    4.4057    0.2808   -0.2463 C   0  0  0  1  0  0  0  0  0  0  0  0
    3.5049    2.3815    2.3490 N   0  0  0  1  0  0  0  0  0  0  0  0
    0.9317   -2.0527   -1.6522 H   0  0  0  1  0  0  0  0  0  0  0  0
    0.8528    0.2621   -6.5151 H   0  0  0  1  0  0  0  0  0  0  0  0
    0.5076   -3.9634   -2.7385 H   0  0  0  1  0  0  0  0  0  0  0  0
   -0.9306   -5.8413   -2.1987 H   0  0  0  1  0  0  0  0  0  0  0  0
   -3.8676   -4.3355   -4.7939 H   0  0  0  1  0  0  0  0  0  0  0  0
   -2.4318   -2.4607   -5.3329 H   0  0  0  1  0  0  0  0  0  0  0  0
   -5.0748   -5.5329   -4.0708 H   0  0  0  1  0  0  0  0  0  0  0  0
   -5.0472   -7.2572   -3.7904 H   0  0  0  1  0  0  0  0  0  0  0  0
   -4.1107   -6.5688   -5.0955 H   0  0  0  1  0  0  0  0  0  0  0  0
    3.7982    2.1401   -2.7760 H   0  0  0  1  0  0  0  0  0  0  0  0
    4.4345    2.4153   -0.5909 H   0  0  0  1  0  0  0  0  0  0  0  0
    1.7515    1.0730   -0.2039 H   0  0  0  1  0  0  0  0  0  0  0  0
    2.1984    2.7121    0.2059 H   0  0  0  1  0  0  0  0  0  0  0  0
    2.2124    0.7396    2.0616 H   0  0  0  1  0  0  0  0  0  0  0  0
    3.8647   -0.7495    1.5604 H   0  0  0  1  0  0  0  0  0  0  0  0
    5.0311    0.5307    1.7944 H   0  0  0  1  0  0  0  0  0  0  0  0
    5.4567    0.2770   -0.4471 H   0  0  0  1  0  0  0  0  0  0  0  0
    3.9473   -0.5584   -0.7265 H   0  0  0  1  0  0  0  0  0  0  0  0
    4.2852    2.7787    1.9090 H   0  0  0  1  0  0  0  0  0  0  0  0
    3.7578    2.0697    3.2430 H   0  0  0  1  0  0  0  0  0  0  0  0
  1  2  4  0  0  0  0
  1  6  4  0  0  0  0
  2  3  4  0  0  0  0
  2 18  1  0  0  0  0
  3  4  4  0  0  0  0
  4  5  4  0  0  0  0
  4  7  4  0  0  0  0
  5  6  4  0  0  0  0
  5  9  4  0  0  0  0
  6 25  1  0  0  0  0
  7  8  4  0  0  0  0
  7 26  1  0  0  0  0
  8  9  4  0  0  0  0
  9 10  1  0  0  0  0
 10 11  4  0  0  0  0
 10 15  4  0  0  0  0
 11 12  4  0  0  0  0
 11 27  1  0  0  0  0
 12 13  4  0  0  0  0
 12 28  1  0  0  0  0
 13 14  4  0  0  0  0
 13 16  1  0  0  0  0
 14 15  4  0  0  0  0
 14 29  1  0  0  0  0
 15 30  1  0  0  0  0
 16 17  1  0  0  0  0
 17 31  1  0  0  0  0
 17 32  1  0  0  0  0
 17 33  1  0  0  0  0
 18 19  1  0  0  0  0
 18 34  1  0  0  0  0
 19 20  1  0  0  0  0
 19 23  1  0  0  0  0
 19 35  1  0  0  0  0
 20 21  1  0  0  0  0
 20 36  1  0  0  0  0
 20 37  1  0  0  0  0
 21 22  1  0  0  0  0
 21 24  1  0  0  0  0
 21 38  1  0  0  0  0
 22 23  1  0  0  0  0
 22 39  1  0  0  0  0
 22 40  1  0  0  0  0
 23 41  1  0  0  0  0
 23 42  1  0  0  0  0
 24 43  1  0  0  0  0
 24 44  1  0  0  0  0
M  END
> <ConfClashScore>
0 

> <ConfOneFourInteractionScore>
-0.980204 

> <ConfScore>
0.00433317 

> <ConfScorePBest>
0.00247367 

> <ConfTolerance>
0.210666 

$$$$
c13.sdf
 OpenBabel04162418043D

 44 47  0  0  0  0  0  0  0  0999 V2000
    2.1081   -0.3774   -1.8532 N   0  0  0  1  0  0  0  0  0  0  0  0
    2.5363    0.5907   -2.6455 C   0  0  0  1  0  0  0  0  0  0  0  0
    2.1525    0.6997   -3.8968 N   0  0  0  1  0  0  0  0  0  0  0  0
    1.2985   -0.1838   -4.4201 C   0  0  0  1  0  0  0  0  0  0  0  0
    0.8205   -1.2305   -3.6033 C   0  0  0  1  0  0  0  0  0  0  0  0
    1.2617   -1.2960   -2.2850 C   0  0  0  1  0  0  0  0  0  0  0  0
    0.7018   -0.3511   -5.6889 C   0  0  0  1  0  0  0  0  0  0  0  0
   -0.0690   -1.4010   -5.6537 N   0  0  0  1  0  0  0  0  0  0  0  0
   -0.0256   -1.9781   -4.3778 N   0  0  0  1  0  0  0  0  0  0  0  0
   -0.7856   -3.1448   -4.0791 C   0  0  0  1  0  0  0  0  0  0  0  0
   -1.9515   -3.4064   -4.7737 C   0  0  0  1  0  0  0  0  0  0  0  0
   -2.6884   -4.5449   -4.4867 C   0  0  0  1  0  0  0  0  0  0  0  0
   -2.2603   -5.4155   -3.5023 C   0  0  0  1  0  0  0  0  0  0  0  0
   -1.0909   -5.1529   -2.8057 C   0  0  0  1  0  0  0  0  0  0  0  0
   -0.3560   -4.0178   -3.0918 C   0  0  0  1  0  0  0  0  0  0  0  0
   -2.9359   -6.5410   -3.1701 O   0  0  0  1  0  0  0  0  0  0  0  0
   -2.3181   -7.4201   -2.2171 C   0  0  0  1  0  0  0  0  0  0  0  0
    3.4009    1.5023   -2.1508 N   0  0  0  1  0  0  0  0  0  0  0  0
    3.7831    1.5828   -0.7402 C   0  0  0  1  0  0  0  0  0  0  0  0
    4.2219    0.2092   -0.2253 C   0  0  0  1  0  0  0  0  0  0  0  0
    5.3495    0.5124    0.7673 C   0  0  0  1  0  0  0  0  0  0  0  0
    6.1027    1.6257    0.0581 C   0  0  0  1  0  0  0  0  0  0  0  0
    5.0056    2.4940   -0.5669 C   0  0  0  1  0  0  0  0  0  0  0  0
    4.8123    0.9705    2.0680 N   0  0  0  1  0  0  0  0  0  0  0  0
    0.9318   -2.0527   -1.6523 H   0  0  0  1  0  0  0  0  0  0  0  0
    0.8528    0.2622   -6.5151 H   0  0  0  1  0  0  0  0  0  0  0  0
   -2.2759   -2.7493   -5.5117 H   0  0  0  1  0  0  0  0  0  0  0  0
   -3.5636   -4.7439   -5.0121 H   0  0  0  1  0  0  0  0  0  0  0  0
   -0.7665   -5.8100   -2.0677 H   0  0  0  1  0  0  0  0  0  0  0  0
    0.5192   -3.8187   -2.5664 H   0  0  0  1  0  0  0  0  0  0  0  0
   -1.9396   -6.8476   -1.3962 H   0  0  0  1  0  0  0  0  0  0  0  0
   -1.5128   -7.9454   -2.6866 H   0  0  0  1  0  0  0  0  0  0  0  0
   -3.0416   -8.1222   -1.8585 H   0  0  0  1  0  0  0  0  0  0  0  0
    3.7959    2.1482   -2.7730 H   0  0  0  1  0  0  0  0  0  0  0  0
    2.9580    1.9510   -0.1670 H   0  0  0  1  0  0  0  0  0  0  0  0
    3.4106   -0.2876    0.2647 H   0  0  0  1  0  0  0  0  0  0  0  0
    4.5798   -0.3992   -1.0294 H   0  0  0  1  0  0  0  0  0  0  0  0
    5.9736   -0.3431    0.9200 H   0  0  0  1  0  0  0  0  0  0  0  0
    6.7448    1.2254   -0.6985 H   0  0  0  1  0  0  0  0  0  0  0  0
    6.6829    2.1934    0.7552 H   0  0  0  1  0  0  0  0  0  0  0  0
    4.7684    3.3133    0.0793 H   0  0  0  1  0  0  0  0  0  0  0  0
    5.3257    2.8692   -1.5165 H   0  0  0  1  0  0  0  0  0  0  0  0
    4.2063    1.7270    1.9235 H   0  0  0  1  0  0  0  0  0  0  0  0
    5.5522    1.2509    2.6463 H   0  0  0  1  0  0  0  0  0  0  0  0
  1  2  4  0  0  0  0
  1  6  4  0  0  0  0
  2  3  4  0  0  0  0
  2 18  1  0  0  0  0
  3  4  4  0  0  0  0
  4  5  4  0  0  0  0
  4  7  4  0  0  0  0
  5  6  4  0  0  0  0
  5  9  4  0  0  0  0
  6 25  1  0  0  0  0
  7  8  4  0  0  0  0
  7 26  1  0  0  0  0
  8  9  4  0  0  0  0
  9 10  1  0  0  0  0
 10 11  4  0  0  0  0
 10 15  4  0  0  0  0
 11 12  4  0  0  0  0
 11 27  1  0  0  0  0
 12 13  4  0  0  0  0
 12 28  1  0  0  0  0
 13 14  4  0  0  0  0
 13 16  1  0  0  0  0
 14 15  4  0  0  0  0
 14 29  1  0  0  0  0
 15 30  1  0  0  0  0
 16 17  1  0  0  0  0
 17 31  1  0  0  0  0
 17 32  1  0  0  0  0
 17 33  1  0  0  0  0
 18 19  1  0  0  0  0
 18 34  1  0  0  0  0
 19 20  1  0  0  0  0
 19 23  1  0  0  0  0
 19 35  1  0  0  0  0
 20 21  1  0  0  0  0
 20 36  1  0  0  0  0
 20 37  1  0  0  0  0
 21 22  1  0  0  0  0
 21 24  1  0  0  0  0
 21 38  1  0  0  0  0
 22 23  1  0  0  0  0
 22 39  1  0  0  0  0
 22 40  1  0  0  0  0
 23 41  1  0  0  0  0
 23 42  1  0  0  0  0
 24 43  1  0  0  0  0
 24 44  1  0  0  0  0
M  END
> <ConfClashScore>
0.000657631 

> <ConfOneFourInteractionScore>
-0.985399 

> <ConfScore>
0.00448459 

> <ConfScorePBest>
0.00246034 

> <ConfTolerance>
0.408958 

$$$$
c13.sdf
 OpenBabel04162418043D

 44 47  0  0  0  0  0  0  0  0999 V2000
    2.1080   -0.3774   -1.8532 N   0  0  0  1  0  0  0  0  0  0  0  0
    2.5363    0.5907   -2.6455 C   0  0  0  1  0  0  0  0  0  0  0  0
    2.1525    0.6997   -3.8968 N   0  0  0  1  0  0  0  0  0  0  0  0
    1.2986   -0.1837   -4.4201 C   0  0  0  1  0  0  0  0  0  0  0  0
    0.8204   -1.2304   -3.6034 C   0  0  0  1  0  0  0  0  0  0  0  0
    1.2616   -1.2960   -2.2849 C   0  0  0  1  0  0  0  0  0  0  0  0
    0.7019   -0.3512   -5.6890 C   0  0  0  1  0  0  0  0  0  0  0  0
   -0.0690   -1.4009   -5.6537 N   0  0  0  1  0  0  0  0  0  0  0  0
   -0.0256   -1.9781   -4.3778 N   0  0  0  1  0  0  0  0  0  0  0  0
   -0.7805   -3.1368   -4.0811 C   0  0  0  1  0  0  0  0  0  0  0  0
   -2.0400   -3.3546   -4.6072 C   0  0  0  1  0  0  0  0  0  0  0  0
   -2.7341   -4.5110   -4.2872 C   0  0  0  1  0  0  0  0  0  0  0  0
   -2.1692   -5.4436   -3.4380 C   0  0  0  1  0  0  0  0  0  0  0  0
   -0.9061   -5.2250   -2.9104 C   0  0  0  1  0  0  0  0  0  0  0  0
   -0.2138   -4.0721   -3.2293 C   0  0  0  1  0  0  0  0  0  0  0  0
   -2.7142   -6.6128   -3.0257 O   0  0  0  1  0  0  0  0  0  0  0  0
   -3.9875   -6.9756   -3.5824 C   0  0  0  1  0  0  0  0  0  0  0  0
    3.4099    1.5117   -2.1457 N   0  0  0  1  0  0  0  0  0  0  0  0
    3.9266    1.4172   -0.7917 C   0  0  0  1  0  0  0  0  0  0  0  0
    4.6882    2.7308   -0.4094 C   0  0  0  1  0  0  0  0  0  0  0  0
    3.5760    3.5992    0.2707 C   0  0  0  1  0  0  0  0  0  0  0  0
    2.7463    2.5697    1.0619 C   0  0  0  1  0  0  0  0  0  0  0  0
    2.7561    1.2800    0.2224 C   0  0  0  1  0  0  0  0  0  0  0  0
    4.1750    4.6109    1.1813 N   0  0  0  1  0  0  0  0  0  0  0  0
    0.9318   -2.0526   -1.6523 H   0  0  0  1  0  0  0  0  0  0  0  0
    0.8529    0.2621   -6.5152 H   0  0  0  1  0  0  0  0  0  0  0  0
   -2.4667   -2.6510   -5.2431 H   0  0  0  1  0  0  0  0  0  0  0  0
   -3.6801   -4.6767   -4.6863 H   0  0  0  1  0  0  0  0  0  0  0  0
   -0.4793   -5.9287   -2.2745 H   0  0  0  1  0  0  0  0  0  0  0  0
    0.7322   -3.9063   -2.8304 H   0  0  0  1  0  0  0  0  0  0  0  0
   -4.7679   -6.6729   -2.9158 H   0  0  0  1  0  0  0  0  0  0  0  0
   -4.0274   -8.0359   -3.7198 H   0  0  0  1  0  0  0  0  0  0  0  0
   -4.1158   -6.4880   -4.5261 H   0  0  0  1  0  0  0  0  0  0  0  0
    3.6961    2.2563   -2.7150 H   0  0  0  1  0  0  0  0  0  0  0  0
    4.5816    0.5745   -0.7174 H   0  0  0  1  0  0  0  0  0  0  0  0
    5.4872    2.5272    0.2725 H   0  0  0  1  0  0  0  0  0  0  0  0
    5.0767    3.2170   -1.2799 H   0  0  0  1  0  0  0  0  0  0  0  0
    2.9737    4.0919   -0.4638 H   0  0  0  1  0  0  0  0  0  0  0  0
    3.1892    2.3929    2.0197 H   0  0  0  1  0  0  0  0  0  0  0  0
    1.7439    2.9210    1.1913 H   0  0  0  1  0  0  0  0  0  0  0  0
    1.8277    1.1718   -0.2983 H   0  0  0  1  0  0  0  0  0  0  0  0
    2.9127    0.4303    0.8536 H   0  0  0  1  0  0  0  0  0  0  0  0
    3.4612    5.1047    1.6364 H   0  0  0  1  0  0  0  0  0  0  0  0
    4.7230    5.2347    0.6608 H   0  0  0  1  0  0  0  0  0  0  0  0
  1  2  4  0  0  0  0
  1  6  4  0  0  0  0
  2  3  4  0  0  0  0
  2 18  1  0  0  0  0
  3  4  4  0  0  0  0
  4  5  4  0  0  0  0
  4  7  4  0  0  0  0
  5  6  4  0  0  0  0
  5  9  4  0  0  0  0
  6 25  1  0  0  0  0
  7  8  4  0  0  0  0
  7 26  1  0  0  0  0
  8  9  4  0  0  0  0
  9 10  1  0  0  0  0
 10 11  4  0  0  0  0
 10 15  4  0  0  0  0
 11 12  4  0  0  0  0
 11 27  1  0  0  0  0
 12 13  4  0  0  0  0
 12 28  1  0  0  0  0
 13 14  4  0  0  0  0
 13 16  1  0  0  0  0
 14 15  4  0  0  0  0
 14 29  1  0  0  0  0
 15 30  1  0  0  0  0
 16 17  1  0  0  0  0
 17 31  1  0  0  0  0
 17 32  1  0  0  0  0
 17 33  1  0  0  0  0
 18 19  1  0  0  0  0
 18 34  1  0  0  0  0
 19 20  1  0  0  0  0
 19 23  1  0  0  0  0
 19 35  1  0  0  0  0
 20 21  1  0  0  0  0
 20 36  1  0  0  0  0
 20 37  1  0  0  0  0
 21 22  1  0  0  0  0
 21 24  1  0  0  0  0
 21 38  1  0  0  0  0
 22 23  1  0  0  0  0
 22 39  1  0  0  0  0
 22 40  1  0  0  0  0
 23 41  1  0  0  0  0
 23 42  1  0  0  0  0
 24 43  1  0  0  0  0
 24 44  1  0  0  0  0
M  END
> <ConfClashScore>
0 

> <ConfOneFourInteractionScore>
-0.985399 

> <ConfScore>
0.004674 

> <ConfScorePBest>
0.00244701 

> <ConfTolerance>
0.3916 

$$$$
c13.sdf
 OpenBabel04162418043D

 44 47  0  0  0  0  0  0  0  0999 V2000
    2.1079   -0.3773   -1.8532 N   0  0  0  1  0  0  0  0  0  0  0  0
    2.5363    0.5907   -2.6455 C   0  0  0  1  0  0  0  0  0  0  0  0
    2.1525    0.6996   -3.8968 N   0  0  0  1  0  0  0  0  0  0  0  0
    1.2985   -0.1838   -4.4201 C   0  0  0  1  0  0  0  0  0  0  0  0
    0.8204   -1.2304   -3.6033 C   0  0  0  1  0  0  0  0  0  0  0  0
    1.2615   -1.2960   -2.2849 C   0  0  0  1  0  0  0  0  0  0  0  0
    0.7019   -0.3512   -5.6890 C   0  0  0  1  0  0  0  0  0  0  0  0
   -0.0690   -1.4010   -5.6538 N   0  0  0  1  0  0  0  0  0  0  0  0
   -0.0256   -1.9780   -4.3778 N   0  0  0  1  0  0  0  0  0  0  0  0
   -0.7072   -3.1837   -4.1156 C   0  0  0  1  0  0  0  0  0  0  0  0
   -1.5098   -3.2342   -2.9916 C   0  0  0  1  0  0  0  0  0  0  0  0
   -2.2070   -4.3936   -2.6894 C   0  0  0  1  0  0  0  0  0  0  0  0
   -2.0954   -5.5007   -3.5093 C   0  0  0  1  0  0  0  0  0  0  0  0
   -1.2903   -5.4499   -4.6366 C   0  0  0  1  0  0  0  0  0  0  0  0
   -0.5951   -4.2940   -4.9380 C   0  0  0  1  0  0  0  0  0  0  0  0
   -2.7724   -6.6351   -3.2112 O   0  0  0  1  0  0  0  0  0  0  0  0
   -3.6262   -6.6055   -2.0568 C   0  0  0  1  0  0  0  0  0  0  0  0
    3.4098    1.5118   -2.1456 N   0  0  0  1  0  0  0  0  0  0  0  0
    3.9363    2.6026   -2.9726 C   0  0  0  1  0  0  0  0  0  0  0  0
    4.6665    2.0412   -4.1949 C   0  0  0  1  0  0  0  0  0  0  0  0
    4.2571    2.9155   -5.3869 C   0  0  0  1  0  0  0  0  0  0  0  0
    3.4185    4.0501   -4.7882 C   0  0  0  1  0  0  0  0  0  0  0  0
    2.7905    3.4509   -3.5297 C   0  0  0  1  0  0  0  0  0  0  0  0
    5.4653    3.4640   -6.0724 N   0  0  0  1  0  0  0  0  0  0  0  0
    0.9317   -2.0526   -1.6523 H   0  0  0  1  0  0  0  0  0  0  0  0
    0.8528    0.2620   -6.5152 H   0  0  0  1  0  0  0  0  0  0  0  0
   -1.5907   -2.4025   -2.3725 H   0  0  0  1  0  0  0  0  0  0  0  0
   -2.8141   -4.4303   -1.8458 H   0  0  0  1  0  0  0  0  0  0  0  0
   -1.2095   -6.2816   -5.2557 H   0  0  0  1  0  0  0  0  0  0  0  0
    0.0120   -4.2572   -5.7815 H   0  0  0  1  0  0  0  0  0  0  0  0
   -3.0756   -6.2416   -1.2146 H   0  0  0  1  0  0  0  0  0  0  0  0
   -3.9812   -7.5937   -1.8506 H   0  0  0  1  0  0  0  0  0  0  0  0
   -4.4580   -5.9593   -2.2451 H   0  0  0  1  0  0  0  0  0  0  0  0
    3.6928    1.4427   -1.2099 H   0  0  0  1  0  0  0  0  0  0  0  0
    4.5979    3.2069   -2.3877 H   0  0  0  1  0  0  0  0  0  0  0  0
    4.3759    1.0255   -4.3646 H   0  0  0  1  0  0  0  0  0  0  0  0
    5.7252    2.0900   -4.0474 H   0  0  0  1  0  0  0  0  0  0  0  0
    3.6768    2.3490   -6.0850 H   0  0  0  1  0  0  0  0  0  0  0  0
    2.6601    4.3612   -5.4760 H   0  0  0  1  0  0  0  0  0  0  0  0
    4.0387    4.8854   -4.5385 H   0  0  0  1  0  0  0  0  0  0  0  0
    1.9410    2.8463   -3.7698 H   0  0  0  1  0  0  0  0  0  0  0  0
    2.5014    4.2149   -2.8387 H   0  0  0  1  0  0  0  0  0  0  0  0
    5.9871    3.9983   -5.4378 H   0  0  0  1  0  0  0  0  0  0  0  0
    5.1865    4.0290   -6.8230 H   0  0  0  1  0  0  0  0  0  0  0  0
  1  2  4  0  0  0  0
  1  6  4  0  0  0  0
  2  3  4  0  0  0  0
  2 18  1  0  0  0  0
  3  4  4  0  0  0  0
  4  5  4  0  0  0  0
  4  7  4  0  0  0  0
  5  6  4  0  0  0  0
  5  9  4  0  0  0  0
  6 25  1  0  0  0  0
  7  8  4  0  0  0  0
  7 26  1  0  0  0  0
  8  9  4  0  0  0  0
  9 10  1  0  0  0  0
 10 11  4  0  0  0  0
 10 15  4  0  0  0  0
 11 12  4  0  0  0  0
 11 27  1  0  0  0  0
 12 13  4  0  0  0  0
 12 28  1  0  0  0  0
 13 14  4  0  0  0  0
 13 16  1  0  0  0  0
 14 15  4  0  0  0  0
 14 29  1  0  0  0  0
 15 30  1  0  0  0  0
 16 17  1  0  0  0  0
 17 31  1  0  0  0  0
 17 32  1  0  0  0  0
 17 33  1  0  0  0  0
 18 19  1  0  0  0  0
 18 34  1  0  0  0  0
 19 20  1  0  0  0  0
 19 23  1  0  0  0  0
 19 35  1  0  0  0  0
 20 21  1  0  0  0  0
 20 36  1  0  0  0  0
 20 37  1  0  0  0  0
 21 22  1  0  0  0  0
 21 24  1  0  0  0  0
 21 38  1  0  0  0  0
 22 23  1  0  0  0  0
 22 39  1  0  0  0  0
 22 40  1  0  0  0  0
 23 41  1  0  0  0  0
 23 42  1  0  0  0  0
 24 43  1  0  0  0  0
 24 44  1  0  0  0  0
M  END
> <ConfClashScore>
0 

> <ConfOneFourInteractionScore>
-0.980204 

> <ConfScore>
0.00526884 

> <ConfScorePBest>
0.00243368 

> <ConfTolerance>
0.315751 

$$$$
c13.sdf
 OpenBabel04162418043D

 44 47  0  0  0  0  0  0  0  0999 V2000
    2.1080   -0.3773   -1.8532 N   0  0  0  1  0  0  0  0  0  0  0  0
    2.5364    0.5908   -2.6454 C   0  0  0  1  0  0  0  0  0  0  0  0
    2.1526    0.6996   -3.8968 N   0  0  0  1  0  0  0  0  0  0  0  0
    1.2985   -0.1838   -4.4201 C   0  0  0  1  0  0  0  0  0  0  0  0
    0.8205   -1.2305   -3.6033 C   0  0  0  1  0  0  0  0  0  0  0  0
    1.2615   -1.2960   -2.2850 C   0  0  0  1  0  0  0  0  0  0  0  0
    0.7019   -0.3513   -5.6889 C   0  0  0  1  0  0  0  0  0  0  0  0
   -0.0690   -1.4011   -5.6537 N   0  0  0  1  0  0  0  0  0  0  0  0
   -0.0256   -1.9781   -4.3778 N   0  0  0  1  0  0  0  0  0  0  0  0
   -0.7805   -3.1369   -4.0811 C   0  0  0  1  0  0  0  0  0  0  0  0
   -1.6445   -3.1412   -3.0023 C   0  0  0  1  0  0  0  0  0  0  0  0
   -2.3883   -4.2750   -2.7148 C   0  0  0  1  0  0  0  0  0  0  0  0
   -2.2621   -5.4030   -3.5035 C   0  0  0  1  0  0  0  0  0  0  0  0
   -1.3955   -5.3984   -4.5855 C   0  0  0  1  0  0  0  0  0  0  0  0
   -0.6538   -4.2680   -4.8723 C   0  0  0  1  0  0  0  0  0  0  0  0
   -3.0553   -6.4763   -3.2744 O   0  0  0  1  0  0  0  0  0  0  0  0
   -3.9328   -6.4133   -2.1392 C   0  0  0  1  0  0  0  0  0  0  0  0
    3.3939    1.4950   -2.1549 N   0  0  0  1  0  0  0  0  0  0  0  0
    3.9365    1.5288   -0.8026 C   0  0  0  1  0  0  0  0  0  0  0  0
    2.8250    1.6670    0.2378 C   0  0  0  1  0  0  0  0  0  0  0  0
    3.4375    1.1381    1.5394 C   0  0  0  1  0  0  0  0  0  0  0  0
    4.4921    0.1128    1.1040 C   0  0  0  1  0  0  0  0  0  0  0  0
    4.5657    0.1861   -0.4230 C   0  0  0  1  0  0  0  0  0  0  0  0
    4.0816    2.2617    2.3151 N   0  0  0  1  0  0  0  0  0  0  0  0
    0.9318   -2.0526   -1.6522 H   0  0  0  1  0  0  0  0  0  0  0  0
    0.8528    0.2620   -6.5152 H   0  0  0  1  0  0  0  0  0  0  0  0
   -1.7365   -2.2939   -2.4064 H   0  0  0  1  0  0  0  0  0  0  0  0
   -3.0414   -4.2770   -1.9055 H   0  0  0  1  0  0  0  0  0  0  0  0
   -1.3034   -6.2457   -5.1815 H   0  0  0  1  0  0  0  0  0  0  0  0
   -0.0006   -4.2660   -5.6816 H   0  0  0  1  0  0  0  0  0  0  0  0
   -4.5405   -7.2934   -2.1082 H   0  0  0  1  0  0  0  0  0  0  0  0
   -4.5598   -5.5500   -2.2208 H   0  0  0  1  0  0  0  0  0  0  0  0
   -3.3519   -6.3495   -1.2428 H   0  0  0  1  0  0  0  0  0  0  0  0
    3.6854    2.2040   -2.7654 H   0  0  0  1  0  0  0  0  0  0  0  0
    4.6453    2.3264   -0.7219 H   0  0  0  1  0  0  0  0  0  0  0  0
    1.9727    1.0835   -0.0417 H   0  0  0  1  0  0  0  0  0  0  0  0
    2.5362    2.6915    0.3465 H   0  0  0  1  0  0  0  0  0  0  0  0
    2.6879    0.6710    2.1433 H   0  0  0  1  0  0  0  0  0  0  0  0
    5.4423    0.3557    1.5318 H   0  0  0  1  0  0  0  0  0  0  0  0
    4.2019   -0.8697    1.4131 H   0  0  0  1  0  0  0  0  0  0  0  0
    4.0171   -0.6206   -0.8622 H   0  0  0  1  0  0  0  0  0  0  0  0
    5.5838    0.1453   -0.7498 H   0  0  0  1  0  0  0  0  0  0  0  0
    4.7435    2.7120    1.7498 H   0  0  0  1  0  0  0  0  0  0  0  0
    4.5246    1.8977    3.1098 H   0  0  0  1  0  0  0  0  0  0  0  0
  1  2  4  0  0  0  0
  1  6  4  0  0  0  0
  2  3  4  0  0  0  0
  2 18  1  0  0  0  0
  3  4  4  0  0  0  0
  4  5  4  0  0  0  0
  4  7  4  0  0  0  0
  5  6  4  0  0  0  0
  5  9  4  0  0  0  0
  6 25  1  0  0  0  0
  7  8  4  0  0  0  0
  7 26  1  0  0  0  0
  8  9  4  0  0  0  0
  9 10  1  0  0  0  0
 10 11  4  0  0  0  0
 10 15  4  0  0  0  0
 11 12  4  0  0  0  0
 11 27  1  0  0  0  0
 12 13  4  0  0  0  0
 12 28  1  0  0  0  0
 13 14  4  0  0  0  0
 13 16  1  0  0  0  0
 14 15  4  0  0  0  0
 14 29  1  0  0  0  0
 15 30  1  0  0  0  0
 16 17  1  0  0  0  0
 17 31  1  0  0  0  0
 17 32  1  0  0  0  0
 17 33  1  0  0  0  0
 18 19  1  0  0  0  0
 18 34  1  0  0  0  0
 19 20  1  0  0  0  0
 19 23  1  0  0  0  0
 19 35  1  0  0  0  0
 20 21  1  0  0  0  0
 20 36  1  0  0  0  0
 20 37  1  0  0  0  0
 21 22  1  0  0  0  0
 21 24  1  0  0  0  0
 21 38  1  0  0  0  0
 22 23  1  0  0  0  0
 22 39  1  0  0  0  0
 22 40  1  0  0  0  0
 23 41  1  0  0  0  0
 23 42  1  0  0  0  0
 24 43  1  0  0  0  0
 24 44  1  0  0  0  0
M  END
> <ConfClashScore>
0 

> <ConfOneFourInteractionScore>
-0.980204 

> <ConfScore>
0.00526884 

> <ConfScorePBest>
0.00242035 

> <ConfTolerance>
0.276158 

$$$$
c13.sdf
 OpenBabel04162418043D

 44 47  0  0  0  0  0  0  0  0999 V2000
    2.1080   -0.3773   -1.8532 N   0  0  0  1  0  0  0  0  0  0  0  0
    2.5364    0.5907   -2.6455 C   0  0  0  1  0  0  0  0  0  0  0  0
    2.1526    0.6996   -3.8968 N   0  0  0  1  0  0  0  0  0  0  0  0
    1.2985   -0.1838   -4.4201 C   0  0  0  1  0  0  0  0  0  0  0  0
    0.8204   -1.2305   -3.6032 C   0  0  0  1  0  0  0  0  0  0  0  0
    1.2615   -1.2959   -2.2849 C   0  0  0  1  0  0  0  0  0  0  0  0
    0.7019   -0.3513   -5.6889 C   0  0  0  1  0  0  0  0  0  0  0  0
   -0.0689   -1.4010   -5.6537 N   0  0  0  1  0  0  0  0  0  0  0  0
   -0.0256   -1.9781   -4.3778 N   0  0  0  1  0  0  0  0  0  0  0  0
   -0.7862   -3.1454   -4.0789 C   0  0  0  1  0  0  0  0  0  0  0  0
   -2.1405   -3.0366   -3.8262 C   0  0  0  1  0  0  0  0  0  0  0  0
   -2.9031   -4.1778   -3.6319 C   0  0  0  1  0  0  0  0  0  0  0  0
   -2.3081   -5.4241   -3.6854 C   0  0  0  1  0  0  0  0  0  0  0  0
   -0.9495   -5.5331   -3.9389 C   0  0  0  1  0  0  0  0  0  0  0  0
   -0.1891   -4.3953   -4.1327 C   0  0  0  1  0  0  0  0  0  0  0  0
   -3.1507   -6.4632   -3.4751 O   0  0  0  1  0  0  0  0  0  0  0  0
   -2.5617   -7.7625   -3.3095 C   0  0  0  1  0  0  0  0  0  0  0  0
    3.4025    1.5222   -2.1867 N   0  0  0  1  0  0  0  0  0  0  0  0
    4.0019    2.5641   -3.0258 C   0  0  0  1  0  0  0  0  0  0  0  0
    2.8828    3.4244   -3.7037 C   0  0  0  1  0  0  0  0  0  0  0  0
    2.6853    4.6062   -2.6948 C   0  0  0  1  0  0  0  0  0  0  0  0
    4.1140    4.9008   -2.1984 C   0  0  0  1  0  0  0  0  0  0  0  0
    4.8371    3.5431   -2.1533 C   0  0  0  1  0  0  0  0  0  0  0  0
    2.1071    5.7882   -3.3723 N   0  0  0  1  0  0  0  0  0  0  0  0
    0.9318   -2.0526   -1.6522 H   0  0  0  1  0  0  0  0  0  0  0  0
    0.8529    0.2620   -6.5151 H   0  0  0  1  0  0  0  0  0  0  0  0
   -2.5876   -2.0986   -3.7819 H   0  0  0  1  0  0  0  0  0  0  0  0
   -3.9230   -4.0961   -3.4457 H   0  0  0  1  0  0  0  0  0  0  0  0
   -0.5024   -6.4710   -3.9831 H   0  0  0  1  0  0  0  0  0  0  0  0
    0.8309   -4.4769   -4.3188 H   0  0  0  1  0  0  0  0  0  0  0  0
   -2.0784   -8.0541   -4.2185 H   0  0  0  1  0  0  0  0  0  0  0  0
   -3.3256   -8.4719   -3.0686 H   0  0  0  1  0  0  0  0  0  0  0  0
   -1.8424   -7.7294   -2.5180 H   0  0  0  1  0  0  0  0  0  0  0  0
    3.6438    1.4995   -1.2372 H   0  0  0  1  0  0  0  0  0  0  0  0
    4.6222    2.1104   -3.7702 H   0  0  0  1  0  0  0  0  0  0  0  0
    1.9803    2.8608   -3.8167 H   0  0  0  1  0  0  0  0  0  0  0  0
    3.2011    3.7845   -4.6596 H   0  0  0  1  0  0  0  0  0  0  0  0
    2.0518    4.3140   -1.8836 H   0  0  0  1  0  0  0  0  0  0  0  0
    4.6123    5.5648   -2.8735 H   0  0  0  1  0  0  0  0  0  0  0  0
    4.0853    5.3389   -1.2226 H   0  0  0  1  0  0  0  0  0  0  0  0
    4.8894    3.1864   -1.1458 H   0  0  0  1  0  0  0  0  0  0  0  0
    5.8261    3.6387   -2.5500 H   0  0  0  1  0  0  0  0  0  0  0  0
    2.0216    6.5238   -2.7305 H   0  0  0  1  0  0  0  0  0  0  0  0
    1.2227    5.5605   -3.7276 H   0  0  0  1  0  0  0  0  0  0  0  0
  1  2  4  0  0  0  0
  1  6  4  0  0  0  0
  2  3  4  0  0  0  0
  2 18  1  0  0  0  0
  3  4  4  0  0  0  0
  4  5  4  0  0  0  0
  4  7  4  0  0  0  0
  5  6  4  0  0  0  0
  5  9  4  0  0  0  0
  6 25  1  0  0  0  0
  7  8  4  0  0  0  0
  7 26  1  0  0  0  0
  8  9  4  0  0  0  0
  9 10  1  0  0  0  0
 10 11  4  0  0  0  0
 10 15  4  0  0  0  0
 11 12  4  0  0  0  0
 11 27  1  0  0  0  0
 12 13  4  0  0  0  0
 12 28  1  0  0  0  0
 13 14  4  0  0  0  0
 13 16  1  0  0  0  0
 14 15  4  0  0  0  0
 14 29  1  0  0  0  0
 15 30  1  0  0  0  0
 16 17  1  0  0  0  0
 17 31  1  0  0  0  0
 17 32  1  0  0  0  0
 17 33  1  0  0  0  0
 18 19  1  0  0  0  0
 18 34  1  0  0  0  0
 19 20  1  0  0  0  0
 19 23  1  0  0  0  0
 19 35  1  0  0  0  0
 20 21  1  0  0  0  0
 20 36  1  0  0  0  0
 20 37  1  0  0  0  0
 21 22  1  0  0  0  0
 21 24  1  0  0  0  0
 21 38  1  0  0  0  0
 22 23  1  0  0  0  0
 22 39  1  0  0  0  0
 22 40  1  0  0  0  0
 23 41  1  0  0  0  0
 23 42  1  0  0  0  0
 24 43  1  0  0  0  0
 24 44  1  0  0  0  0
M  END
> <ConfClashScore>
0 

> <ConfOneFourInteractionScore>
-0.991168 

> <ConfScore>
0.00527672 

> <ConfScorePBest>
0.00240702 

> <ConfTolerance>
0.434476 

$$$$
c13.sdf
 OpenBabel04162418043D

 44 47  0  0  0  0  0  0  0  0999 V2000
    2.1080   -0.3774   -1.8532 N   0  0  0  1  0  0  0  0  0  0  0  0
    2.5364    0.5907   -2.6455 C   0  0  0  1  0  0  0  0  0  0  0  0
    2.1525    0.6996   -3.8968 N   0  0  0  1  0  0  0  0  0  0  0  0
    1.2986   -0.1837   -4.4201 C   0  0  0  1  0  0  0  0  0  0  0  0
    0.8204   -1.2305   -3.6033 C   0  0  0  1  0  0  0  0  0  0  0  0
    1.2616   -1.2961   -2.2850 C   0  0  0  1  0  0  0  0  0  0  0  0
    0.7018   -0.3513   -5.6890 C   0  0  0  1  0  0  0  0  0  0  0  0
   -0.0690   -1.4010   -5.6537 N   0  0  0  1  0  0  0  0  0  0  0  0
   -0.0256   -1.9781   -4.3778 N   0  0  0  1  0  0  0  0  0  0  0  0
   -0.7856   -3.1448   -4.0791 C   0  0  0  1  0  0  0  0  0  0  0  0
   -0.3722   -3.9941   -3.0702 C   0  0  0  1  0  0  0  0  0  0  0  0
   -1.1592   -5.0769   -2.7099 C   0  0  0  1  0  0  0  0  0  0  0  0
   -2.3546   -5.3104   -3.3633 C   0  0  0  1  0  0  0  0  0  0  0  0
   -2.7691   -4.4584   -4.3752 C   0  0  0  1  0  0  0  0  0  0  0  0
   -1.9845   -3.3787   -4.7345 C   0  0  0  1  0  0  0  0  0  0  0  0
   -3.1208   -6.3712   -3.0149 O   0  0  0  1  0  0  0  0  0  0  0  0
   -4.3688   -6.5346   -3.7065 C   0  0  0  1  0  0  0  0  0  0  0  0
    3.4218    1.5243   -2.1389 N   0  0  0  1  0  0  0  0  0  0  0  0
    3.7465    2.7216   -2.9192 C   0  0  0  1  0  0  0  0  0  0  0  0
    2.4842    3.3803   -3.4759 C   0  0  0  1  0  0  0  0  0  0  0  0
    2.8886    4.8325   -3.7527 C   0  0  0  1  0  0  0  0  0  0  0  0
    4.0064    5.1408   -2.7485 C   0  0  0  1  0  0  0  0  0  0  0  0
    4.3186    3.8270   -2.0282 C   0  0  0  1  0  0  0  0  0  0  0  0
    3.3818    4.9759   -5.1331 N   0  0  0  1  0  0  0  0  0  0  0  0
    0.9319   -2.0527   -1.6523 H   0  0  0  1  0  0  0  0  0  0  0  0
    0.8527    0.2621   -6.5152 H   0  0  0  1  0  0  0  0  0  0  0  0
    0.5292   -3.8208   -2.5812 H   0  0  0  1  0  0  0  0  0  0  0  0
   -0.8501   -5.7137   -1.9480 H   0  0  0  1  0  0  0  0  0  0  0  0
   -3.6705   -4.6317   -4.8641 H   0  0  0  1  0  0  0  0  0  0  0  0
   -2.2936   -2.7420   -5.4964 H   0  0  0  1  0  0  0  0  0  0  0  0
   -4.1835   -6.6590   -4.7530 H   0  0  0  1  0  0  0  0  0  0  0  0
   -4.9775   -5.6682   -3.5528 H   0  0  0  1  0  0  0  0  0  0  0  0
   -4.8751   -7.3983   -3.3290 H   0  0  0  1  0  0  0  0  0  0  0  0
    3.8315    1.3855   -1.2595 H   0  0  0  1  0  0  0  0  0  0  0  0
    4.4277    2.4632   -3.7029 H   0  0  0  1  0  0  0  0  0  0  0  0
    2.1742    2.8970   -4.3787 H   0  0  0  1  0  0  0  0  0  0  0  0
    1.6911    3.3404   -2.7588 H   0  0  0  1  0  0  0  0  0  0  0  0
    2.0570    5.4883   -3.6006 H   0  0  0  1  0  0  0  0  0  0  0  0
    3.6787    5.8784   -2.0461 H   0  0  0  1  0  0  0  0  0  0  0  0
    4.8756    5.4968   -3.2610 H   0  0  0  1  0  0  0  0  0  0  0  0
    3.8520    3.8091   -1.0655 H   0  0  0  1  0  0  0  0  0  0  0  0
    5.3757    3.7055   -1.9151 H   0  0  0  1  0  0  0  0  0  0  0  0
    2.6636    4.7538   -5.7618 H   0  0  0  1  0  0  0  0  0  0  0  0
    4.1383    4.3694   -5.2741 H   0  0  0  1  0  0  0  0  0  0  0  0
  1  2  4  0  0  0  0
  1  6  4  0  0  0  0
  2  3  4  0  0  0  0
  2 18  1  0  0  0  0
  3  4  4  0  0  0  0
  4  5  4  0  0  0  0
  4  7  4  0  0  0  0
  5  6  4  0  0  0  0
  5  9  4  0  0  0  0
  6 25  1  0  0  0  0
  7  8  4  0  0  0  0
  7 26  1  0  0  0  0
  8  9  4  0  0  0  0
  9 10  1  0  0  0  0
 10 11  4  0  0  0  0
 10 15  4  0  0  0  0
 11 12  4  0  0  0  0
 11 27  1  0  0  0  0
 12 13  4  0  0  0  0
 12 28  1  0  0  0  0
 13 14  4  0  0  0  0
 13 16  1  0  0  0  0
 14 15  4  0  0  0  0
 14 29  1  0  0  0  0
 15 30  1  0  0  0  0
 16 17  1  0  0  0  0
 17 31  1  0  0  0  0
 17 32  1  0  0  0  0
 17 33  1  0  0  0  0
 18 19  1  0  0  0  0
 18 34  1  0  0  0  0
 19 20  1  0  0  0  0
 19 23  1  0  0  0  0
 19 35  1  0  0  0  0
 20 21  1  0  0  0  0
 20 36  1  0  0  0  0
 20 37  1  0  0  0  0
 21 22  1  0  0  0  0
 21 24  1  0  0  0  0
 21 38  1  0  0  0  0
 22 23  1  0  0  0  0
 22 39  1  0  0  0  0
 22 40  1  0  0  0  0
 23 41  1  0  0  0  0
 23 42  1  0  0  0  0
 24 43  1  0  0  0  0
 24 44  1  0  0  0  0
M  END
> <ConfClashScore>
0 

> <ConfOneFourInteractionScore>
-0.985399 

> <ConfScore>
0.00551153 

> <ConfScorePBest>
0.0023937 

> <ConfTolerance>
0.503156 

$$$$
c13.sdf
 OpenBabel04162418043D

 44 47  0  0  0  0  0  0  0  0999 V2000
    2.1079   -0.3773   -1.8532 N   0  0  0  1  0  0  0  0  0  0  0  0
    2.5364    0.5907   -2.6455 C   0  0  0  1  0  0  0  0  0  0  0  0
    2.1526    0.6996   -3.8968 N   0  0  0  1  0  0  0  0  0  0  0  0
    1.2985   -0.1838   -4.4201 C   0  0  0  1  0  0  0  0  0  0  0  0
    0.8204   -1.2305   -3.6033 C   0  0  0  1  0  0  0  0  0  0  0  0
    1.2615   -1.2960   -2.2850 C   0  0  0  1  0  0  0  0  0  0  0  0
    0.7019   -0.3513   -5.6889 C   0  0  0  1  0  0  0  0  0  0  0  0
   -0.0689   -1.4010   -5.6538 N   0  0  0  1  0  0  0  0  0  0  0  0
   -0.0256   -1.9780   -4.3778 N   0  0  0  1  0  0  0  0  0  0  0  0
   -0.8076   -3.1784   -4.0704 C   0  0  0  1  0  0  0  0  0  0  0  0
   -1.5481   -3.7934   -5.0622 C   0  0  0  1  0  0  0  0  0  0  0  0
   -2.2837   -4.9320   -4.7727 C   0  0  0  1  0  0  0  0  0  0  0  0
   -2.2809   -5.4494   -3.4910 C   0  0  0  1  0  0  0  0  0  0  0  0
   -1.5382   -4.8325   -2.4964 C   0  0  0  1  0  0  0  0  0  0  0  0
   -0.8047   -3.6971   -2.7849 C   0  0  0  1  0  0  0  0  0  0  0  0
   -3.0020   -6.5561   -3.2077 O   0  0  0  1  0  0  0  0  0  0  0  0
   -2.7716   -7.2533   -1.9734 C   0  0  0  1  0  0  0  0  0  0  0  0
    3.3977    1.4989   -2.1527 N   0  0  0  1  0  0  0  0  0  0  0  0
    3.9794    1.4292   -0.8052 C   0  0  0  1  0  0  0  0  0  0  0  0
    4.5436    2.7830   -0.3738 C   0  0  0  1  0  0  0  0  0  0  0  0
    4.5856    2.7211    1.1570 C   0  0  0  1  0  0  0  0  0  0  0  0
    3.4597    1.7583    1.5550 C   0  0  0  1  0  0  0  0  0  0  0  0
    2.9019    1.1792    0.2527 C   0  0  0  1  0  0  0  0  0  0  0  0
    5.8843    2.2109    1.6155 N   0  0  0  1  0  0  0  0  0  0  0  0
    0.9318   -2.0526   -1.6522 H   0  0  0  1  0  0  0  0  0  0  0  0
    0.8528    0.2620   -6.5152 H   0  0  0  1  0  0  0  0  0  0  0  0
   -1.5534   -3.4019   -6.0257 H   0  0  0  1  0  0  0  0  0  0  0  0
   -2.8377   -5.3971   -5.5199 H   0  0  0  1  0  0  0  0  0  0  0  0
   -1.5329   -5.2240   -1.5329 H   0  0  0  1  0  0  0  0  0  0  0  0
   -0.2507   -3.2320   -2.0377 H   0  0  0  1  0  0  0  0  0  0  0  0
   -3.4241   -6.8676   -1.2183 H   0  0  0  1  0  0  0  0  0  0  0  0
   -1.7548   -7.1151   -1.6704 H   0  0  0  1  0  0  0  0  0  0  0  0
   -2.9644   -8.2966   -2.1121 H   0  0  0  1  0  0  0  0  0  0  0  0
    3.6523    2.2516   -2.7264 H   0  0  0  1  0  0  0  0  0  0  0  0
    4.7320    0.6691   -0.7799 H   0  0  0  1  0  0  0  0  0  0  0  0
    3.9067    3.5780   -0.7012 H   0  0  0  1  0  0  0  0  0  0  0  0
    5.5264    2.9257   -0.7721 H   0  0  0  1  0  0  0  0  0  0  0  0
    4.4147    3.6908    1.5759 H   0  0  0  1  0  0  0  0  0  0  0  0
    3.8451    0.9743    2.1727 H   0  0  0  1  0  0  0  0  0  0  0  0
    2.6928    2.2851    2.0834 H   0  0  0  1  0  0  0  0  0  0  0  0
    2.7193    0.1302    0.3588 H   0  0  0  1  0  0  0  0  0  0  0  0
    1.9924    1.6746   -0.0166 H   0  0  0  1  0  0  0  0  0  0  0  0
    6.1002    1.3855    1.1333 H   0  0  0  1  0  0  0  0  0  0  0  0
    5.8413    2.0256    2.5768 H   0  0  0  1  0  0  0  0  0  0  0  0
  1  2  4  0  0  0  0
  1  6  4  0  0  0  0
  2  3  4  0  0  0  0
  2 18  1  0  0  0  0
  3  4  4  0  0  0  0
  4  5  4  0  0  0  0
  4  7  4  0  0  0  0
  5  6  4  0  0  0  0
  5  9  4  0  0  0  0
  6 25  1  0  0  0  0
  7  8  4  0  0  0  0
  7 26  1  0  0  0  0
  8  9  4  0  0  0  0
  9 10  1  0  0  0  0
 10 11  4  0  0  0  0
 10 15  4  0  0  0  0
 11 12  4  0  0  0  0
 11 27  1  0  0  0  0
 12 13  4  0  0  0  0
 12 28  1  0  0  0  0
 13 14  4  0  0  0  0
 13 16  1  0  0  0  0
 14 15  4  0  0  0  0
 14 29  1  0  0  0  0
 15 30  1  0  0  0  0
 16 17  1  0  0  0  0
 17 31  1  0  0  0  0
 17 32  1  0  0  0  0
 17 33  1  0  0  0  0
 18 19  1  0  0  0  0
 18 34  1  0  0  0  0
 19 20  1  0  0  0  0
 19 23  1  0  0  0  0
 19 35  1  0  0  0  0
 20 21  1  0  0  0  0
 20 36  1  0  0  0  0
 20 37  1  0  0  0  0
 21 22  1  0  0  0  0
 21 24  1  0  0  0  0
 21 38  1  0  0  0  0
 22 23  1  0  0  0  0
 22 39  1  0  0  0  0
 22 40  1  0  0  0  0
 23 41  1  0  0  0  0
 23 42  1  0  0  0  0
 24 43  1  0  0  0  0
 24 44  1  0  0  0  0
M  END
> <ConfClashScore>
0 

> <ConfOneFourInteractionScore>
-0.985399 

> <ConfScore>
0.00608581 

> <ConfScorePBest>
0.00238037 

> <ConfTolerance>
0.339211 

$$$$
c13.sdf
 OpenBabel04162418043D

 44 47  0  0  0  0  0  0  0  0999 V2000
    2.1079   -0.3773   -1.8532 N   0  0  0  1  0  0  0  0  0  0  0  0
    2.5363    0.5907   -2.6455 C   0  0  0  1  0  0  0  0  0  0  0  0
    2.1526    0.6996   -3.8968 N   0  0  0  1  0  0  0  0  0  0  0  0
    1.2986   -0.1837   -4.4201 C   0  0  0  1  0  0  0  0  0  0  0  0
    0.8204   -1.2305   -3.6033 C   0  0  0  1  0  0  0  0  0  0  0  0
    1.2615   -1.2959   -2.2849 C   0  0  0  1  0  0  0  0  0  0  0  0
    0.7020   -0.3513   -5.6890 C   0  0  0  1  0  0  0  0  0  0  0  0
   -0.0689   -1.4010   -5.6538 N   0  0  0  1  0  0  0  0  0  0  0  0
   -0.0256   -1.9781   -4.3778 N   0  0  0  1  0  0  0  0  0  0  0  0
   -0.7971   -3.1366   -4.1257 C   0  0  0  1  0  0  0  0  0  0  0  0
   -2.1771   -3.0673   -4.1534 C   0  0  0  1  0  0  0  0  0  0  0  0
   -2.9329   -4.2038   -3.9116 C   0  0  0  1  0  0  0  0  0  0  0  0
   -2.3067   -5.4051   -3.6376 C   0  0  0  1  0  0  0  0  0  0  0  0
   -0.9225   -5.4744   -3.6099 C   0  0  0  1  0  0  0  0  0  0  0  0
   -0.1688   -4.3412   -3.8509 C   0  0  0  1  0  0  0  0  0  0  0  0
   -3.0415   -6.4921   -3.3026 O   0  0  0  1  0  0  0  0  0  0  0  0
   -2.3271   -7.7058   -3.0212 C   0  0  0  1  0  0  0  0  0  0  0  0
    3.3939    1.4949   -2.1548 N   0  0  0  1  0  0  0  0  0  0  0  0
    3.8684    1.5845   -0.7670 C   0  0  0  1  0  0  0  0  0  0  0  0
    5.3784    1.2963   -0.6773 C   0  0  0  1  0  0  0  0  0  0  0  0
    6.1227    2.6678   -0.8344 C   0  0  0  1  0  0  0  0  0  0  0  0
    5.0074    3.7084   -0.8384 C   0  0  0  1  0  0  0  0  0  0  0  0
    3.7634    3.0509   -0.2287 C   0  0  0  1  0  0  0  0  0  0  0  0
    7.0417    2.8938    0.2945 N   0  0  0  1  0  0  0  0  0  0  0  0
    0.9316   -2.0526   -1.6521 H   0  0  0  1  0  0  0  0  0  0  0  0
    0.8530    0.2619   -6.5152 H   0  0  0  1  0  0  0  0  0  0  0  0
   -2.6485   -2.1626   -4.3557 H   0  0  0  1  0  0  0  0  0  0  0  0
   -3.9714   -4.1526   -3.9364 H   0  0  0  1  0  0  0  0  0  0  0  0
   -0.4511   -6.3791   -3.4076 H   0  0  0  1  0  0  0  0  0  0  0  0
    0.8698   -4.3924   -3.8261 H   0  0  0  1  0  0  0  0  0  0  0  0
   -2.0577   -7.7298   -1.9858 H   0  0  0  1  0  0  0  0  0  0  0  0
   -1.4417   -7.7454   -3.6208 H   0  0  0  1  0  0  0  0  0  0  0  0
   -2.9494   -8.5463   -3.2471 H   0  0  0  1  0  0  0  0  0  0  0  0
    3.7392    2.1628   -2.7834 H   0  0  0  1  0  0  0  0  0  0  0  0
    3.3098    0.9082   -0.1543 H   0  0  0  1  0  0  0  0  0  0  0  0
    5.6122    0.8590    0.2708 H   0  0  0  1  0  0  0  0  0  0  0  0
    5.6712    0.6286   -1.4605 H   0  0  0  1  0  0  0  0  0  0  0  0
    6.6710    2.6976   -1.7528 H   0  0  0  1  0  0  0  0  0  0  0  0
    4.8019    4.0199   -1.8412 H   0  0  0  1  0  0  0  0  0  0  0  0
    5.2967    4.5563   -0.2533 H   0  0  0  1  0  0  0  0  0  0  0  0
    3.7963    3.0750    0.8405 H   0  0  0  1  0  0  0  0  0  0  0  0
    2.8671    3.5260   -0.5692 H   0  0  0  1  0  0  0  0  0  0  0  0
    6.5475    2.8232    1.1378 H   0  0  0  1  0  0  0  0  0  0  0  0
    7.4354    3.7883    0.2208 H   0  0  0  1  0  0  0  0  0  0  0  0
  1  2  4  0  0  0  0
  1  6  4  0  0  0  0
  2  3  4  0  0  0  0
  2 18  1  0  0  0  0
  3  4  4  0  0  0  0
  4  5  4  0  0  0  0
  4  7  4  0  0  0  0
  5  6  4  0  0  0  0
  5  9  4  0  0  0  0
  6 25  1  0  0  0  0
  7  8  4  0  0  0  0
  7 26  1  0  0  0  0
  8  9  4  0  0  0  0
  9 10  1  0  0  0  0
 10 11  4  0  0  0  0
 10 15  4  0  0  0  0
 11 12  4  0  0  0  0
 11 27  1  0  0  0  0
 12 13  4  0  0  0  0
 12 28  1  0  0  0  0
 13 14  4  0  0  0  0
 13 16  1  0  0  0  0
 14 15  4  0  0  0  0
 14 29  1  0  0  0  0
 15 30  1  0  0  0  0
 16 17  1  0  0  0  0
 17 31  1  0  0  0  0
 17 32  1  0  0  0  0
 17 33  1  0  0  0  0
 18 19  1  0  0  0  0
 18 34  1  0  0  0  0
 19 20  1  0  0  0  0
 19 23  1  0  0  0  0
 19 35  1  0  0  0  0
 20 21  1  0  0  0  0
 20 36  1  0  0  0  0
 20 37  1  0  0  0  0
 21 22  1  0  0  0  0
 21 24  1  0  0  0  0
 21 38  1  0  0  0  0
 22 23  1  0  0  0  0
 22 39  1  0  0  0  0
 22 40  1  0  0  0  0
 23 41  1  0  0  0  0
 23 42  1  0  0  0  0
 24 43  1  0  0  0  0
 24 44  1  0  0  0  0
M  END
> <ConfClashScore>
0 

> <ConfOneFourInteractionScore>
-0.984337 

> <ConfScore>
0.00737475 

> <ConfScorePBest>
0.00236704 

> <ConfTolerance>
0.645009 

$$$$
c13.sdf
 OpenBabel04162418043D

 44 47  0  0  0  0  0  0  0  0999 V2000
    2.1079   -0.3773   -1.8532 N   0  0  0  1  0  0  0  0  0  0  0  0
    2.5363    0.5907   -2.6455 C   0  0  0  1  0  0  0  0  0  0  0  0
    2.1526    0.6996   -3.8967 N   0  0  0  1  0  0  0  0  0  0  0  0
    1.2985   -0.1838   -4.4201 C   0  0  0  1  0  0  0  0  0  0  0  0
    0.8205   -1.2305   -3.6033 C   0  0  0  1  0  0  0  0  0  0  0  0
    1.2616   -1.2960   -2.2849 C   0  0  0  1  0  0  0  0  0  0  0  0
    0.7020   -0.3513   -5.6890 C   0  0  0  1  0  0  0  0  0  0  0  0
   -0.0688   -1.4011   -5.6538 N   0  0  0  1  0  0  0  0  0  0  0  0
   -0.0256   -1.9781   -4.3778 N   0  0  0  1  0  0  0  0  0  0  0  0
   -0.8608   -3.0770   -4.0691 C   0  0  0  1  0  0  0  0  0  0  0  0
   -2.2228   -2.8908   -3.9258 C   0  0  0  1  0  0  0  0  0  0  0  0
   -3.0421   -3.9687   -3.6285 C   0  0  0  1  0  0  0  0  0  0  0  0
   -2.4964   -5.2287   -3.4700 C   0  0  0  1  0  0  0  0  0  0  0  0
   -1.1304   -5.4153   -3.6138 C   0  0  0  1  0  0  0  0  0  0  0  0
   -0.3134   -4.3406   -3.9102 C   0  0  0  1  0  0  0  0  0  0  0  0
   -3.3902   -6.1984   -3.1772 O   0  0  0  1  0  0  0  0  0  0  0  0
   -2.9351   -7.5485   -2.9968 C   0  0  0  1  0  0  0  0  0  0  0  0
    3.3976    1.4989   -2.1526 N   0  0  0  1  0  0  0  0  0  0  0  0
    3.9374    1.6067   -0.8031 C   0  0  0  1  0  0  0  0  0  0  0  0
    2.8028    1.7087    0.2189 C   0  0  0  1  0  0  0  0  0  0  0  0
    3.1993    0.8152    1.4011 C   0  0  0  1  0  0  0  0  0  0  0  0
    4.6235    0.3414    1.0911 C   0  0  0  1  0  0  0  0  0  0  0  0
    4.7118    0.3388   -0.4351 C   0  0  0  1  0  0  0  0  0  0  0  0
    3.1732    1.5867    2.6658 N   0  0  0  1  0  0  0  0  0  0  0  0
    0.9317   -2.0526   -1.6522 H   0  0  0  1  0  0  0  0  0  0  0  0
    0.8530    0.2621   -6.5152 H   0  0  0  1  0  0  0  0  0  0  0  0
   -2.6330   -1.9421   -4.0410 H   0  0  0  1  0  0  0  0  0  0  0  0
   -4.0674   -3.8294   -3.5246 H   0  0  0  1  0  0  0  0  0  0  0  0
   -0.7201   -6.3639   -3.4985 H   0  0  0  1  0  0  0  0  0  0  0  0
    0.7120   -4.4799   -4.0141 H   0  0  0  1  0  0  0  0  0  0  0  0
   -2.2155   -7.5801   -2.2055 H   0  0  0  1  0  0  0  0  0  0  0  0
   -2.4843   -7.8967   -3.9025 H   0  0  0  1  0  0  0  0  0  0  0  0
   -3.7663   -8.1745   -2.7478 H   0  0  0  1  0  0  0  0  0  0  0  0
    3.7037    2.1803   -2.7870 H   0  0  0  1  0  0  0  0  0  0  0  0
    4.5742    2.4643   -0.7406 H   0  0  0  1  0  0  0  0  0  0  0  0
    2.6880    2.7218    0.5436 H   0  0  0  1  0  0  0  0  0  0  0  0
    1.8855    1.3657   -0.2120 H   0  0  0  1  0  0  0  0  0  0  0  0
    2.5352   -0.0201    1.4786 H   0  0  0  1  0  0  0  0  0  0  0  0
    4.7860   -0.6423    1.4794 H   0  0  0  1  0  0  0  0  0  0  0  0
    5.3434    1.0137    1.5089 H   0  0  0  1  0  0  0  0  0  0  0  0
    5.7281    0.3950   -0.7653 H   0  0  0  1  0  0  0  0  0  0  0  0
    4.2494   -0.5326   -0.8494 H   0  0  0  1  0  0  0  0  0  0  0  0
    3.8885    2.2566    2.6551 H   0  0  0  1  0  0  0  0  0  0  0  0
    3.3073    0.9782    3.4221 H   0  0  0  1  0  0  0  0  0  0  0  0
  1  2  4  0  0  0  0
  1  6  4  0  0  0  0
  2  3  4  0  0  0  0
  2 18  1  0  0  0  0
  3  4  4  0  0  0  0
  4  5  4  0  0  0  0
  4  7  4  0  0  0  0
  5  6  4  0  0  0  0
  5  9  4  0  0  0  0
  6 25  1  0  0  0  0
  7  8  4  0  0  0  0
  7 26  1  0  0  0  0
  8  9  4  0  0  0  0
  9 10  1  0  0  0  0
 10 11  4  0  0  0  0
 10 15  4  0  0  0  0
 11 12  4  0  0  0  0
 11 27  1  0  0  0  0
 12 13  4  0  0  0  0
 12 28  1  0  0  0  0
 13 14  4  0  0  0  0
 13 16  1  0  0  0  0
 14 15  4  0  0  0  0
 14 29  1  0  0  0  0
 15 30  1  0  0  0  0
 16 17  1  0  0  0  0
 17 31  1  0  0  0  0
 17 32  1  0  0  0  0
 17 33  1  0  0  0  0
 18 19  1  0  0  0  0
 18 34  1  0  0  0  0
 19 20  1  0  0  0  0
 19 23  1  0  0  0  0
 19 35  1  0  0  0  0
 20 21  1  0  0  0  0
 20 36  1  0  0  0  0
 20 37  1  0  0  0  0
 21 22  1  0  0  0  0
 21 24  1  0  0  0  0
 21 38  1  0  0  0  0
 22 23  1  0  0  0  0
 22 39  1  0  0  0  0
 22 40  1  0  0  0  0
 23 41  1  0  0  0  0
 23 42  1  0  0  0  0
 24 43  1  0  0  0  0
 24 44  1  0  0  0  0
M  END
> <ConfClashScore>
0 

> <ConfOneFourInteractionScore>
-0.980204 

> <ConfScore>
0.00760436 

> <ConfScorePBest>
0.00235371 

> <ConfTolerance>
0.27705 

$$$$
c13.sdf
 OpenBabel04162418043D

 44 47  0  0  0  0  0  0  0  0999 V2000
    2.1078   -0.3774   -1.8532 N   0  0  0  1  0  0  0  0  0  0  0  0
    2.5363    0.5907   -2.6455 C   0  0  0  1  0  0  0  0  0  0  0  0
    2.1526    0.6996   -3.8968 N   0  0  0  1  0  0  0  0  0  0  0  0
    1.2986   -0.1837   -4.4201 C   0  0  0  1  0  0  0  0  0  0  0  0
    0.8204   -1.2305   -3.6033 C   0  0  0  1  0  0  0  0  0  0  0  0
    1.2615   -1.2960   -2.2849 C   0  0  0  1  0  0  0  0  0  0  0  0
    0.7019   -0.3513   -5.6890 C   0  0  0  1  0  0  0  0  0  0  0  0
   -0.0689   -1.4010   -5.6538 N   0  0  0  1  0  0  0  0  0  0  0  0
   -0.0256   -1.9781   -4.3778 N   0  0  0  1  0  0  0  0  0  0  0  0
   -0.7096   -3.1879   -4.1147 C   0  0  0  1  0  0  0  0  0  0  0  0
   -2.0227   -3.3409   -4.5178 C   0  0  0  1  0  0  0  0  0  0  0  0
   -2.6914   -4.5286   -4.2647 C   0  0  0  1  0  0  0  0  0  0  0  0
   -2.0467   -5.5576   -3.6045 C   0  0  0  1  0  0  0  0  0  0  0  0
   -0.7297   -5.4039   -3.2002 C   0  0  0  1  0  0  0  0  0  0  0  0
   -0.0629   -4.2198   -3.4525 C   0  0  0  1  0  0  0  0  0  0  0  0
   -2.7575   -6.6889   -3.3838 O   0  0  0  1  0  0  0  0  0  0  0  0
   -2.1132   -7.7336   -2.6380 C   0  0  0  1  0  0  0  0  0  0  0  0
    3.4204    1.4994   -2.0924 N   0  0  0  1  0  0  0  0  0  0  0  0
    3.7411    1.3633   -0.6708 C   0  0  0  1  0  0  0  0  0  0  0  0
    4.6087    2.5281   -0.1818 C   0  0  0  1  0  0  0  0  0  0  0  0
    3.6244    3.6844    0.0152 C   0  0  0  1  0  0  0  0  0  0  0  0
    2.2629    3.0236    0.2689 C   0  0  0  1  0  0  0  0  0  0  0  0
    2.4989    1.5114    0.1922 C   0  0  0  1  0  0  0  0  0  0  0  0
    4.0270    4.5192    1.1886 N   0  0  0  1  0  0  0  0  0  0  0  0
    0.9316   -2.0527   -1.6523 H   0  0  0  1  0  0  0  0  0  0  0  0
    0.8529    0.2620   -6.5152 H   0  0  0  1  0  0  0  0  0  0  0  0
   -2.5091   -2.5652   -5.0110 H   0  0  0  1  0  0  0  0  0  0  0  0
   -3.6781   -4.6452   -4.5716 H   0  0  0  1  0  0  0  0  0  0  0  0
   -0.2433   -6.1796   -2.7071 H   0  0  0  1  0  0  0  0  0  0  0  0
    0.9239   -4.1030   -3.1458 H   0  0  0  1  0  0  0  0  0  0  0  0
   -1.5798   -7.3075   -1.8141 H   0  0  0  1  0  0  0  0  0  0  0  0
   -1.4290   -8.2555   -3.2740 H   0  0  0  1  0  0  0  0  0  0  0  0
   -2.8507   -8.4160   -2.2704 H   0  0  0  1  0  0  0  0  0  0  0  0
    3.8192    2.2114   -2.6350 H   0  0  0  1  0  0  0  0  0  0  0  0
    4.2220    0.4225   -0.5017 H   0  0  0  1  0  0  0  0  0  0  0  0
    5.3481    2.7815   -0.9126 H   0  0  0  1  0  0  0  0  0  0  0  0
    5.0895    2.2797    0.7413 H   0  0  0  1  0  0  0  0  0  0  0  0
    3.5857    4.2960   -0.8618 H   0  0  0  1  0  0  0  0  0  0  0  0
    1.8951    3.2926    1.2370 H   0  0  0  1  0  0  0  0  0  0  0  0
    1.5589    3.3271   -0.4776 H   0  0  0  1  0  0  0  0  0  0  0  0
    1.6630    1.0209   -0.2610 H   0  0  0  1  0  0  0  0  0  0  0  0
    2.6657    1.1049    1.1678 H   0  0  0  1  0  0  0  0  0  0  0  0
    4.9162    4.8993    1.0300 H   0  0  0  1  0  0  0  0  0  0  0  0
    4.0493    3.9612    1.9939 H   0  0  0  1  0  0  0  0  0  0  0  0
  1  2  4  0  0  0  0
  1  6  4  0  0  0  0
  2  3  4  0  0  0  0
  2 18  1  0  0  0  0
  3  4  4  0  0  0  0
  4  5  4  0  0  0  0
  4  7  4  0  0  0  0
  5  6  4  0  0  0  0
  5  9  4  0  0  0  0
  6 25  1  0  0  0  0
  7  8  4  0  0  0  0
  7 26  1  0  0  0  0
  8  9  4  0  0  0  0
  9 10  1  0  0  0  0
 10 11  4  0  0  0  0
 10 15  4  0  0  0  0
 11 12  4  0  0  0  0
 11 27  1  0  0  0  0
 12 13  4  0  0  0  0
 12 28  1  0  0  0  0
 13 14  4  0  0  0  0
 13 16  1  0  0  0  0
 14 15  4  0  0  0  0
 14 29  1  0  0  0  0
 15 30  1  0  0  0  0
 16 17  1  0  0  0  0
 17 31  1  0  0  0  0
 17 32  1  0  0  0  0
 17 33  1  0  0  0  0
 18 19  1  0  0  0  0
 18 34  1  0  0  0  0
 19 20  1  0  0  0  0
 19 23  1  0  0  0  0
 19 35  1  0  0  0  0
 20 21  1  0  0  0  0
 20 36  1  0  0  0  0
 20 37  1  0  0  0  0
 21 22  1  0  0  0  0
 21 24  1  0  0  0  0
 21 38  1  0  0  0  0
 22 23  1  0  0  0  0
 22 39  1  0  0  0  0
 22 40  1  0  0  0  0
 23 41  1  0  0  0  0
 23 42  1  0  0  0  0
 24 43  1  0  0  0  0
 24 44  1  0  0  0  0
M  END
> <ConfClashScore>
0 

> <ConfOneFourInteractionScore>
-0.981848 

> <ConfScore>
0.00907781 

> <ConfScorePBest>
0.00234038 

> <ConfTolerance>
0.395445 

$$$$
c13.sdf
 OpenBabel04162418043D

 44 47  0  0  0  0  0  0  0  0999 V2000
    2.1079   -0.3773   -1.8532 N   0  0  0  1  0  0  0  0  0  0  0  0
    2.5364    0.5907   -2.6455 C   0  0  0  1  0  0  0  0  0  0  0  0
    2.1525    0.6996   -3.8968 N   0  0  0  1  0  0  0  0  0  0  0  0
    1.2985   -0.1838   -4.4201 C   0  0  0  1  0  0  0  0  0  0  0  0
    0.8204   -1.2304   -3.6033 C   0  0  0  1  0  0  0  0  0  0  0  0
    1.2615   -1.2960   -2.2850 C   0  0  0  1  0  0  0  0  0  0  0  0
    0.7018   -0.3513   -5.6890 C   0  0  0  1  0  0  0  0  0  0  0  0
   -0.0690   -1.4010   -5.6538 N   0  0  0  1  0  0  0  0  0  0  0  0
   -0.0256   -1.9781   -4.3778 N   0  0  0  1  0  0  0  0  0  0  0  0
   -0.7902   -3.1516   -4.0774 C   0  0  0  1  0  0  0  0  0  0  0  0
   -0.5679   -3.8381   -2.8986 C   0  0  0  1  0  0  0  0  0  0  0  0
   -1.3115   -4.9705   -2.6054 C   0  0  0  1  0  0  0  0  0  0  0  0
   -2.2714   -5.4164   -3.4943 C   0  0  0  1  0  0  0  0  0  0  0  0
   -2.4942   -4.7278   -4.6765 C   0  0  0  1  0  0  0  0  0  0  0  0
   -1.7529   -3.5985   -4.9690 C   0  0  0  1  0  0  0  0  0  0  0  0
   -3.0529   -6.5085   -3.3194 O   0  0  0  1  0  0  0  0  0  0  0  0
   -2.9232   -7.2159   -2.0763 C   0  0  0  1  0  0  0  0  0  0  0  0
    3.3976    1.4989   -2.1527 N   0  0  0  1  0  0  0  0  0  0  0  0
    3.9569    1.4451   -0.7944 C   0  0  0  1  0  0  0  0  0  0  0  0
    4.9469    2.5944   -0.5759 C   0  0  0  1  0  0  0  0  0  0  0  0
    4.1032    3.7352   -0.0066 C   0  0  0  1  0  0  0  0  0  0  0  0
    3.1527    2.9917    0.9351 C   0  0  0  1  0  0  0  0  0  0  0  0
    2.8531    1.6566    0.2496 C   0  0  0  1  0  0  0  0  0  0  0  0
    4.9360    4.6998    0.7280 N   0  0  0  1  0  0  0  0  0  0  0  0
    0.9316   -2.0526   -1.6523 H   0  0  0  1  0  0  0  0  0  0  0  0
    0.8529    0.2620   -6.5153 H   0  0  0  1  0  0  0  0  0  0  0  0
    0.1572   -3.5049   -2.2316 H   0  0  0  1  0  0  0  0  0  0  0  0
   -1.1470   -5.4849   -1.7166 H   0  0  0  1  0  0  0  0  0  0  0  0
   -3.2193   -5.0609   -5.3436 H   0  0  0  1  0  0  0  0  0  0  0  0
   -1.9174   -3.0843   -5.8578 H   0  0  0  1  0  0  0  0  0  0  0  0
   -1.9761   -7.7129   -2.0453 H   0  0  0  1  0  0  0  0  0  0  0  0
   -3.7078   -7.9387   -1.9940 H   0  0  0  1  0  0  0  0  0  0  0  0
   -2.9890   -6.5231   -1.2635 H   0  0  0  1  0  0  0  0  0  0  0  0
    3.6682    2.2403   -2.7335 H   0  0  0  1  0  0  0  0  0  0  0  0
    4.4390    0.5018   -0.6438 H   0  0  0  1  0  0  0  0  0  0  0  0
    5.7097    2.3078    0.1176 H   0  0  0  1  0  0  0  0  0  0  0  0
    5.3971    2.8849   -1.5021 H   0  0  0  1  0  0  0  0  0  0  0  0
    3.5653    4.2433   -0.7794 H   0  0  0  1  0  0  0  0  0  0  0  0
    2.2510    3.5510    1.0731 H   0  0  0  1  0  0  0  0  0  0  0  0
    3.6199    2.8276    1.8836 H   0  0  0  1  0  0  0  0  0  0  0  0
    2.8654    0.8622    0.9664 H   0  0  0  1  0  0  0  0  0  0  0  0
    1.8958    1.6927   -0.2271 H   0  0  0  1  0  0  0  0  0  0  0  0
    4.4102    5.5033    0.9239 H   0  0  0  1  0  0  0  0  0  0  0  0
    5.7126    4.9430    0.1819 H   0  0  0  1  0  0  0  0  0  0  0  0
  1  2  4  0  0  0  0
  1  6  4  0  0  0  0
  2  3  4  0  0  0  0
  2 18  1  0  0  0  0
  3  4  4  0  0  0  0
  4  5  4  0  0  0  0
  4  7  4  0  0  0  0
  5  6  4  0  0  0  0
  5  9  4  0  0  0  0
  6 25  1  0  0  0  0
  7  8  4  0  0  0  0
  7 26  1  0  0  0  0
  8  9  4  0  0  0  0
  9 10  1  0  0  0  0
 10 11  4  0  0  0  0
 10 15  4  0  0  0  0
 11 12  4  0  0  0  0
 11 27  1  0  0  0  0
 12 13  4  0  0  0  0
 12 28  1  0  0  0  0
 13 14  4  0  0  0  0
 13 16  1  0  0  0  0
 14 15  4  0  0  0  0
 14 29  1  0  0  0  0
 15 30  1  0  0  0  0
 16 17  1  0  0  0  0
 17 31  1  0  0  0  0
 17 32  1  0  0  0  0
 17 33  1  0  0  0  0
 18 19  1  0  0  0  0
 18 34  1  0  0  0  0
 19 20  1  0  0  0  0
 19 23  1  0  0  0  0
 19 35  1  0  0  0  0
 20 21  1  0  0  0  0
 20 36  1  0  0  0  0
 20 37  1  0  0  0  0
 21 22  1  0  0  0  0
 21 24  1  0  0  0  0
 21 38  1  0  0  0  0
 22 23  1  0  0  0  0
 22 39  1  0  0  0  0
 22 40  1  0  0  0  0
 23 41  1  0  0  0  0
 23 42  1  0  0  0  0
 24 43  1  0  0  0  0
 24 44  1  0  0  0  0
M  END
> <ConfClashScore>
0 

> <ConfOneFourInteractionScore>
-0.981848 

> <ConfScore>
0.00941297 

> <ConfScorePBest>
0.00232706 

> <ConfTolerance>
0.318349 

$$$$
c13.sdf
 OpenBabel04162418043D

 44 47  0  0  0  0  0  0  0  0999 V2000
    2.1078   -0.3773   -1.8532 N   0  0  0  1  0  0  0  0  0  0  0  0
    2.5364    0.5907   -2.6455 C   0  0  0  1  0  0  0  0  0  0  0  0
    2.1526    0.6996   -3.8968 N   0  0  0  1  0  0  0  0  0  0  0  0
    1.2985   -0.1837   -4.4201 C   0  0  0  1  0  0  0  0  0  0  0  0
    0.8204   -1.2304   -3.6034 C   0  0  0  1  0  0  0  0  0  0  0  0
    1.2614   -1.2959   -2.2849 C   0  0  0  1  0  0  0  0  0  0  0  0
    0.7020   -0.3513   -5.6890 C   0  0  0  1  0  0  0  0  0  0  0  0
   -0.0689   -1.4011   -5.6538 N   0  0  0  1  0  0  0  0  0  0  0  0
   -0.0256   -1.9781   -4.3778 N   0  0  0  1  0  0  0  0  0  0  0  0
   -0.7851   -3.1436   -4.0794 C   0  0  0  1  0  0  0  0  0  0  0  0
   -2.0714   -3.2739   -4.5678 C   0  0  0  1  0  0  0  0  0  0  0  0
   -2.8093   -4.4119   -4.2814 C   0  0  0  1  0  0  0  0  0  0  0  0
   -2.2608   -5.4138   -3.5032 C   0  0  0  1  0  0  0  0  0  0  0  0
   -0.9706   -5.2829   -3.0134 C   0  0  0  1  0  0  0  0  0  0  0  0
   -0.2348   -4.1483   -3.2988 C   0  0  0  1  0  0  0  0  0  0  0  0
   -3.0722   -6.4674   -3.2876 O   0  0  0  1  0  0  0  0  0  0  0  0
   -2.4686   -7.5676   -2.5681 C   0  0  0  1  0  0  0  0  0  0  0  0
    3.3939    1.4950   -2.1548 N   0  0  0  1  0  0  0  0  0  0  0  0
    4.1373    2.4878   -2.9205 C   0  0  0  1  0  0  0  0  0  0  0  0
    4.5482    3.6635   -2.0278 C   0  0  0  1  0  0  0  0  0  0  0  0
    5.9745    3.3615   -1.5489 C   0  0  0  1  0  0  0  0  0  0  0  0
    6.3345    2.0080   -2.1678 C   0  0  0  1  0  0  0  0  0  0  0  0
    5.4519    1.9089   -3.4168 C   0  0  0  1  0  0  0  0  0  0  0  0
    6.9182    4.4187   -2.0203 N   0  0  0  1  0  0  0  0  0  0  0  0
    0.9315   -2.0525   -1.6521 H   0  0  0  1  0  0  0  0  0  0  0  0
    0.8531    0.2619   -6.5152 H   0  0  0  1  0  0  0  0  0  0  0  0
   -2.4856   -2.5184   -5.1501 H   0  0  0  1  0  0  0  0  0  0  0  0
   -3.7757   -4.5119   -4.6523 H   0  0  0  1  0  0  0  0  0  0  0  0
   -0.5564   -6.0384   -2.4311 H   0  0  0  1  0  0  0  0  0  0  0  0
    0.7318   -4.0483   -2.9280 H   0  0  0  1  0  0  0  0  0  0  0  0
   -1.5995   -7.9043   -3.0937 H   0  0  0  1  0  0  0  0  0  0  0  0
   -3.1713   -8.3708   -2.4902 H   0  0  0  1  0  0  0  0  0  0  0  0
   -2.1885   -7.2418   -1.5881 H   0  0  0  1  0  0  0  0  0  0  0  0
    3.5356    1.4884   -1.1851 H   0  0  0  1  0  0  0  0  0  0  0  0
    3.5398    2.8269   -3.7409 H   0  0  0  1  0  0  0  0  0  0  0  0
    3.8855    3.7430   -1.1914 H   0  0  0  1  0  0  0  0  0  0  0  0
    4.5301    4.5764   -2.5856 H   0  0  0  1  0  0  0  0  0  0  0  0
    6.0062    3.3047   -0.4809 H   0  0  0  1  0  0  0  0  0  0  0  0
    6.1170    1.2114   -1.4873 H   0  0  0  1  0  0  0  0  0  0  0  0
    7.3705    1.9777   -2.4337 H   0  0  0  1  0  0  0  0  0  0  0  0
    5.3353    0.8927   -3.7309 H   0  0  0  1  0  0  0  0  0  0  0  0
    5.8523    2.4881   -4.2226 H   0  0  0  1  0  0  0  0  0  0  0  0
    7.7221    3.9980   -2.3906 H   0  0  0  1  0  0  0  0  0  0  0  0
    7.1681    4.9929   -1.2665 H   0  0  0  1  0  0  0  0  0  0  0  0
  1  2  4  0  0  0  0
  1  6  4  0  0  0  0
  2  3  4  0  0  0  0
  2 18  1  0  0  0  0
  3  4  4  0  0  0  0
  4  5  4  0  0  0  0
  4  7  4  0  0  0  0
  5  6  4  0  0  0  0
  5  9  4  0  0  0  0
  6 25  1  0  0  0  0
  7  8  4  0  0  0  0
  7 26  1  0  0  0  0
  8  9  4  0  0  0  0
  9 10  1  0  0  0  0
 10 11  4  0  0  0  0
 10 15  4  0  0  0  0
 11 12  4  0  0  0  0
 11 27  1  0  0  0  0
 12 13  4  0  0  0  0
 12 28  1  0  0  0  0
 13 14  4  0  0  0  0
 13 16  1  0  0  0  0
 14 15  4  0  0  0  0
 14 29  1  0  0  0  0
 15 30  1  0  0  0  0
 16 17  1  0  0  0  0
 17 31  1  0  0  0  0
 17 32  1  0  0  0  0
 17 33  1  0  0  0  0
 18 19  1  0  0  0  0
 18 34  1  0  0  0  0
 19 20  1  0  0  0  0
 19 23  1  0  0  0  0
 19 35  1  0  0  0  0
 20 21  1  0  0  0  0
 20 36  1  0  0  0  0
 20 37  1  0  0  0  0
 21 22  1  0  0  0  0
 21 24  1  0  0  0  0
 21 38  1  0  0  0  0
 22 23  1  0  0  0  0
 22 39  1  0  0  0  0
 22 40  1  0  0  0  0
 23 41  1  0  0  0  0
 23 42  1  0  0  0  0
 24 43  1  0  0  0  0
 24 44  1  0  0  0  0
M  END
> <ConfClashScore>
0 

> <ConfOneFourInteractionScore>
-0.984337 

> <ConfScore>
0.00946067 

> <ConfScorePBest>
0.00231373 

> <ConfTolerance>
0.584973 

$$$$
c13.sdf
 OpenBabel04162418043D

 44 47  0  0  0  0  0  0  0  0999 V2000
    2.1080   -0.3774   -1.8532 N   0  0  0  1  0  0  0  0  0  0  0  0
    2.5364    0.5907   -2.6455 C   0  0  0  1  0  0  0  0  0  0  0  0
    2.1526    0.6997   -3.8968 N   0  0  0  1  0  0  0  0  0  0  0  0
    1.2986   -0.1838   -4.4201 C   0  0  0  1  0  0  0  0  0  0  0  0
    0.8205   -1.2305   -3.6034 C   0  0  0  1  0  0  0  0  0  0  0  0
    1.2616   -1.2961   -2.2850 C   0  0  0  1  0  0  0  0  0  0  0  0
    0.7018   -0.3512   -5.6889 C   0  0  0  1  0  0  0  0  0  0  0  0
   -0.0690   -1.4009   -5.6537 N   0  0  0  1  0  0  0  0  0  0  0  0
   -0.0256   -1.9781   -4.3778 N   0  0  0  1  0  0  0  0  0  0  0  0
   -0.6697   -3.2224   -4.1234 C   0  0  0  1  0  0  0  0  0  0  0  0
   -1.1340   -3.9882   -5.1761 C   0  0  0  1  0  0  0  0  0  0  0  0
   -1.7562   -5.2019   -4.9285 C   0  0  0  1  0  0  0  0  0  0  0  0
   -1.9171   -5.6438   -3.6289 C   0  0  0  1  0  0  0  0  0  0  0  0
   -1.4514   -4.8757   -2.5731 C   0  0  0  1  0  0  0  0  0  0  0  0
   -0.8310   -3.6655   -2.8198 C   0  0  0  1  0  0  0  0  0  0  0  0
   -2.5297   -6.8270   -3.3869 O   0  0  0  1  0  0  0  0  0  0  0  0
   -3.2004   -7.4564   -4.4898 C   0  0  0  1  0  0  0  0  0  0  0  0
    3.3976    1.4989   -2.1525 N   0  0  0  1  0  0  0  0  0  0  0  0
    3.8332    1.5367   -0.7537 C   0  0  0  1  0  0  0  0  0  0  0  0
    4.6523    2.8030   -0.4810 C   0  0  0  1  0  0  0  0  0  0  0  0
    3.6283    3.8400   -0.0192 C   0  0  0  1  0  0  0  0  0  0  0  0
    2.6943    3.0005    0.8557 C   0  0  0  1  0  0  0  0  0  0  0  0
    2.6222    1.6274    0.1834 C   0  0  0  1  0  0  0  0  0  0  0  0
    4.2726    4.9199    0.7643 N   0  0  0  1  0  0  0  0  0  0  0  0
    0.9318   -2.0527   -1.6523 H   0  0  0  1  0  0  0  0  0  0  0  0
    0.8529    0.2622   -6.5151 H   0  0  0  1  0  0  0  0  0  0  0  0
   -1.0165   -3.6538   -6.1538 H   0  0  0  1  0  0  0  0  0  0  0  0
   -2.1020   -5.7799   -5.7209 H   0  0  0  1  0  0  0  0  0  0  0  0
   -1.5689   -5.2100   -1.5954 H   0  0  0  1  0  0  0  0  0  0  0  0
   -0.4852   -3.0873   -2.0275 H   0  0  0  1  0  0  0  0  0  0  0  0
   -4.1422   -6.9764   -4.6561 H   0  0  0  1  0  0  0  0  0  0  0  0
   -3.3618   -8.4901   -4.2659 H   0  0  0  1  0  0  0  0  0  0  0  0
   -2.5970   -7.3713   -5.3694 H   0  0  0  1  0  0  0  0  0  0  0  0
    3.7550    2.1752   -2.7651 H   0  0  0  1  0  0  0  0  0  0  0  0
    4.4109    0.6629   -0.5357 H   0  0  0  1  0  0  0  0  0  0  0  0
    5.1456    3.1317   -1.3719 H   0  0  0  1  0  0  0  0  0  0  0  0
    5.3786    2.6242    0.2842 H   0  0  0  1  0  0  0  0  0  0  0  0
    3.1046    4.2651   -0.8499 H   0  0  0  1  0  0  0  0  0  0  0  0
    1.7225    3.4463    0.8988 H   0  0  0  1  0  0  0  0  0  0  0  0
    3.0904    2.9110    1.8456 H   0  0  0  1  0  0  0  0  0  0  0  0
    2.6662    0.8526    0.9200 H   0  0  0  1  0  0  0  0  0  0  0  0
    1.7146    1.5372   -0.3761 H   0  0  0  1  0  0  0  0  0  0  0  0
    4.7551    4.5303    1.5230 H   0  0  0  1  0  0  0  0  0  0  0  0
    3.5868    5.5366    1.0954 H   0  0  0  1  0  0  0  0  0  0  0  0
  1  2  4  0  0  0  0
  1  6  4  0  0  0  0
  2  3  4  0  0  0  0
  2 18  1  0  0  0  0
  3  4  4  0  0  0  0
  4  5  4  0  0  0  0
  4  7  4  0  0  0  0
  5  6  4  0  0  0  0
  5  9  4  0  0  0  0
  6 25  1  0  0  0  0
  7  8  4  0  0  0  0
  7 26  1  0  0  0  0
  8  9  4  0  0  0  0
  9 10  1  0  0  0  0
 10 11  4  0  0  0  0
 10 15  4  0  0  0  0
 11 12  4  0  0  0  0
 11 27  1  0  0  0  0
 12 13  4  0  0  0  0
 12 28  1  0  0  0  0
 13 14  4  0  0  0  0
 13 16  1  0  0  0  0
 14 15  4  0  0  0  0
 14 29  1  0  0  0  0
 15 30  1  0  0  0  0
 16 17  1  0  0  0  0
 17 31  1  0  0  0  0
 17 32  1  0  0  0  0
 17 33  1  0  0  0  0
 18 19  1  0  0  0  0
 18 34  1  0  0  0  0
 19 20  1  0  0  0  0
 19 23  1  0  0  0  0
 19 35  1  0  0  0  0
 20 21  1  0  0  0  0
 20 36  1  0  0  0  0
 20 37  1  0  0  0  0
 21 22  1  0  0  0  0
 21 24  1  0  0  0  0
 21 38  1  0  0  0  0
 22 23  1  0  0  0  0
 22 39  1  0  0  0  0
 22 40  1  0  0  0  0
 23 41  1  0  0  0  0
 23 42  1  0  0  0  0
 24 43  1  0  0  0  0
 24 44  1  0  0  0  0
M  END
> <ConfClashScore>
0 

> <ConfOneFourInteractionScore>
-0.985399 

> <ConfScore>
0.0115747 

> <ConfScorePBest>
0.0023004 

> <ConfTolerance>
0.527141 

$$$$
c13.sdf
 OpenBabel04162418043D

 44 47  0  0  0  0  0  0  0  0999 V2000
    2.1079   -0.3774   -1.8532 N   0  0  0  1  0  0  0  0  0  0  0  0
    2.5364    0.5907   -2.6455 C   0  0  0  1  0  0  0  0  0  0  0  0
    2.1526    0.6996   -3.8967 N   0  0  0  1  0  0  0  0  0  0  0  0
    1.2986   -0.1837   -4.4201 C   0  0  0  1  0  0  0  0  0  0  0  0
    0.8205   -1.2305   -3.6033 C   0  0  0  1  0  0  0  0  0  0  0  0
    1.2616   -1.2960   -2.2849 C   0  0  0  1  0  0  0  0  0  0  0  0
    0.7019   -0.3513   -5.6890 C   0  0  0  1  0  0  0  0  0  0  0  0
   -0.0689   -1.4011   -5.6537 N   0  0  0  1  0  0  0  0  0  0  0  0
   -0.0256   -1.9781   -4.3778 N   0  0  0  1  0  0  0  0  0  0  0  0
   -0.7073   -3.1837   -4.1156 C   0  0  0  1  0  0  0  0  0  0  0  0
   -0.7498   -3.7512   -2.8561 C   0  0  0  1  0  0  0  0  0  0  0  0
   -1.4397   -4.9361   -2.6530 C   0  0  0  1  0  0  0  0  0  0  0  0
   -2.0805   -5.5531   -3.7109 C   0  0  0  1  0  0  0  0  0  0  0  0
   -2.0377   -4.9838   -4.9741 C   0  0  0  1  0  0  0  0  0  0  0  0
   -1.3499   -3.8021   -5.1767 C   0  0  0  1  0  0  0  0  0  0  0  0
   -2.7784   -6.7111   -3.6352 O   0  0  0  1  0  0  0  0  0  0  0  0
   -2.7886   -7.3896   -2.3695 C   0  0  0  1  0  0  0  0  0  0  0  0
    3.4098    1.5117   -2.1456 N   0  0  0  1  0  0  0  0  0  0  0  0
    3.8859    2.6396   -2.9530 C   0  0  0  1  0  0  0  0  0  0  0  0
    3.2697    3.9574   -2.4830 C   0  0  0  1  0  0  0  0  0  0  0  0
    4.2278    5.0413   -2.9893 C   0  0  0  1  0  0  0  0  0  0  0  0
    5.6042    4.3676   -3.0550 C   0  0  0  1  0  0  0  0  0  0  0  0
    5.3802    2.8881   -2.7333 C   0  0  0  1  0  0  0  0  0  0  0  0
    3.8119    5.5156   -4.3449 N   0  0  0  1  0  0  0  0  0  0  0  0
    0.9317   -2.0526   -1.6522 H   0  0  0  1  0  0  0  0  0  0  0  0
    0.8529    0.2620   -6.5151 H   0  0  0  1  0  0  0  0  0  0  0  0
   -0.2642   -3.2892   -2.0609 H   0  0  0  1  0  0  0  0  0  0  0  0
   -1.4751   -5.3611   -1.7044 H   0  0  0  1  0  0  0  0  0  0  0  0
   -2.5232   -5.4457   -5.7693 H   0  0  0  1  0  0  0  0  0  0  0  0
   -1.3144   -3.3772   -6.1253 H   0  0  0  1  0  0  0  0  0  0  0  0
   -2.7385   -6.6708   -1.5785 H   0  0  0  1  0  0  0  0  0  0  0  0
   -1.9448   -8.0448   -2.3095 H   0  0  0  1  0  0  0  0  0  0  0  0
   -3.6900   -7.9587   -2.2775 H   0  0  0  1  0  0  0  0  0  0  0  0
    3.7274    1.4172   -1.2233 H   0  0  0  1  0  0  0  0  0  0  0  0
    3.6704    2.4564   -3.9848 H   0  0  0  1  0  0  0  0  0  0  0  0
    3.2032    3.9824   -1.4154 H   0  0  0  1  0  0  0  0  0  0  0  0
    2.2953    4.0891   -2.9049 H   0  0  0  1  0  0  0  0  0  0  0  0
    4.2480    5.8693   -2.3118 H   0  0  0  1  0  0  0  0  0  0  0  0
    6.0211    4.4737   -4.0346 H   0  0  0  1  0  0  0  0  0  0  0  0
    6.2648    4.8059   -2.3364 H   0  0  0  1  0  0  0  0  0  0  0  0
    5.6475    2.6824   -1.7179 H   0  0  0  1  0  0  0  0  0  0  0  0
    5.9611    2.2719   -3.3875 H   0  0  0  1  0  0  0  0  0  0  0  0
    3.5625    4.7463   -4.8984 H   0  0  0  1  0  0  0  0  0  0  0  0
    4.5568    5.9931   -4.7664 H   0  0  0  1  0  0  0  0  0  0  0  0
  1  2  4  0  0  0  0
  1  6  4  0  0  0  0
  2  3  4  0  0  0  0
  2 18  1  0  0  0  0
  3  4  4  0  0  0  0
  4  5  4  0  0  0  0
  4  7  4  0  0  0  0
  5  6  4  0  0  0  0
  5  9  4  0  0  0  0
  6 25  1  0  0  0  0
  7  8  4  0  0  0  0
  7 26  1  0  0  0  0
  8  9  4  0  0  0  0
  9 10  1  0  0  0  0
 10 11  4  0  0  0  0
 10 15  4  0  0  0  0
 11 12  4  0  0  0  0
 11 27  1  0  0  0  0
 12 13  4  0  0  0  0
 12 28  1  0  0  0  0
 13 14  4  0  0  0  0
 13 16  1  0  0  0  0
 14 15  4  0  0  0  0
 14 29  1  0  0  0  0
 15 30  1  0  0  0  0
 16 17  1  0  0  0  0
 17 31  1  0  0  0  0
 17 32  1  0  0  0  0
 17 33  1  0  0  0  0
 18 19  1  0  0  0  0
 18 34  1  0  0  0  0
 19 20  1  0  0  0  0
 19 23  1  0  0  0  0
 19 35  1  0  0  0  0
 20 21  1  0  0  0  0
 20 36  1  0  0  0  0
 20 37  1  0  0  0  0
 21 22  1  0  0  0  0
 21 24  1  0  0  0  0
 21 38  1  0  0  0  0
 22 23  1  0  0  0  0
 22 39  1  0  0  0  0
 22 40  1  0  0  0  0
 23 41  1  0  0  0  0
 23 42  1  0  0  0  0
 24 43  1  0  0  0  0
 24 44  1  0  0  0  0
M  END
> <ConfClashScore>
0 

> <ConfOneFourInteractionScore>
-0.984337 

> <ConfScore>
0.0121712 

> <ConfScorePBest>
0.00228707 

> <ConfTolerance>
0.432537 

$$$$
c13.sdf
 OpenBabel04162418043D

 44 47  0  0  0  0  0  0  0  0999 V2000
    2.1080   -0.3774   -1.8533 N   0  0  0  1  0  0  0  0  0  0  0  0
    2.5364    0.5907   -2.6455 C   0  0  0  1  0  0  0  0  0  0  0  0
    2.1525    0.6997   -3.8968 N   0  0  0  1  0  0  0  0  0  0  0  0
    1.2985   -0.1838   -4.4201 C   0  0  0  1  0  0  0  0  0  0  0  0
    0.8205   -1.2305   -3.6033 C   0  0  0  1  0  0  0  0  0  0  0  0
    1.2616   -1.2961   -2.2851 C   0  0  0  1  0  0  0  0  0  0  0  0
    0.7019   -0.3511   -5.6890 C   0  0  0  1  0  0  0  0  0  0  0  0
   -0.0690   -1.4009   -5.6538 N   0  0  0  1  0  0  0  0  0  0  0  0
   -0.0256   -1.9781   -4.3778 N   0  0  0  1  0  0  0  0  0  0  0  0
   -0.9164   -3.0099   -4.0193 C   0  0  0  1  0  0  0  0  0  0  0  0
   -0.3827   -4.2619   -3.7786 C   0  0  0  1  0  0  0  0  0  0  0  0
   -1.2131   -5.3114   -3.4174 C   0  0  0  1  0  0  0  0  0  0  0  0
   -2.5753   -5.1072   -3.3031 C   0  0  0  1  0  0  0  0  0  0  0  0
   -3.1104   -3.8514   -3.5445 C   0  0  0  1  0  0  0  0  0  0  0  0
   -2.2825   -2.8049   -3.9047 C   0  0  0  1  0  0  0  0  0  0  0  0
   -3.3870   -6.1339   -2.9553 O   0  0  0  1  0  0  0  0  0  0  0  0
   -4.7577   -5.8176   -2.6661 C   0  0  0  1  0  0  0  0  0  0  0  0
    3.3977    1.4989   -2.1526 N   0  0  0  1  0  0  0  0  0  0  0  0
    3.9636    2.6436   -2.8736 C   0  0  0  1  0  0  0  0  0  0  0  0
    4.6159    2.2058   -4.1851 C   0  0  0  1  0  0  0  0  0  0  0  0
    4.6438    3.4700   -5.0510 C   0  0  0  1  0  0  0  0  0  0  0  0
    3.4523    4.3123   -4.5776 C   0  0  0  1  0  0  0  0  0  0  0  0
    2.8648    3.5903   -3.3628 C   0  0  0  1  0  0  0  0  0  0  0  0
    5.9291    4.2175   -4.8481 N   0  0  0  1  0  0  0  0  0  0  0  0
    0.9318   -2.0527   -1.6524 H   0  0  0  1  0  0  0  0  0  0  0  0
    0.8528    0.2622   -6.5151 H   0  0  0  1  0  0  0  0  0  0  0  0
    0.6418   -4.4165   -3.8685 H   0  0  0  1  0  0  0  0  0  0  0  0
   -0.8110   -6.2525   -3.2323 H   0  0  0  1  0  0  0  0  0  0  0  0
   -4.1349   -3.6967   -3.4545 H   0  0  0  1  0  0  0  0  0  0  0  0
   -2.6846   -1.8637   -4.0897 H   0  0  0  1  0  0  0  0  0  0  0  0
   -4.7977   -5.0350   -1.9375 H   0  0  0  1  0  0  0  0  0  0  0  0
   -5.2508   -6.6866   -2.2832 H   0  0  0  1  0  0  0  0  0  0  0  0
   -5.2459   -5.4956   -3.5621 H   0  0  0  1  0  0  0  0  0  0  0  0
    3.6743    1.3842   -1.2195 H   0  0  0  1  0  0  0  0  0  0  0  0
    4.6624    3.1527   -2.2434 H   0  0  0  1  0  0  0  0  0  0  0  0
    5.6087    1.8470   -4.0104 H   0  0  0  1  0  0  0  0  0  0  0  0
    4.0368    1.4392   -4.6563 H   0  0  0  1  0  0  0  0  0  0  0  0
    4.5368    3.2179   -6.0854 H   0  0  0  1  0  0  0  0  0  0  0  0
    3.7796    5.2930   -4.3020 H   0  0  0  1  0  0  0  0  0  0  0  0
    2.7197    4.3852   -5.3540 H   0  0  0  1  0  0  0  0  0  0  0  0
    2.6104    4.2938   -2.5975 H   0  0  0  1  0  0  0  0  0  0  0  0
    1.9929    3.0369   -3.6431 H   0  0  0  1  0  0  0  0  0  0  0  0
    6.6841    3.6415   -5.0901 H   0  0  0  1  0  0  0  0  0  0  0  0
    6.0081    4.4813   -3.9076 H   0  0  0  1  0  0  0  0  0  0  0  0
  1  2  4  0  0  0  0
  1  6  4  0  0  0  0
  2  3  4  0  0  0  0
  2 18  1  0  0  0  0
  3  4  4  0  0  0  0
  4  5  4  0  0  0  0
  4  7  4  0  0  0  0
  5  6  4  0  0  0  0
  5  9  4  0  0  0  0
  6 25  1  0  0  0  0
  7  8  4  0  0  0  0
  7 26  1  0  0  0  0
  8  9  4  0  0  0  0
  9 10  1  0  0  0  0
 10 11  4  0  0  0  0
 10 15  4  0  0  0  0
 11 12  4  0  0  0  0
 11 27  1  0  0  0  0
 12 13  4  0  0  0  0
 12 28  1  0  0  0  0
 13 14  4  0  0  0  0
 13 16  1  0  0  0  0
 14 15  4  0  0  0  0
 14 29  1  0  0  0  0
 15 30  1  0  0  0  0
 16 17  1  0  0  0  0
 17 31  1  0  0  0  0
 17 32  1  0  0  0  0
 17 33  1  0  0  0  0
 18 19  1  0  0  0  0
 18 34  1  0  0  0  0
 19 20  1  0  0  0  0
 19 23  1  0  0  0  0
 19 35  1  0  0  0  0
 20 21  1  0  0  0  0
 20 36  1  0  0  0  0
 20 37  1  0  0  0  0
 21 22  1  0  0  0  0
 21 24  1  0  0  0  0
 21 38  1  0  0  0  0
 22 23  1  0  0  0  0
 22 39  1  0  0  0  0
 22 40  1  0  0  0  0
 23 41  1  0  0  0  0
 23 42  1  0  0  0  0
 24 43  1  0  0  0  0
 24 44  1  0  0  0  0
M  END
> <ConfClashScore>
0 

> <ConfOneFourInteractionScore>
-0.980204 

> <ConfScore>
0.0126978 

> <ConfScorePBest>
0.00227374 

> <ConfTolerance>
0.296832 

$$$$
c13.sdf
 OpenBabel04162418043D

 44 47  0  0  0  0  0  0  0  0999 V2000
    2.1079   -0.3774   -1.8532 N   0  0  0  1  0  0  0  0  0  0  0  0
    2.5363    0.5907   -2.6455 C   0  0  0  1  0  0  0  0  0  0  0  0
    2.1525    0.6996   -3.8968 N   0  0  0  1  0  0  0  0  0  0  0  0
    1.2986   -0.1837   -4.4201 C   0  0  0  1  0  0  0  0  0  0  0  0
    0.8204   -1.2306   -3.6034 C   0  0  0  1  0  0  0  0  0  0  0  0
    1.2615   -1.2960   -2.2850 C   0  0  0  1  0  0  0  0  0  0  0  0
    0.7019   -0.3513   -5.6890 C   0  0  0  1  0  0  0  0  0  0  0  0
   -0.0690   -1.4011   -5.6538 N   0  0  0  1  0  0  0  0  0  0  0  0
   -0.0256   -1.9781   -4.3778 N   0  0  0  1  0  0  0  0  0  0  0  0
   -0.7969   -3.1367   -4.1258 C   0  0  0  1  0  0  0  0  0  0  0  0
   -0.3102   -4.3811   -4.4789 C   0  0  0  1  0  0  0  0  0  0  0  0
   -1.0638   -5.5169   -4.2270 C   0  0  0  1  0  0  0  0  0  0  0  0
   -2.3042   -5.4046   -3.6275 C   0  0  0  1  0  0  0  0  0  0  0  0
   -2.7922   -4.1563   -3.2734 C   0  0  0  1  0  0  0  0  0  0  0  0
   -2.0408   -3.0238   -3.5246 C   0  0  0  1  0  0  0  0  0  0  0  0
   -3.0450   -6.5117   -3.5009 O   0  0  0  1  0  0  0  0  0  0  0  0
   -4.3547   -6.4914   -2.8400 C   0  0  0  1  0  0  0  0  0  0  0  0
    3.3969    1.4544   -2.0655 N   0  0  0  1  0  0  0  0  0  0  0  0
    3.8909    1.3162   -0.7011 C   0  0  0  1  0  0  0  0  0  0  0  0
    4.8776    0.1022   -0.5890 C   0  0  0  1  0  0  0  0  0  0  0  0
    6.1865    0.6340    0.0234 C   0  0  0  1  0  0  0  0  0  0  0  0
    6.2048    2.1283   -0.4429 C   0  0  0  1  0  0  0  0  0  0  0  0
    4.7302    2.5272   -0.3064 C   0  0  0  1  0  0  0  0  0  0  0  0
    6.1623    0.5363    1.5024 N   0  0  0  1  0  0  0  0  0  0  0  0
    0.9318   -2.0527   -1.6523 H   0  0  0  1  0  0  0  0  0  0  0  0
    0.8529    0.2620   -6.5152 H   0  0  0  1  0  0  0  0  0  0  0  0
    0.6213   -4.4654   -4.9336 H   0  0  0  1  0  0  0  0  0  0  0  0
   -0.6959   -6.4537   -4.4890 H   0  0  0  1  0  0  0  0  0  0  0  0
   -3.7237   -4.0721   -2.8187 H   0  0  0  1  0  0  0  0  0  0  0  0
   -2.4087   -2.0870   -3.2625 H   0  0  0  1  0  0  0  0  0  0  0  0
   -4.2330   -6.2119   -1.8143 H   0  0  0  1  0  0  0  0  0  0  0  0
   -4.7965   -7.4645   -2.8942 H   0  0  0  1  0  0  0  0  0  0  0  0
   -4.9900   -5.7831   -3.3293 H   0  0  0  1  0  0  0  0  0  0  0  0
    3.7078    2.2196   -2.5931 H   0  0  0  1  0  0  0  0  0  0  0  0
    3.0643    1.1947   -0.0326 H   0  0  0  1  0  0  0  0  0  0  0  0
    4.4584   -0.6536    0.0417 H   0  0  0  1  0  0  0  0  0  0  0  0
    5.0667   -0.3070   -1.5594 H   0  0  0  1  0  0  0  0  0  0  0  0
    7.0336    0.1016   -0.3558 H   0  0  0  1  0  0  0  0  0  0  0  0
    6.5378    2.2146   -1.4560 H   0  0  0  1  0  0  0  0  0  0  0  0
    6.8282    2.7247    0.1900 H   0  0  0  1  0  0  0  0  0  0  0  0
    4.5188    2.8043    0.7052 H   0  0  0  1  0  0  0  0  0  0  0  0
    4.5126    3.3498   -0.9550 H   0  0  0  1  0  0  0  0  0  0  0  0
    7.0068    0.8751    1.8665 H   0  0  0  1  0  0  0  0  0  0  0  0
    6.0455   -0.4003    1.7659 H   0  0  0  1  0  0  0  0  0  0  0  0
  1  2  4  0  0  0  0
  1  6  4  0  0  0  0
  2  3  4  0  0  0  0
  2 18  1  0  0  0  0
  3  4  4  0  0  0  0
  4  5  4  0  0  0  0
  4  7  4  0  0  0  0
  5  6  4  0  0  0  0
  5  9  4  0  0  0  0
  6 25  1  0  0  0  0
  7  8  4  0  0  0  0
  7 26  1  0  0  0  0
  8  9  4  0  0  0  0
  9 10  1  0  0  0  0
 10 11  4  0  0  0  0
 10 15  4  0  0  0  0
 11 12  4  0  0  0  0
 11 27  1  0  0  0  0
 12 13  4  0  0  0  0
 12 28  1  0  0  0  0
 13 14  4  0  0  0  0
 13 16  1  0  0  0  0
 14 15  4  0  0  0  0
 14 29  1  0  0  0  0
 15 30  1  0  0  0  0
 16 17  1  0  0  0  0
 17 31  1  0  0  0  0
 17 32  1  0  0  0  0
 17 33  1  0  0  0  0
 18 19  1  0  0  0  0
 18 34  1  0  0  0  0
 19 20  1  0  0  0  0
 19 23  1  0  0  0  0
 19 35  1  0  0  0  0
 20 21  1  0  0  0  0
 20 36  1  0  0  0  0
 20 37  1  0  0  0  0
 21 22  1  0  0  0  0
 21 24  1  0  0  0  0
 21 38  1  0  0  0  0
 22 23  1  0  0  0  0
 22 39  1  0  0  0  0
 22 40  1  0  0  0  0
 23 41  1  0  0  0  0
 23 42  1  0  0  0  0
 24 43  1  0  0  0  0
 24 44  1  0  0  0  0
M  END
> <ConfClashScore>
0 

> <ConfOneFourInteractionScore>
-0.986411 

> <ConfScore>
0.0133726 

> <ConfScorePBest>
0.00226041 

> <ConfTolerance>
0.42214 

$$$$
c13.sdf
 OpenBabel04162418043D

 44 47  0  0  0  0  0  0  0  0999 V2000
    2.1079   -0.3774   -1.8532 N   0  0  0  1  0  0  0  0  0  0  0  0
    2.5363    0.5907   -2.6455 C   0  0  0  1  0  0  0  0  0  0  0  0
    2.1526    0.6996   -3.8969 N   0  0  0  1  0  0  0  0  0  0  0  0
    1.2985   -0.1838   -4.4201 C   0  0  0  1  0  0  0  0  0  0  0  0
    0.8204   -1.2305   -3.6033 C   0  0  0  1  0  0  0  0  0  0  0  0
    1.2615   -1.2960   -2.2850 C   0  0  0  1  0  0  0  0  0  0  0  0
    0.7019   -0.3513   -5.6890 C   0  0  0  1  0  0  0  0  0  0  0  0
   -0.0689   -1.4010   -5.6537 N   0  0  0  1  0  0  0  0  0  0  0  0
   -0.0256   -1.9780   -4.3778 N   0  0  0  1  0  0  0  0  0  0  0  0
   -0.7745   -3.1274   -4.0836 C   0  0  0  1  0  0  0  0  0  0  0  0
   -0.8340   -3.7275   -2.8400 C   0  0  0  1  0  0  0  0  0  0  0  0
   -1.6107   -4.8605   -2.6539 C   0  0  0  1  0  0  0  0  0  0  0  0
   -2.3213   -5.3932   -3.7129 C   0  0  0  1  0  0  0  0  0  0  0  0
   -2.2613   -4.7911   -4.9602 C   0  0  0  1  0  0  0  0  0  0  0  0
   -1.4869   -3.6613   -5.1459 C   0  0  0  1  0  0  0  0  0  0  0  0
   -3.1046   -6.4921   -3.6534 O   0  0  0  1  0  0  0  0  0  0  0  0
   -3.0997   -7.3004   -2.4665 C   0  0  0  1  0  0  0  0  0  0  0  0
    3.4099    1.5117   -2.1457 N   0  0  0  1  0  0  0  0  0  0  0  0
    4.0003    2.5429   -2.9885 C   0  0  0  1  0  0  0  0  0  0  0  0
    4.8514    1.9033   -4.0880 C   0  0  0  1  0  0  0  0  0  0  0  0
    4.5430    2.6945   -5.3616 C   0  0  0  1  0  0  0  0  0  0  0  0
    3.0586    3.0158   -5.1872 C   0  0  0  1  0  0  0  0  0  0  0  0
    2.8995    3.3414   -3.6981 C   0  0  0  1  0  0  0  0  0  0  0  0
    5.3630    3.9426   -5.4368 N   0  0  0  1  0  0  0  0  0  0  0  0
    0.9317   -2.0527   -1.6523 H   0  0  0  1  0  0  0  0  0  0  0  0
    0.8529    0.2620   -6.5152 H   0  0  0  1  0  0  0  0  0  0  0  0
   -0.2961   -3.3291   -2.0440 H   0  0  0  1  0  0  0  0  0  0  0  0
   -1.6587   -5.3098   -1.7172 H   0  0  0  1  0  0  0  0  0  0  0  0
   -2.7992   -5.1894   -5.7562 H   0  0  0  1  0  0  0  0  0  0  0  0
   -1.4390   -3.2120   -6.0826 H   0  0  0  1  0  0  0  0  0  0  0  0
   -3.4754   -6.7289   -1.6436 H   0  0  0  1  0  0  0  0  0  0  0  0
   -2.0996   -7.6160   -2.2543 H   0  0  0  1  0  0  0  0  0  0  0  0
   -3.7206   -8.1588   -2.6173 H   0  0  0  1  0  0  0  0  0  0  0  0
    3.6463    1.4788   -1.1952 H   0  0  0  1  0  0  0  0  0  0  0  0
    4.6008    3.1942   -2.3884 H   0  0  0  1  0  0  0  0  0  0  0  0
    4.5860    0.8745   -4.2145 H   0  0  0  1  0  0  0  0  0  0  0  0
    5.8910    1.9768   -3.8456 H   0  0  0  1  0  0  0  0  0  0  0  0
    4.7121    2.1027   -6.2368 H   0  0  0  1  0  0  0  0  0  0  0  0
    2.7822    3.8567   -5.7883 H   0  0  0  1  0  0  0  0  0  0  0  0
    2.4568    2.1724   -5.4547 H   0  0  0  1  0  0  0  0  0  0  0  0
    3.0287    4.3899   -3.5281 H   0  0  0  1  0  0  0  0  0  0  0  0
    1.9340    3.0394   -3.3497 H   0  0  0  1  0  0  0  0  0  0  0  0
    5.1473    4.5221   -4.6766 H   0  0  0  1  0  0  0  0  0  0  0  0
    5.1646    4.4137   -6.2730 H   0  0  0  1  0  0  0  0  0  0  0  0
  1  2  4  0  0  0  0
  1  6  4  0  0  0  0
  2  3  4  0  0  0  0
  2 18  1  0  0  0  0
  3  4  4  0  0  0  0
  4  5  4  0  0  0  0
  4  7  4  0  0  0  0
  5  6  4  0  0  0  0
  5  9  4  0  0  0  0
  6 25  1  0  0  0  0
  7  8  4  0  0  0  0
  7 26  1  0  0  0  0
  8  9  4  0  0  0  0
  9 10  1  0  0  0  0
 10 11  4  0  0  0  0
 10 15  4  0  0  0  0
 11 12  4  0  0  0  0
 11 27  1  0  0  0  0
 12 13  4  0  0  0  0
 12 28  1  0  0  0  0
 13 14  4  0  0  0  0
 13 16  1  0  0  0  0
 14 15  4  0  0  0  0
 14 29  1  0  0  0  0
 15 30  1  0  0  0  0
 16 17  1  0  0  0  0
 17 31  1  0  0  0  0
 17 32  1  0  0  0  0
 17 33  1  0  0  0  0
 18 19  1  0  0  0  0
 18 34  1  0  0  0  0
 19 20  1  0  0  0  0
 19 23  1  0  0  0  0
 19 35  1  0  0  0  0
 20 21  1  0  0  0  0
 20 36  1  0  0  0  0
 20 37  1  0  0  0  0
 21 22  1  0  0  0  0
 21 24  1  0  0  0  0
 21 38  1  0  0  0  0
 22 23  1  0  0  0  0
 22 39  1  0  0  0  0
 22 40  1  0  0  0  0
 23 41  1  0  0  0  0
 23 42  1  0  0  0  0
 24 43  1  0  0  0  0
 24 44  1  0  0  0  0
M  END
> <ConfClashScore>
0 

> <ConfOneFourInteractionScore>
-0.980204 

> <ConfScore>
0.0167035 

> <ConfScorePBest>
0.00224709 

> <ConfTolerance>
0.360093 

$$$$
c13.sdf
 OpenBabel04162418043D

 44 47  0  0  0  0  0  0  0  0999 V2000
    2.1079   -0.3773   -1.8532 N   0  0  0  1  0  0  0  0  0  0  0  0
    2.5363    0.5907   -2.6455 C   0  0  0  1  0  0  0  0  0  0  0  0
    2.1525    0.6996   -3.8968 N   0  0  0  1  0  0  0  0  0  0  0  0
    1.2986   -0.1837   -4.4201 C   0  0  0  1  0  0  0  0  0  0  0  0
    0.8205   -1.2304   -3.6033 C   0  0  0  1  0  0  0  0  0  0  0  0
    1.2615   -1.2960   -2.2849 C   0  0  0  1  0  0  0  0  0  0  0  0
    0.7020   -0.3513   -5.6889 C   0  0  0  1  0  0  0  0  0  0  0  0
   -0.0689   -1.4010   -5.6537 N   0  0  0  1  0  0  0  0  0  0  0  0
   -0.0256   -1.9781   -4.3778 N   0  0  0  1  0  0  0  0  0  0  0  0
   -0.7805   -3.1369   -4.0811 C   0  0  0  1  0  0  0  0  0  0  0  0
   -1.4358   -3.8125   -5.0932 C   0  0  0  1  0  0  0  0  0  0  0  0
   -2.1712   -4.9511   -4.8032 C   0  0  0  1  0  0  0  0  0  0  0  0
   -2.2537   -5.4079   -3.5013 C   0  0  0  1  0  0  0  0  0  0  0  0
   -1.5963   -4.7301   -2.4863 C   0  0  0  1  0  0  0  0  0  0  0  0
   -0.8630   -3.5947   -2.7753 C   0  0  0  1  0  0  0  0  0  0  0  0
   -3.0518   -6.4597   -3.2007 O   0  0  0  1  0  0  0  0  0  0  0  0
   -3.5791   -7.2185   -4.3001 C   0  0  0  1  0  0  0  0  0  0  0  0
    3.4009    1.5330   -2.2121 N   0  0  0  1  0  0  0  0  0  0  0  0
    3.9715    1.5593   -0.8623 C   0  0  0  1  0  0  0  0  0  0  0  0
    2.8429    1.5114    0.2228 C   0  0  0  1  0  0  0  0  0  0  0  0
    3.5840    0.9402    1.4785 C   0  0  0  1  0  0  0  0  0  0  0  0
    4.7593    0.0783    0.9374 C   0  0  0  1  0  0  0  0  0  0  0  0
    4.7925    0.2847   -0.5871 C   0  0  0  1  0  0  0  0  0  0  0  0
    4.1068    2.0556    2.3215 N   0  0  0  1  0  0  0  0  0  0  0  0
    0.9318   -2.0526   -1.6522 H   0  0  0  1  0  0  0  0  0  0  0  0
    0.8530    0.2620   -6.5152 H   0  0  0  1  0  0  0  0  0  0  0  0
   -1.3771   -3.4667   -6.0723 H   0  0  0  1  0  0  0  0  0  0  0  0
   -2.6611   -5.4618   -5.5654 H   0  0  0  1  0  0  0  0  0  0  0  0
   -1.6549   -5.0759   -1.5072 H   0  0  0  1  0  0  0  0  0  0  0  0
   -0.3732   -3.0840   -2.0132 H   0  0  0  1  0  0  0  0  0  0  0  0
   -4.1428   -6.5737   -4.9414 H   0  0  0  1  0  0  0  0  0  0  0  0
   -4.2149   -7.9936   -3.9258 H   0  0  0  1  0  0  0  0  0  0  0  0
   -2.7724   -7.6537   -4.8521 H   0  0  0  1  0  0  0  0  0  0  0  0
    3.6625    2.2411   -2.8370 H   0  0  0  1  0  0  0  0  0  0  0  0
    4.5754    2.4350   -0.7469 H   0  0  0  1  0  0  0  0  0  0  0  0
    2.0458    0.8650   -0.0801 H   0  0  0  1  0  0  0  0  0  0  0  0
    2.4552    2.4895    0.4174 H   0  0  0  1  0  0  0  0  0  0  0  0
    2.9180    0.3361    2.0585 H   0  0  0  1  0  0  0  0  0  0  0  0
    5.6826    0.3985    1.3731 H   0  0  0  1  0  0  0  0  0  0  0  0
    4.5955   -0.9541    1.1664 H   0  0  0  1  0  0  0  0  0  0  0  0
    5.8004    0.4124   -0.9229 H   0  0  0  1  0  0  0  0  0  0  0  0
    4.3538   -0.5545   -1.0853 H   0  0  0  1  0  0  0  0  0  0  0  0
    3.3560    2.5576    2.7021 H   0  0  0  1  0  0  0  0  0  0  0  0
    4.6529    2.6536    1.7696 H   0  0  0  1  0  0  0  0  0  0  0  0
  1  2  4  0  0  0  0
  1  6  4  0  0  0  0
  2  3  4  0  0  0  0
  2 18  1  0  0  0  0
  3  4  4  0  0  0  0
  4  5  4  0  0  0  0
  4  7  4  0  0  0  0
  5  6  4  0  0  0  0
  5  9  4  0  0  0  0
  6 25  1  0  0  0  0
  7  8  4  0  0  0  0
  7 26  1  0  0  0  0
  8  9  4  0  0  0  0
  9 10  1  0  0  0  0
 10 11  4  0  0  0  0
 10 15  4  0  0  0  0
 11 12  4  0  0  0  0
 11 27  1  0  0  0  0
 12 13  4  0  0  0  0
 12 28  1  0  0  0  0
 13 14  4  0  0  0  0
 13 16  1  0  0  0  0
 14 15  4  0  0  0  0
 14 29  1  0  0  0  0
 15 30  1  0  0  0  0
 16 17  1  0  0  0  0
 17 31  1  0  0  0  0
 17 32  1  0  0  0  0
 17 33  1  0  0  0  0
 18 19  1  0  0  0  0
 18 34  1  0  0  0  0
 19 20  1  0  0  0  0
 19 23  1  0  0  0  0
 19 35  1  0  0  0  0
 20 21  1  0  0  0  0
 20 36  1  0  0  0  0
 20 37  1  0  0  0  0
 21 22  1  0  0  0  0
 21 24  1  0  0  0  0
 21 38  1  0  0  0  0
 22 23  1  0  0  0  0
 22 39  1  0  0  0  0
 22 40  1  0  0  0  0
 23 41  1  0  0  0  0
 23 42  1  0  0  0  0
 24 43  1  0  0  0  0
 24 44  1  0  0  0  0
M  END
> <ConfClashScore>
0 

> <ConfOneFourInteractionScore>
-0.980204 

> <ConfScore>
0.0217969 

> <ConfScorePBest>
0.00223376 

> <ConfTolerance>
0.239967 

$$$$
c13.sdf
 OpenBabel04162418043D

 44 47  0  0  0  0  0  0  0  0999 V2000
    2.1079   -0.3773   -1.8532 N   0  0  0  1  0  0  0  0  0  0  0  0
    2.5363    0.5907   -2.6455 C   0  0  0  1  0  0  0  0  0  0  0  0
    2.1525    0.6996   -3.8968 N   0  0  0  1  0  0  0  0  0  0  0  0
    1.2986   -0.1838   -4.4201 C   0  0  0  1  0  0  0  0  0  0  0  0
    0.8204   -1.2305   -3.6033 C   0  0  0  1  0  0  0  0  0  0  0  0
    1.2615   -1.2960   -2.2850 C   0  0  0  1  0  0  0  0  0  0  0  0
    0.7018   -0.3513   -5.6889 C   0  0  0  1  0  0  0  0  0  0  0  0
   -0.0689   -1.4011   -5.6537 N   0  0  0  1  0  0  0  0  0  0  0  0
   -0.0256   -1.9781   -4.3778 N   0  0  0  1  0  0  0  0  0  0  0  0
   -0.9105   -3.0496   -4.0663 C   0  0  0  1  0  0  0  0  0  0  0  0
   -1.7980   -3.5120   -5.0195 C   0  0  0  1  0  0  0  0  0  0  0  0
   -2.6556   -4.5585   -4.7181 C   0  0  0  1  0  0  0  0  0  0  0  0
   -2.6267   -5.1360   -3.4628 C   0  0  0  1  0  0  0  0  0  0  0  0
   -1.7364   -4.6722   -2.5069 C   0  0  0  1  0  0  0  0  0  0  0  0
   -0.8814   -3.6287   -2.8073 C   0  0  0  1  0  0  0  0  0  0  0  0
   -3.4167   -6.1566   -3.0526 O   0  0  0  1  0  0  0  0  0  0  0  0
   -4.2987   -6.7362   -4.0267 C   0  0  0  1  0  0  0  0  0  0  0  0
    3.3977    1.4989   -2.1526 N   0  0  0  1  0  0  0  0  0  0  0  0
    4.0075    2.5639   -2.9522 C   0  0  0  1  0  0  0  0  0  0  0  0
    4.6342    1.9941   -4.2207 C   0  0  0  1  0  0  0  0  0  0  0  0
    4.2912    2.9483   -5.3712 C   0  0  0  1  0  0  0  0  0  0  0  0
    2.8405    3.4046   -4.9996 C   0  0  0  1  0  0  0  0  0  0  0  0
    2.9150    3.5633   -3.4697 C   0  0  0  1  0  0  0  0  0  0  0  0
    5.2280    4.1054   -5.4107 N   0  0  0  1  0  0  0  0  0  0  0  0
    0.9317   -2.0527   -1.6522 H   0  0  0  1  0  0  0  0  0  0  0  0
    0.8528    0.2620   -6.5152 H   0  0  0  1  0  0  0  0  0  0  0  0
   -1.8225   -3.0747   -5.9629 H   0  0  0  1  0  0  0  0  0  0  0  0
   -3.3207   -4.9090   -5.4367 H   0  0  0  1  0  0  0  0  0  0  0  0
   -1.7119   -5.1093   -1.5635 H   0  0  0  1  0  0  0  0  0  0  0  0
   -0.2162   -3.2781   -2.0889 H   0  0  0  1  0  0  0  0  0  0  0  0
   -4.9864   -5.9931   -4.3728 H   0  0  0  1  0  0  0  0  0  0  0  0
   -4.8409   -7.5437   -3.5809 H   0  0  0  1  0  0  0  0  0  0  0  0
   -3.7257   -7.1035   -4.8524 H   0  0  0  1  0  0  0  0  0  0  0  0
    3.6309    1.4447   -1.2024 H   0  0  0  1  0  0  0  0  0  0  0  0
    4.7408    3.0760   -2.3651 H   0  0  0  1  0  0  0  0  0  0  0  0
    4.2347    1.0218   -4.4208 H   0  0  0  1  0  0  0  0  0  0  0  0
    5.6959    1.9272   -4.1055 H   0  0  0  1  0  0  0  0  0  0  0  0
    4.3092    2.4419   -6.3137 H   0  0  0  1  0  0  0  0  0  0  0  0
    2.1205    2.6628   -5.2755 H   0  0  0  1  0  0  0  0  0  0  0  0
    2.5957    4.3330   -5.4718 H   0  0  0  1  0  0  0  0  0  0  0  0
    1.9675    3.3301   -3.0305 H   0  0  0  1  0  0  0  0  0  0  0  0
    3.1880    4.5668   -3.2183 H   0  0  0  1  0  0  0  0  0  0  0  0
    6.1316    3.7879   -5.6184 H   0  0  0  1  0  0  0  0  0  0  0  0
    5.2315    4.5524   -4.5385 H   0  0  0  1  0  0  0  0  0  0  0  0
  1  2  4  0  0  0  0
  1  6  4  0  0  0  0
  2  3  4  0  0  0  0
  2 18  1  0  0  0  0
  3  4  4  0  0  0  0
  4  5  4  0  0  0  0
  4  7  4  0  0  0  0
  5  6  4  0  0  0  0
  5  9  4  0  0  0  0
  6 25  1  0  0  0  0
  7  8  4  0  0  0  0
  7 26  1  0  0  0  0
  8  9  4  0  0  0  0
  9 10  1  0  0  0  0
 10 11  4  0  0  0  0
 10 15  4  0  0  0  0
 11 12  4  0  0  0  0
 11 27  1  0  0  0  0
 12 13  4  0  0  0  0
 12 28  1  0  0  0  0
 13 14  4  0  0  0  0
 13 16  1  0  0  0  0
 14 15  4  0  0  0  0
 14 29  1  0  0  0  0
 15 30  1  0  0  0  0
 16 17  1  0  0  0  0
 17 31  1  0  0  0  0
 17 32  1  0  0  0  0
 17 33  1  0  0  0  0
 18 19  1  0  0  0  0
 18 34  1  0  0  0  0
 19 20  1  0  0  0  0
 19 23  1  0  0  0  0
 19 35  1  0  0  0  0
 20 21  1  0  0  0  0
 20 36  1  0  0  0  0
 20 37  1  0  0  0  0
 21 22  1  0  0  0  0
 21 24  1  0  0  0  0
 21 38  1  0  0  0  0
 22 23  1  0  0  0  0
 22 39  1  0  0  0  0
 22 40  1  0  0  0  0
 23 41  1  0  0  0  0
 23 42  1  0  0  0  0
 24 43  1  0  0  0  0
 24 44  1  0  0  0  0
M  END
> <ConfClashScore>
0 

> <ConfOneFourInteractionScore>
-0.980204 

> <ConfScore>
0.0217969 

> <ConfScorePBest>
0.00222043 

> <ConfTolerance>
0.317946 

$$$$
c13.sdf
 OpenBabel04162418043D

 44 47  0  0  0  0  0  0  0  0999 V2000
    2.1079   -0.3774   -1.8532 N   0  0  0  1  0  0  0  0  0  0  0  0
    2.5363    0.5907   -2.6455 C   0  0  0  1  0  0  0  0  0  0  0  0
    2.1526    0.6996   -3.8968 N   0  0  0  1  0  0  0  0  0  0  0  0
    1.2986   -0.1837   -4.4201 C   0  0  0  1  0  0  0  0  0  0  0  0
    0.8204   -1.2304   -3.6033 C   0  0  0  1  0  0  0  0  0  0  0  0
    1.2615   -1.2959   -2.2850 C   0  0  0  1  0  0  0  0  0  0  0  0
    0.7020   -0.3512   -5.6890 C   0  0  0  1  0  0  0  0  0  0  0  0
   -0.0690   -1.4010   -5.6538 N   0  0  0  1  0  0  0  0  0  0  0  0
   -0.0256   -1.9781   -4.3778 N   0  0  0  1  0  0  0  0  0  0  0  0
   -0.8022   -3.1444   -4.1241 C   0  0  0  1  0  0  0  0  0  0  0  0
   -1.5882   -3.2735   -2.9945 C   0  0  0  1  0  0  0  0  0  0  0  0
   -2.4041   -4.3836   -2.8411 C   0  0  0  1  0  0  0  0  0  0  0  0
   -2.4275   -5.3641   -3.8150 C   0  0  0  1  0  0  0  0  0  0  0  0
   -1.6392   -5.2345   -4.9478 C   0  0  0  1  0  0  0  0  0  0  0  0
   -0.8256   -4.1276   -5.1009 C   0  0  0  1  0  0  0  0  0  0  0  0
   -3.2570   -6.4019   -3.5534 O   0  0  0  1  0  0  0  0  0  0  0  0
   -3.4065   -7.3970   -4.5781 C   0  0  0  1  0  0  0  0  0  0  0  0
    3.4009    1.5329   -2.2120 N   0  0  0  1  0  0  0  0  0  0  0  0
    3.8721    1.6340   -0.8299 C   0  0  0  1  0  0  0  0  0  0  0  0
    2.6716    1.8290    0.1571 C   0  0  0  1  0  0  0  0  0  0  0  0
    3.2457    1.3106    1.5187 C   0  0  0  1  0  0  0  0  0  0  0  0
    4.3424    0.2681    1.1616 C   0  0  0  1  0  0  0  0  0  0  0  0
    4.5093    0.3094   -0.3676 C   0  0  0  1  0  0  0  0  0  0  0  0
    3.8405    2.4425    2.2939 N   0  0  0  1  0  0  0  0  0  0  0  0
    0.9316   -2.0527   -1.6522 H   0  0  0  1  0  0  0  0  0  0  0  0
    0.8529    0.2620   -6.5152 H   0  0  0  1  0  0  0  0  0  0  0  0
   -1.5675   -2.5377   -2.2598 H   0  0  0  1  0  0  0  0  0  0  0  0
   -2.9985   -4.4788   -1.9931 H   0  0  0  1  0  0  0  0  0  0  0  0
   -1.6598   -5.9702   -5.6826 H   0  0  0  1  0  0  0  0  0  0  0  0
   -0.2311   -4.0325   -5.9490 H   0  0  0  1  0  0  0  0  0  0  0  0
   -3.5908   -6.9180   -5.5170 H   0  0  0  1  0  0  0  0  0  0  0  0
   -4.2297   -8.0365   -4.3366 H   0  0  0  1  0  0  0  0  0  0  0  0
   -2.5103   -7.9779   -4.6442 H   0  0  0  1  0  0  0  0  0  0  0  0
    3.7327    2.1877   -2.8612 H   0  0  0  1  0  0  0  0  0  0  0  0
    4.5687    2.4420   -0.7483 H   0  0  0  1  0  0  0  0  0  0  0  0
    2.3935    2.8601    0.2250 H   0  0  0  1  0  0  0  0  0  0  0  0
    1.8251    1.2501   -0.1482 H   0  0  0  1  0  0  0  0  0  0  0  0
    2.4711    0.8505    2.0958 H   0  0  0  1  0  0  0  0  0  0  0  0
    4.0376   -0.7092    1.4731 H   0  0  0  1  0  0  0  0  0  0  0  0
    5.2645    0.5241    1.6403 H   0  0  0  1  0  0  0  0  0  0  0  0
    4.0077   -0.5213   -0.8186 H   0  0  0  1  0  0  0  0  0  0  0  0
    5.5465    0.2851   -0.6288 H   0  0  0  1  0  0  0  0  0  0  0  0
    3.2029    3.1860    2.3286 H   0  0  0  1  0  0  0  0  0  0  0  0
    4.6653    2.7400    1.8563 H   0  0  0  1  0  0  0  0  0  0  0  0
  1  2  4  0  0  0  0
  1  6  4  0  0  0  0
  2  3  4  0  0  0  0
  2 18  1  0  0  0  0
  3  4  4  0  0  0  0
  4  5  4  0  0  0  0
  4  7  4  0  0  0  0
  5  6  4  0  0  0  0
  5  9  4  0  0  0  0
  6 25  1  0  0  0  0
  7  8  4  0  0  0  0
  7 26  1  0  0  0  0
  8  9  4  0  0  0  0
  9 10  1  0  0  0  0
 10 11  4  0  0  0  0
 10 15  4  0  0  0  0
 11 12  4  0  0  0  0
 11 27  1  0  0  0  0
 12 13  4  0  0  0  0
 12 28  1  0  0  0  0
 13 14  4  0  0  0  0
 13 16  1  0  0  0  0
 14 15  4  0  0  0  0
 14 29  1  0  0  0  0
 15 30  1  0  0  0  0
 16 17  1  0  0  0  0
 17 31  1  0  0  0  0
 17 32  1  0  0  0  0
 17 33  1  0  0  0  0
 18 19  1  0  0  0  0
 18 34  1  0  0  0  0
 19 20  1  0  0  0  0
 19 23  1  0  0  0  0
 19 35  1  0  0  0  0
 20 21  1  0  0  0  0
 20 36  1  0  0  0  0
 20 37  1  0  0  0  0
 21 22  1  0  0  0  0
 21 24  1  0  0  0  0
 21 38  1  0  0  0  0
 22 23  1  0  0  0  0
 22 39  1  0  0  0  0
 22 40  1  0  0  0  0
 23 41  1  0  0  0  0
 23 42  1  0  0  0  0
 24 43  1  0  0  0  0
 24 44  1  0  0  0  0
M  END
> <ConfClashScore>
0 

> <ConfOneFourInteractionScore>
-0.980204 

> <ConfScore>
0.0221769 

> <ConfScorePBest>
0.0022071 

> <ConfTolerance>
0.249827 

$$$$
c13.sdf
 OpenBabel04162418043D

 44 47  0  0  0  0  0  0  0  0999 V2000
    2.1079   -0.3773   -1.8533 N   0  0  0  1  0  0  0  0  0  0  0  0
    2.5364    0.5908   -2.6455 C   0  0  0  1  0  0  0  0  0  0  0  0
    2.1526    0.6995   -3.8968 N   0  0  0  1  0  0  0  0  0  0  0  0
    1.2985   -0.1838   -4.4201 C   0  0  0  1  0  0  0  0  0  0  0  0
    0.8205   -1.2304   -3.6034 C   0  0  0  1  0  0  0  0  0  0  0  0
    1.2615   -1.2960   -2.2849 C   0  0  0  1  0  0  0  0  0  0  0  0
    0.7020   -0.3513   -5.6890 C   0  0  0  1  0  0  0  0  0  0  0  0
   -0.0689   -1.4009   -5.6538 N   0  0  0  1  0  0  0  0  0  0  0  0
   -0.0256   -1.9781   -4.3778 N   0  0  0  1  0  0  0  0  0  0  0  0
   -0.8007   -3.1421   -4.1246 C   0  0  0  1  0  0  0  0  0  0  0  0
   -0.1846   -4.3056   -3.7040 C   0  0  0  1  0  0  0  0  0  0  0  0
   -0.9286   -5.4639   -3.5415 C   0  0  0  1  0  0  0  0  0  0  0  0
   -2.2853   -5.4567   -3.8050 C   0  0  0  1  0  0  0  0  0  0  0  0
   -2.9030   -4.2896   -4.2270 C   0  0  0  1  0  0  0  0  0  0  0  0
   -2.1614   -3.1346   -4.3890 C   0  0  0  1  0  0  0  0  0  0  0  0
   -2.9050   -6.6459   -3.6162 O   0  0  0  1  0  0  0  0  0  0  0  0
   -4.2776   -6.7432   -4.0275 C   0  0  0  1  0  0  0  0  0  0  0  0
    3.3977    1.4989   -2.1526 N   0  0  0  1  0  0  0  0  0  0  0  0
    3.9772    1.5768   -0.8176 C   0  0  0  1  0  0  0  0  0  0  0  0
    2.9059    1.4797    0.2559 C   0  0  0  1  0  0  0  0  0  0  0  0
    3.6591    1.0224    1.5097 C   0  0  0  1  0  0  0  0  0  0  0  0
    4.9197    0.3012    1.0144 C   0  0  0  1  0  0  0  0  0  0  0  0
    4.8435    0.3495   -0.5142 C   0  0  0  1  0  0  0  0  0  0  0  0
    4.0334    2.2026    2.3481 N   0  0  0  1  0  0  0  0  0  0  0  0
    0.9316   -2.0526   -1.6522 H   0  0  0  1  0  0  0  0  0  0  0  0
    0.8530    0.2620   -6.5152 H   0  0  0  1  0  0  0  0  0  0  0  0
    0.8370   -4.3121   -3.5094 H   0  0  0  1  0  0  0  0  0  0  0  0
   -0.4657   -6.3384   -3.2211 H   0  0  0  1  0  0  0  0  0  0  0  0
   -3.9247   -4.2831   -4.4215 H   0  0  0  1  0  0  0  0  0  0  0  0
   -2.6242   -2.2601   -4.7093 H   0  0  0  1  0  0  0  0  0  0  0  0
   -4.8587   -6.0095   -3.5089 H   0  0  0  1  0  0  0  0  0  0  0  0
   -4.6499   -7.7198   -3.7983 H   0  0  0  1  0  0  0  0  0  0  0  0
   -4.3468   -6.5728   -5.0815 H   0  0  0  1  0  0  0  0  0  0  0  0
    3.6727    2.2036   -2.7756 H   0  0  0  1  0  0  0  0  0  0  0  0
    4.5397    2.4823   -0.7249 H   0  0  0  1  0  0  0  0  0  0  0  0
    2.1593    0.7641   -0.0186 H   0  0  0  1  0  0  0  0  0  0  0  0
    2.4455    2.4319    0.4178 H   0  0  0  1  0  0  0  0  0  0  0  0
    3.0515    0.3546    2.0839 H   0  0  0  1  0  0  0  0  0  0  0  0
    5.7986    0.8035    1.3610 H   0  0  0  1  0  0  0  0  0  0  0  0
    4.9294   -0.7125    1.3565 H   0  0  0  1  0  0  0  0  0  0  0  0
    4.3875   -0.5392   -0.8980 H   0  0  0  1  0  0  0  0  0  0  0  0
    5.8196    0.4617   -0.9379 H   0  0  0  1  0  0  0  0  0  0  0  0
    4.5113    2.8570    1.7970 H   0  0  0  1  0  0  0  0  0  0  0  0
    4.6118    1.9104    3.0833 H   0  0  0  1  0  0  0  0  0  0  0  0
  1  2  4  0  0  0  0
  1  6  4  0  0  0  0
  2  3  4  0  0  0  0
  2 18  1  0  0  0  0
  3  4  4  0  0  0  0
  4  5  4  0  0  0  0
  4  7  4  0  0  0  0
  5  6  4  0  0  0  0
  5  9  4  0  0  0  0
  6 25  1  0  0  0  0
  7  8  4  0  0  0  0
  7 26  1  0  0  0  0
  8  9  4  0  0  0  0
  9 10  1  0  0  0  0
 10 11  4  0  0  0  0
 10 15  4  0  0  0  0
 11 12  4  0  0  0  0
 11 27  1  0  0  0  0
 12 13  4  0  0  0  0
 12 28  1  0  0  0  0
 13 14  4  0  0  0  0
 13 16  1  0  0  0  0
 14 15  4  0  0  0  0
 14 29  1  0  0  0  0
 15 30  1  0  0  0  0
 16 17  1  0  0  0  0
 17 31  1  0  0  0  0
 17 32  1  0  0  0  0
 17 33  1  0  0  0  0
 18 19  1  0  0  0  0
 18 34  1  0  0  0  0
 19 20  1  0  0  0  0
 19 23  1  0  0  0  0
 19 35  1  0  0  0  0
 20 21  1  0  0  0  0
 20 36  1  0  0  0  0
 20 37  1  0  0  0  0
 21 22  1  0  0  0  0
 21 24  1  0  0  0  0
 21 38  1  0  0  0  0
 22 23  1  0  0  0  0
 22 39  1  0  0  0  0
 22 40  1  0  0  0  0
 23 41  1  0  0  0  0
 23 42  1  0  0  0  0
 24 43  1  0  0  0  0
 24 44  1  0  0  0  0
M  END
> <ConfClashScore>
0 

> <ConfOneFourInteractionScore>
-0.982693 

> <ConfScore>
0.0231122 

> <ConfScorePBest>
0.00219377 

> <ConfTolerance>
0.384622 

$$$$
c13.sdf
 OpenBabel04162418043D

 44 47  0  0  0  0  0  0  0  0999 V2000
    2.1080   -0.3774   -1.8532 N   0  0  0  1  0  0  0  0  0  0  0  0
    2.5364    0.5907   -2.6454 C   0  0  0  1  0  0  0  0  0  0  0  0
    2.1525    0.6996   -3.8968 N   0  0  0  1  0  0  0  0  0  0  0  0
    1.2985   -0.1837   -4.4201 C   0  0  0  1  0  0  0  0  0  0  0  0
    0.8204   -1.2305   -3.6033 C   0  0  0  1  0  0  0  0  0  0  0  0
    1.2614   -1.2961   -2.2849 C   0  0  0  1  0  0  0  0  0  0  0  0
    0.7019   -0.3512   -5.6889 C   0  0  0  1  0  0  0  0  0  0  0  0
   -0.0690   -1.4010   -5.6537 N   0  0  0  1  0  0  0  0  0  0  0  0
   -0.0256   -1.9781   -4.3778 N   0  0  0  1  0  0  0  0  0  0  0  0
   -0.7857   -3.1447   -4.0792 C   0  0  0  1  0  0  0  0  0  0  0  0
   -1.7291   -3.1150   -3.0696 C   0  0  0  1  0  0  0  0  0  0  0  0
   -2.4727   -4.2491   -2.7825 C   0  0  0  1  0  0  0  0  0  0  0  0
   -2.2671   -5.4110   -3.5021 C   0  0  0  1  0  0  0  0  0  0  0  0
   -1.3208   -5.4406   -4.5147 C   0  0  0  1  0  0  0  0  0  0  0  0
   -0.5793   -4.3099   -4.8011 C   0  0  0  1  0  0  0  0  0  0  0  0
   -2.9268   -6.5778   -3.3096 O   0  0  0  1  0  0  0  0  0  0  0  0
   -4.0305   -6.5638   -2.3908 C   0  0  0  1  0  0  0  0  0  0  0  0
    3.4219    1.5244   -2.1387 N   0  0  0  1  0  0  0  0  0  0  0  0
    3.7251    1.4743   -0.7018 C   0  0  0  1  0  0  0  0  0  0  0  0
    4.4988    0.2160   -0.3443 C   0  0  0  1  0  0  0  0  0  0  0  0
    5.1983    0.5574    0.9757 C   0  0  0  1  0  0  0  0  0  0  0  0
    5.3257    2.0863    1.0115 C   0  0  0  1  0  0  0  0  0  0  0  0
    4.7104    2.5778   -0.3017 C   0  0  0  1  0  0  0  0  0  0  0  0
    4.3819    0.0786    2.1333 N   0  0  0  1  0  0  0  0  0  0  0  0
    0.9317   -2.0526   -1.6522 H   0  0  0  1  0  0  0  0  0  0  0  0
    0.8529    0.2621   -6.5152 H   0  0  0  1  0  0  0  0  0  0  0  0
   -1.8811   -2.2419   -2.5253 H   0  0  0  1  0  0  0  0  0  0  0  0
   -3.1854   -4.2256   -2.0255 H   0  0  0  1  0  0  0  0  0  0  0  0
   -1.1688   -6.3137   -5.0590 H   0  0  0  1  0  0  0  0  0  0  0  0
    0.1334   -4.3334   -5.5581 H   0  0  0  1  0  0  0  0  0  0  0  0
   -3.7757   -7.1274   -1.5178 H   0  0  0  1  0  0  0  0  0  0  0  0
   -4.8889   -6.9992   -2.8582 H   0  0  0  1  0  0  0  0  0  0  0  0
   -4.2492   -5.5542   -2.1120 H   0  0  0  1  0  0  0  0  0  0  0  0
    3.8340    2.1979   -2.7193 H   0  0  0  1  0  0  0  0  0  0  0  0
    2.8156    1.5435   -0.1423 H   0  0  0  1  0  0  0  0  0  0  0  0
    5.2165   -0.0151   -1.1036 H   0  0  0  1  0  0  0  0  0  0  0  0
    3.8344   -0.6130   -0.2166 H   0  0  0  1  0  0  0  0  0  0  0  0
    6.1669    0.1040    1.0099 H   0  0  0  1  0  0  0  0  0  0  0  0
    4.7915    2.4866    1.8476 H   0  0  0  1  0  0  0  0  0  0  0  0
    6.3542    2.3746    1.0735 H   0  0  0  1  0  0  0  0  0  0  0  0
    5.4652    2.7001   -1.0503 H   0  0  0  1  0  0  0  0  0  0  0  0
    4.1990    3.5062   -0.1553 H   0  0  0  1  0  0  0  0  0  0  0  0
    4.3913   -0.9010    2.1573 H   0  0  0  1  0  0  0  0  0  0  0  0
    3.4593    0.3938    2.0346 H   0  0  0  1  0  0  0  0  0  0  0  0
  1  2  4  0  0  0  0
  1  6  4  0  0  0  0
  2  3  4  0  0  0  0
  2 18  1  0  0  0  0
  3  4  4  0  0  0  0
  4  5  4  0  0  0  0
  4  7  4  0  0  0  0
  5  6  4  0  0  0  0
  5  9  4  0  0  0  0
  6 25  1  0  0  0  0
  7  8  4  0  0  0  0
  7 26  1  0  0  0  0
  8  9  4  0  0  0  0
  9 10  1  0  0  0  0
 10 11  4  0  0  0  0
 10 15  4  0  0  0  0
 11 12  4  0  0  0  0
 11 27  1  0  0  0  0
 12 13  4  0  0  0  0
 12 28  1  0  0  0  0
 13 14  4  0  0  0  0
 13 16  1  0  0  0  0
 14 15  4  0  0  0  0
 14 29  1  0  0  0  0
 15 30  1  0  0  0  0
 16 17  1  0  0  0  0
 17 31  1  0  0  0  0
 17 32  1  0  0  0  0
 17 33  1  0  0  0  0
 18 19  1  0  0  0  0
 18 34  1  0  0  0  0
 19 20  1  0  0  0  0
 19 23  1  0  0  0  0
 19 35  1  0  0  0  0
 20 21  1  0  0  0  0
 20 36  1  0  0  0  0
 20 37  1  0  0  0  0
 21 22  1  0  0  0  0
 21 24  1  0  0  0  0
 21 38  1  0  0  0  0
 22 23  1  0  0  0  0
 22 39  1  0  0  0  0
 22 40  1  0  0  0  0
 23 41  1  0  0  0  0
 23 42  1  0  0  0  0
 24 43  1  0  0  0  0
 24 44  1  0  0  0  0
M  END
> <ConfClashScore>
0 

> <ConfOneFourInteractionScore>
-0.981848 

> <ConfScore>
0.0239961 

> <ConfScorePBest>
0.00218045 

> <ConfTolerance>
0.397213 

$$$$
c13.sdf
 OpenBabel04162418043D

 44 47  0  0  0  0  0  0  0  0999 V2000
    2.1079   -0.3774   -1.8532 N   0  0  0  1  0  0  0  0  0  0  0  0
    2.5363    0.5907   -2.6455 C   0  0  0  1  0  0  0  0  0  0  0  0
    2.1526    0.6996   -3.8968 N   0  0  0  1  0  0  0  0  0  0  0  0
    1.2985   -0.1837   -4.4202 C   0  0  0  1  0  0  0  0  0  0  0  0
    0.8205   -1.2305   -3.6033 C   0  0  0  1  0  0  0  0  0  0  0  0
    1.2615   -1.2960   -2.2849 C   0  0  0  1  0  0  0  0  0  0  0  0
    0.7019   -0.3512   -5.6890 C   0  0  0  1  0  0  0  0  0  0  0  0
   -0.0689   -1.4009   -5.6538 N   0  0  0  1  0  0  0  0  0  0  0  0
   -0.0256   -1.9781   -4.3778 N   0  0  0  1  0  0  0  0  0  0  0  0
   -0.7584   -3.1315   -4.0322 C   0  0  0  1  0  0  0  0  0  0  0  0
   -1.1373   -4.0758   -4.9676 C   0  0  0  1  0  0  0  0  0  0  0  0
   -1.8529   -5.1950   -4.5717 C   0  0  0  1  0  0  0  0  0  0  0  0
   -2.1922   -5.3641   -3.2425 C   0  0  0  1  0  0  0  0  0  0  0  0
   -1.8119   -4.4169   -2.3045 C   0  0  0  1  0  0  0  0  0  0  0  0
   -1.0985   -3.3010   -2.6990 C   0  0  0  1  0  0  0  0  0  0  0  0
   -2.8930   -6.5014   -3.0211 O   0  0  0  1  0  0  0  0  0  0  0  0
   -3.2501   -6.7982   -1.6621 C   0  0  0  1  0  0  0  0  0  0  0  0
    3.4204    1.4993   -2.0924 N   0  0  0  1  0  0  0  0  0  0  0  0
    3.8023    1.3164   -0.6885 C   0  0  0  1  0  0  0  0  0  0  0  0
    4.4495   -0.0590   -0.4828 C   0  0  0  1  0  0  0  0  0  0  0  0
    5.8118    0.1939    0.1671 C   0  0  0  1  0  0  0  0  0  0  0  0
    5.7361    1.6082    0.7476 C   0  0  0  1  0  0  0  0  0  0  0  0
    4.8765    2.3335   -0.2878 C   0  0  0  1  0  0  0  0  0  0  0  0
    6.0671   -0.8122    1.2633 N   0  0  0  1  0  0  0  0  0  0  0  0
    0.9317   -2.0527   -1.6523 H   0  0  0  1  0  0  0  0  0  0  0  0
    0.8529    0.2621   -6.5151 H   0  0  0  1  0  0  0  0  0  0  0  0
   -0.8856   -3.9465   -5.9683 H   0  0  0  1  0  0  0  0  0  0  0  0
   -2.1346   -5.9075   -5.2749 H   0  0  0  1  0  0  0  0  0  0  0  0
   -2.0637   -4.5461   -1.3037 H   0  0  0  1  0  0  0  0  0  0  0  0
   -0.8167   -2.5883   -1.9958 H   0  0  0  1  0  0  0  0  0  0  0  0
   -3.8795   -6.0217   -1.2805 H   0  0  0  1  0  0  0  0  0  0  0  0
   -2.3634   -6.8632   -1.0667 H   0  0  0  1  0  0  0  0  0  0  0  0
   -3.7733   -7.7308   -1.6266 H   0  0  0  1  0  0  0  0  0  0  0  0
    3.7801    2.2415   -2.6219 H   0  0  0  1  0  0  0  0  0  0  0  0
    2.9378    1.4202   -0.0666 H   0  0  0  1  0  0  0  0  0  0  0  0
    3.8405   -0.6618    0.1581 H   0  0  0  1  0  0  0  0  0  0  0  0
    4.5750   -0.5526   -1.4239 H   0  0  0  1  0  0  0  0  0  0  0  0
    6.5912    0.1316   -0.5634 H   0  0  0  1  0  0  0  0  0  0  0  0
    5.2678    1.6084    1.7097 H   0  0  0  1  0  0  0  0  0  0  0  0
    6.7079    2.0493    0.8232 H   0  0  0  1  0  0  0  0  0  0  0  0
    4.4283    3.2061    0.1395 H   0  0  0  1  0  0  0  0  0  0  0  0
    5.4652    2.6136   -1.1364 H   0  0  0  1  0  0  0  0  0  0  0  0
    5.3355   -0.7793    1.9144 H   0  0  0  1  0  0  0  0  0  0  0  0
    6.9125   -0.5996    1.7112 H   0  0  0  1  0  0  0  0  0  0  0  0
  1  2  4  0  0  0  0
  1  6  4  0  0  0  0
  2  3  4  0  0  0  0
  2 18  1  0  0  0  0
  3  4  4  0  0  0  0
  4  5  4  0  0  0  0
  4  7  4  0  0  0  0
  5  6  4  0  0  0  0
  5  9  4  0  0  0  0
  6 25  1  0  0  0  0
  7  8  4  0  0  0  0
  7 26  1  0  0  0  0
  8  9  4  0  0  0  0
  9 10  1  0  0  0  0
 10 11  4  0  0  0  0
 10 15  4  0  0  0  0
 11 12  4  0  0  0  0
 11 27  1  0  0  0  0
 12 13  4  0  0  0  0
 12 28  1  0  0  0  0
 13 14  4  0  0  0  0
 13 16  1  0  0  0  0
 14 15  4  0  0  0  0
 14 29  1  0  0  0  0
 15 30  1  0  0  0  0
 16 17  1  0  0  0  0
 17 31  1  0  0  0  0
 17 32  1  0  0  0  0
 17 33  1  0  0  0  0
 18 19  1  0  0  0  0
 18 34  1  0  0  0  0
 19 20  1  0  0  0  0
 19 23  1  0  0  0  0
 19 35  1  0  0  0  0
 20 21  1  0  0  0  0
 20 36  1  0  0  0  0
 20 37  1  0  0  0  0
 21 22  1  0  0  0  0
 21 24  1  0  0  0  0
 21 38  1  0  0  0  0
 22 23  1  0  0  0  0
 22 39  1  0  0  0  0
 22 40  1  0  0  0  0
 23 41  1  0  0  0  0
 23 42  1  0  0  0  0
 24 43  1  0  0  0  0
 24 44  1  0  0  0  0
M  END
> <ConfClashScore>
0 

> <ConfOneFourInteractionScore>
-0.981848 

> <ConfScore>
0.0242488 

> <ConfScorePBest>
0.00216712 

> <ConfTolerance>
0.51295 

$$$$
c13.sdf
 OpenBabel04162418043D

 44 47  0  0  0  0  0  0  0  0999 V2000
    2.1079   -0.3773   -1.8532 N   0  0  0  1  0  0  0  0  0  0  0  0
    2.5364    0.5907   -2.6455 C   0  0  0  1  0  0  0  0  0  0  0  0
    2.1526    0.6995   -3.8969 N   0  0  0  1  0  0  0  0  0  0  0  0
    1.2985   -0.1837   -4.4201 C   0  0  0  1  0  0  0  0  0  0  0  0
    0.8204   -1.2304   -3.6033 C   0  0  0  1  0  0  0  0  0  0  0  0
    1.2614   -1.2959   -2.2850 C   0  0  0  1  0  0  0  0  0  0  0  0
    0.7020   -0.3513   -5.6890 C   0  0  0  1  0  0  0  0  0  0  0  0
   -0.0689   -1.4010   -5.6538 N   0  0  0  1  0  0  0  0  0  0  0  0
   -0.0256   -1.9781   -4.3778 N   0  0  0  1  0  0  0  0  0  0  0  0
   -0.7858   -3.1447   -4.0791 C   0  0  0  1  0  0  0  0  0  0  0  0
   -2.1557   -3.1422   -4.2617 C   0  0  0  1  0  0  0  0  0  0  0  0
   -2.8949   -4.2795   -3.9760 C   0  0  0  1  0  0  0  0  0  0  0  0
   -2.2628   -5.4142   -3.5035 C   0  0  0  1  0  0  0  0  0  0  0  0
   -0.8886   -5.4165   -3.3204 C   0  0  0  1  0  0  0  0  0  0  0  0
   -0.1515   -4.2826   -3.6053 C   0  0  0  1  0  0  0  0  0  0  0  0
   -2.9745   -6.5502   -3.3113 O   0  0  0  1  0  0  0  0  0  0  0  0
   -2.2342   -7.7500   -3.0377 C   0  0  0  1  0  0  0  0  0  0  0  0
    3.4203    1.4992   -2.0926 N   0  0  0  1  0  0  0  0  0  0  0  0
    3.9939    2.5504   -2.9213 C   0  0  0  1  0  0  0  0  0  0  0  0
    4.7121    1.9653   -4.1345 C   0  0  0  1  0  0  0  0  0  0  0  0
    4.7578    3.0850   -5.1595 C   0  0  0  1  0  0  0  0  0  0  0  0
    3.4317    3.8277   -4.9273 C   0  0  0  1  0  0  0  0  0  0  0  0
    2.8924    3.4125   -3.5675 C   0  0  0  1  0  0  0  0  0  0  0  0
    5.9146    3.9770   -4.9198 N   0  0  0  1  0  0  0  0  0  0  0  0
    0.9316   -2.0525   -1.6521 H   0  0  0  1  0  0  0  0  0  0  0  0
    0.8531    0.2620   -6.5152 H   0  0  0  1  0  0  0  0  0  0  0  0
   -2.6320   -2.2872   -4.6134 H   0  0  0  1  0  0  0  0  0  0  0  0
   -3.9252   -4.2790   -4.1172 H   0  0  0  1  0  0  0  0  0  0  0  0
   -0.4124   -6.2715   -2.9687 H   0  0  0  1  0  0  0  0  0  0  0  0
    0.8788   -4.2830   -3.4640 H   0  0  0  1  0  0  0  0  0  0  0  0
   -1.5484   -7.9367   -3.8375 H   0  0  0  1  0  0  0  0  0  0  0  0
   -2.9111   -8.5739   -2.9489 H   0  0  0  1  0  0  0  0  0  0  0  0
   -1.6917   -7.6332   -2.1229 H   0  0  0  1  0  0  0  0  0  0  0  0
    3.6603    1.4358   -1.1446 H   0  0  0  1  0  0  0  0  0  0  0  0
    4.6564    3.1486   -2.3316 H   0  0  0  1  0  0  0  0  0  0  0  0
    5.7029    1.6598   -3.8705 H   0  0  0  1  0  0  0  0  0  0  0  0
    4.1707    1.1271   -4.5208 H   0  0  0  1  0  0  0  0  0  0  0  0
    4.8089    2.6930   -6.1538 H   0  0  0  1  0  0  0  0  0  0  0  0
    3.5996    4.8843   -4.9439 H   0  0  0  1  0  0  0  0  0  0  0  0
    2.7302    3.5655   -5.6915 H   0  0  0  1  0  0  0  0  0  0  0  0
    1.9936    2.8433   -3.6818 H   0  0  0  1  0  0  0  0  0  0  0  0
    2.6948    4.2752   -2.9664 H   0  0  0  1  0  0  0  0  0  0  0  0
    5.8701    4.3323   -4.0076 H   0  0  0  1  0  0  0  0  0  0  0  0
    5.8933    4.7184   -5.5603 H   0  0  0  1  0  0  0  0  0  0  0  0
  1  2  4  0  0  0  0
  1  6  4  0  0  0  0
  2  3  4  0  0  0  0
  2 18  1  0  0  0  0
  3  4  4  0  0  0  0
  4  5  4  0  0  0  0
  4  7  4  0  0  0  0
  5  6  4  0  0  0  0
  5  9  4  0  0  0  0
  6 25  1  0  0  0  0
  7  8  4  0  0  0  0
  7 26  1  0  0  0  0
  8  9  4  0  0  0  0
  9 10  1  0  0  0  0
 10 11  4  0  0  0  0
 10 15  4  0  0  0  0
 11 12  4  0  0  0  0
 11 27  1  0  0  0  0
 12 13  4  0  0  0  0
 12 28  1  0  0  0  0
 13 14  4  0  0  0  0
 13 16  1  0  0  0  0
 14 15  4  0  0  0  0
 14 29  1  0  0  0  0
 15 30  1  0  0  0  0
 16 17  1  0  0  0  0
 17 31  1  0  0  0  0
 17 32  1  0  0  0  0
 17 33  1  0  0  0  0
 18 19  1  0  0  0  0
 18 34  1  0  0  0  0
 19 20  1  0  0  0  0
 19 23  1  0  0  0  0
 19 35  1  0  0  0  0
 20 21  1  0  0  0  0
 20 36  1  0  0  0  0
 20 37  1  0  0  0  0
 21 22  1  0  0  0  0
 21 24  1  0  0  0  0
 21 38  1  0  0  0  0
 22 23  1  0  0  0  0
 22 39  1  0  0  0  0
 22 40  1  0  0  0  0
 23 41  1  0  0  0  0
 23 42  1  0  0  0  0
 24 43  1  0  0  0  0
 24 44  1  0  0  0  0
M  END
> <ConfClashScore>
0.000108917 

> <ConfOneFourInteractionScore>
-0.980204 

> <ConfScore>
0.025908 

> <ConfScorePBest>
0.00215379 

> <ConfTolerance>
0.289098 

$$$$
c13.sdf
 OpenBabel04162418043D

 44 47  0  0  0  0  0  0  0  0999 V2000
    2.1079   -0.3774   -1.8533 N   0  0  0  1  0  0  0  0  0  0  0  0
    2.5364    0.5907   -2.6455 C   0  0  0  1  0  0  0  0  0  0  0  0
    2.1526    0.6996   -3.8969 N   0  0  0  1  0  0  0  0  0  0  0  0
    1.2985   -0.1838   -4.4201 C   0  0  0  1  0  0  0  0  0  0  0  0
    0.8204   -1.2304   -3.6033 C   0  0  0  1  0  0  0  0  0  0  0  0
    1.2615   -1.2960   -2.2849 C   0  0  0  1  0  0  0  0  0  0  0  0
    0.7019   -0.3513   -5.6890 C   0  0  0  1  0  0  0  0  0  0  0  0
   -0.0690   -1.4010   -5.6538 N   0  0  0  1  0  0  0  0  0  0  0  0
   -0.0256   -1.9781   -4.3778 N   0  0  0  1  0  0  0  0  0  0  0  0
   -0.6821   -3.2116   -4.1579 C   0  0  0  1  0  0  0  0  0  0  0  0
   -0.0062   -4.2563   -3.5564 C   0  0  0  1  0  0  0  0  0  0  0  0
   -0.6512   -5.4633   -3.3360 C   0  0  0  1  0  0  0  0  0  0  0  0
   -1.9684   -5.6239   -3.7227 C   0  0  0  1  0  0  0  0  0  0  0  0
   -2.6461   -4.5759   -4.3261 C   0  0  0  1  0  0  0  0  0  0  0  0
   -2.0031   -3.3724   -4.5458 C   0  0  0  1  0  0  0  0  0  0  0  0
   -2.6982   -6.7537   -3.5647 O   0  0  0  1  0  0  0  0  0  0  0  0
   -1.9953   -7.9368   -3.1541 C   0  0  0  1  0  0  0  0  0  0  0  0
    3.3977    1.4988   -2.1527 N   0  0  0  1  0  0  0  0  0  0  0  0
    3.9517    2.6059   -2.9338 C   0  0  0  1  0  0  0  0  0  0  0  0
    4.7674    2.0730   -4.1013 C   0  0  0  1  0  0  0  0  0  0  0  0
    4.2323    2.7201   -5.3892 C   0  0  0  1  0  0  0  0  0  0  0  0
    3.4321    3.9043   -4.8755 C   0  0  0  1  0  0  0  0  0  0  0  0
    2.8176    3.4417   -3.5572 C   0  0  0  1  0  0  0  0  0  0  0  0
    5.3435    3.1678   -6.2597 N   0  0  0  1  0  0  0  0  0  0  0  0
    0.9317   -2.0527   -1.6522 H   0  0  0  1  0  0  0  0  0  0  0  0
    0.8529    0.2620   -6.5152 H   0  0  0  1  0  0  0  0  0  0  0  0
    0.9862   -4.1368   -3.2690 H   0  0  0  1  0  0  0  0  0  0  0  0
   -0.1439   -6.2482   -2.8797 H   0  0  0  1  0  0  0  0  0  0  0  0
   -3.6385   -4.6953   -4.6134 H   0  0  0  1  0  0  0  0  0  0  0  0
   -2.5104   -2.5874   -5.0021 H   0  0  0  1  0  0  0  0  0  0  0  0
   -1.1703   -8.1090   -3.8133 H   0  0  0  1  0  0  0  0  0  0  0  0
   -2.6592   -8.7753   -3.1875 H   0  0  0  1  0  0  0  0  0  0  0  0
   -1.6329   -7.8077   -2.1557 H   0  0  0  1  0  0  0  0  0  0  0  0
    3.6704    1.4142   -1.2152 H   0  0  0  1  0  0  0  0  0  0  0  0
    4.5615    3.2182   -2.3027 H   0  0  0  1  0  0  0  0  0  0  0  0
    5.7985    2.3260   -3.9691 H   0  0  0  1  0  0  0  0  0  0  0  0
    4.6653    1.0095   -4.1599 H   0  0  0  1  0  0  0  0  0  0  0  0
    3.6073    2.0400   -5.9292 H   0  0  0  1  0  0  0  0  0  0  0  0
    2.6648    4.1677   -5.5733 H   0  0  0  1  0  0  0  0  0  0  0  0
    4.0724    4.7462   -4.7142 H   0  0  0  1  0  0  0  0  0  0  0  0
    1.9457    2.8449   -3.7258 H   0  0  0  1  0  0  0  0  0  0  0  0
    2.5651    4.2751   -2.9353 H   0  0  0  1  0  0  0  0  0  0  0  0
    5.9737    3.7049   -5.7355 H   0  0  0  1  0  0  0  0  0  0  0  0
    4.9853    3.7090   -6.9940 H   0  0  0  1  0  0  0  0  0  0  0  0
  1  2  4  0  0  0  0
  1  6  4  0  0  0  0
  2  3  4  0  0  0  0
  2 18  1  0  0  0  0
  3  4  4  0  0  0  0
  4  5  4  0  0  0  0
  4  7  4  0  0  0  0
  5  6  4  0  0  0  0
  5  9  4  0  0  0  0
  6 25  1  0  0  0  0
  7  8  4  0  0  0  0
  7 26  1  0  0  0  0
  8  9  4  0  0  0  0
  9 10  1  0  0  0  0
 10 11  4  0  0  0  0
 10 15  4  0  0  0  0
 11 12  4  0  0  0  0
 11 27  1  0  0  0  0
 12 13  4  0  0  0  0
 12 28  1  0  0  0  0
 13 14  4  0  0  0  0
 13 16  1  0  0  0  0
 14 15  4  0  0  0  0
 14 29  1  0  0  0  0
 15 30  1  0  0  0  0
 16 17  1  0  0  0  0
 17 31  1  0  0  0  0
 17 32  1  0  0  0  0
 17 33  1  0  0  0  0
 18 19  1  0  0  0  0
 18 34  1  0  0  0  0
 19 20  1  0  0  0  0
 19 23  1  0  0  0  0
 19 35  1  0  0  0  0
 20 21  1  0  0  0  0
 20 36  1  0  0  0  0
 20 37  1  0  0  0  0
 21 22  1  0  0  0  0
 21 24  1  0  0  0  0
 21 38  1  0  0  0  0
 22 23  1  0  0  0  0
 22 39  1  0  0  0  0
 22 40  1  0  0  0  0
 23 41  1  0  0  0  0
 23 42  1  0  0  0  0
 24 43  1  0  0  0  0
 24 44  1  0  0  0  0
M  END
> <ConfClashScore>
0 

> <ConfOneFourInteractionScore>
-0.980204 

> <ConfScore>
0.0260996 

> <ConfScorePBest>
0.00214046 

> <ConfTolerance>
0.301979 

$$$$
c13.sdf
 OpenBabel04162418043D

 44 47  0  0  0  0  0  0  0  0999 V2000
    2.1080   -0.3773   -1.8532 N   0  0  0  1  0  0  0  0  0  0  0  0
    2.5363    0.5907   -2.6455 C   0  0  0  1  0  0  0  0  0  0  0  0
    2.1525    0.6996   -3.8968 N   0  0  0  1  0  0  0  0  0  0  0  0
    1.2985   -0.1838   -4.4201 C   0  0  0  1  0  0  0  0  0  0  0  0
    0.8205   -1.2305   -3.6033 C   0  0  0  1  0  0  0  0  0  0  0  0
    1.2615   -1.2960   -2.2850 C   0  0  0  1  0  0  0  0  0  0  0  0
    0.7019   -0.3512   -5.6890 C   0  0  0  1  0  0  0  0  0  0  0  0
   -0.0689   -1.4010   -5.6538 N   0  0  0  1  0  0  0  0  0  0  0  0
   -0.0256   -1.9780   -4.3778 N   0  0  0  1  0  0  0  0  0  0  0  0
   -0.8541   -3.0680   -4.0716 C   0  0  0  1  0  0  0  0  0  0  0  0
   -1.4187   -3.9118   -5.0094 C   0  0  0  1  0  0  0  0  0  0  0  0
   -2.2205   -4.9657   -4.5995 C   0  0  0  1  0  0  0  0  0  0  0  0
   -2.4597   -5.1695   -3.2536 C   0  0  0  1  0  0  0  0  0  0  0  0
   -1.8932   -4.3232   -2.3131 C   0  0  0  1  0  0  0  0  0  0  0  0
   -1.0938   -3.2723   -2.7216 C   0  0  0  1  0  0  0  0  0  0  0  0
   -3.2268   -6.1582   -2.7362 O   0  0  0  1  0  0  0  0  0  0  0  0
   -3.7396   -7.1385   -3.6520 C   0  0  0  1  0  0  0  0  0  0  0  0
    3.4179    1.4756   -2.0514 N   0  0  0  1  0  0  0  0  0  0  0  0
    3.6654    1.3339   -0.6233 C   0  0  0  1  0  0  0  0  0  0  0  0
    5.0653    0.6826   -0.3603 C   0  0  0  1  0  0  0  0  0  0  0  0
    5.4109    1.1609    1.0903 C   0  0  0  1  0  0  0  0  0  0  0  0
    4.6613    2.5073    1.2963 C   0  0  0  1  0  0  0  0  0  0  0  0
    3.7745    2.7130    0.0555 C   0  0  0  1  0  0  0  0  0  0  0  0
    4.9522    0.1622    2.0818 N   0  0  0  1  0  0  0  0  0  0  0  0
    0.9318   -2.0526   -1.6522 H   0  0  0  1  0  0  0  0  0  0  0  0
    0.8529    0.2620   -6.5152 H   0  0  0  1  0  0  0  0  0  0  0  0
   -1.2421   -3.7559   -6.0224 H   0  0  0  1  0  0  0  0  0  0  0  0
   -2.6422   -5.6030   -5.3050 H   0  0  0  1  0  0  0  0  0  0  0  0
   -2.0699   -4.4789   -1.3001 H   0  0  0  1  0  0  0  0  0  0  0  0
   -0.6721   -2.6349   -2.0162 H   0  0  0  1  0  0  0  0  0  0  0  0
   -3.8857   -6.6886   -4.6117 H   0  0  0  1  0  0  0  0  0  0  0  0
   -4.6736   -7.5124   -3.2877 H   0  0  0  1  0  0  0  0  0  0  0  0
   -3.0415   -7.9447   -3.7387 H   0  0  0  1  0  0  0  0  0  0  0  0
    3.8617    2.1753   -2.5746 H   0  0  0  1  0  0  0  0  0  0  0  0
    2.8840    0.7515   -0.1814 H   0  0  0  1  0  0  0  0  0  0  0  0
    5.7909    1.0339   -1.0638 H   0  0  0  1  0  0  0  0  0  0  0  0
    5.0078   -0.3848   -0.4094 H   0  0  0  1  0  0  0  0  0  0  0  0
    6.4662    1.3055    1.1908 H   0  0  0  1  0  0  0  0  0  0  0  0
    5.3629    3.3102    1.3853 H   0  0  0  1  0  0  0  0  0  0  0  0
    4.0569    2.4617    2.1781 H   0  0  0  1  0  0  0  0  0  0  0  0
    2.8055    3.0621    0.3453 H   0  0  0  1  0  0  0  0  0  0  0  0
    4.2247    3.4198   -0.6097 H   0  0  0  1  0  0  0  0  0  0  0  0
    5.4309   -0.6814    1.9420 H   0  0  0  1  0  0  0  0  0  0  0  0
    3.9896    0.0131    1.9737 H   0  0  0  1  0  0  0  0  0  0  0  0
  1  2  4  0  0  0  0
  1  6  4  0  0  0  0
  2  3  4  0  0  0  0
  2 18  1  0  0  0  0
  3  4  4  0  0  0  0
  4  5  4  0  0  0  0
  4  7  4  0  0  0  0
  5  6  4  0  0  0  0
  5  9  4  0  0  0  0
  6 25  1  0  0  0  0
  7  8  4  0  0  0  0
  7 26  1  0  0  0  0
  8  9  4  0  0  0  0
  9 10  1  0  0  0  0
 10 11  4  0  0  0  0
 10 15  4  0  0  0  0
 11 12  4  0  0  0  0
 11 27  1  0  0  0  0
 12 13  4  0  0  0  0
 12 28  1  0  0  0  0
 13 14  4  0  0  0  0
 13 16  1  0  0  0  0
 14 15  4  0  0  0  0
 14 29  1  0  0  0  0
 15 30  1  0  0  0  0
 16 17  1  0  0  0  0
 17 31  1  0  0  0  0
 17 32  1  0  0  0  0
 17 33  1  0  0  0  0
 18 19  1  0  0  0  0
 18 34  1  0  0  0  0
 19 20  1  0  0  0  0
 19 23  1  0  0  0  0
 19 35  1  0  0  0  0
 20 21  1  0  0  0  0
 20 36  1  0  0  0  0
 20 37  1  0  0  0  0
 21 22  1  0  0  0  0
 21 24  1  0  0  0  0
 21 38  1  0  0  0  0
 22 23  1  0  0  0  0
 22 39  1  0  0  0  0
 22 40  1  0  0  0  0
 23 41  1  0  0  0  0
 23 42  1  0  0  0  0
 24 43  1  0  0  0  0
 24 44  1  0  0  0  0
M  END
> <ConfClashScore>
0 

> <ConfOneFourInteractionScore>
-0.984337 

> <ConfScore>
0.0261221 

> <ConfScorePBest>
0.00212713 

> <ConfTolerance>
0.508528 

$$$$
c13.sdf
 OpenBabel04162418043D

 44 47  0  0  0  0  0  0  0  0999 V2000
    2.1079   -0.3773   -1.8532 N   0  0  0  1  0  0  0  0  0  0  0  0
    2.5363    0.5907   -2.6455 C   0  0  0  1  0  0  0  0  0  0  0  0
    2.1525    0.6996   -3.8968 N   0  0  0  1  0  0  0  0  0  0  0  0
    1.2986   -0.1837   -4.4201 C   0  0  0  1  0  0  0  0  0  0  0  0
    0.8205   -1.2304   -3.6034 C   0  0  0  1  0  0  0  0  0  0  0  0
    1.2615   -1.2960   -2.2849 C   0  0  0  1  0  0  0  0  0  0  0  0
    0.7019   -0.3512   -5.6890 C   0  0  0  1  0  0  0  0  0  0  0  0
   -0.0689   -1.4010   -5.6538 N   0  0  0  1  0  0  0  0  0  0  0  0
   -0.0256   -1.9781   -4.3778 N   0  0  0  1  0  0  0  0  0  0  0  0
   -0.7969   -3.1366   -4.1258 C   0  0  0  1  0  0  0  0  0  0  0  0
   -0.7748   -4.1896   -5.0207 C   0  0  0  1  0  0  0  0  0  0  0  0
   -1.5266   -5.3271   -4.7710 C   0  0  0  1  0  0  0  0  0  0  0  0
   -2.3023   -5.4062   -3.6298 C   0  0  0  1  0  0  0  0  0  0  0  0
   -2.3244   -4.3500   -2.7323 C   0  0  0  1  0  0  0  0  0  0  0  0
   -1.5749   -3.2158   -2.9812 C   0  0  0  1  0  0  0  0  0  0  0  0
   -2.9959   -6.5616   -3.4959 O   0  0  0  1  0  0  0  0  0  0  0  0
   -3.9822   -6.6178   -2.4534 C   0  0  0  1  0  0  0  0  0  0  0  0
    3.3940    1.5253   -2.2155 N   0  0  0  1  0  0  0  0  0  0  0  0
    4.0623    1.6287   -0.9174 C   0  0  0  1  0  0  0  0  0  0  0  0
    5.5805    1.5303   -1.0558 C   0  0  0  1  0  0  0  0  0  0  0  0
    6.1075    2.5961   -0.0739 C   0  0  0  1  0  0  0  0  0  0  0  0
    4.9744    3.1653    0.8015 C   0  0  0  1  0  0  0  0  0  0  0  0
    3.9240    3.0497   -0.3148 C   0  0  0  1  0  0  0  0  0  0  0  0
    7.1305    1.9788    0.8037 N   0  0  0  1  0  0  0  0  0  0  0  0
    0.9317   -2.0526   -1.6522 H   0  0  0  1  0  0  0  0  0  0  0  0
    0.8529    0.2621   -6.5152 H   0  0  0  1  0  0  0  0  0  0  0  0
   -0.1942   -4.1285   -5.8814 H   0  0  0  1  0  0  0  0  0  0  0  0
   -1.5068   -6.1211   -5.4423 H   0  0  0  1  0  0  0  0  0  0  0  0
   -2.9049   -4.4111   -1.8716 H   0  0  0  1  0  0  0  0  0  0  0  0
   -1.5945   -2.4217   -2.3098 H   0  0  0  1  0  0  0  0  0  0  0  0
   -3.5117   -6.4499   -1.5071 H   0  0  0  1  0  0  0  0  0  0  0  0
   -4.4473   -7.5814   -2.4543 H   0  0  0  1  0  0  0  0  0  0  0  0
   -4.7224   -5.8638   -2.6221 H   0  0  0  1  0  0  0  0  0  0  0  0
    3.6023    2.2364   -2.8570 H   0  0  0  1  0  0  0  0  0  0  0  0
    3.6769    0.8805   -0.2567 H   0  0  0  1  0  0  0  0  0  0  0  0
    5.8871    1.7496   -2.0572 H   0  0  0  1  0  0  0  0  0  0  0  0
    5.9259    0.5554   -0.7819 H   0  0  0  1  0  0  0  0  0  0  0  0
    6.5502    3.3945   -0.6319 H   0  0  0  1  0  0  0  0  0  0  0  0
    4.7536    2.5584    1.6545 H   0  0  0  1  0  0  0  0  0  0  0  0
    5.1485    4.1732    1.1156 H   0  0  0  1  0  0  0  0  0  0  0  0
    2.9422    3.1841    0.0889 H   0  0  0  1  0  0  0  0  0  0  0  0
    4.1047    3.7878   -1.0679 H   0  0  0  1  0  0  0  0  0  0  0  0
    7.7558    1.4559    0.2595 H   0  0  0  1  0  0  0  0  0  0  0  0
    6.6917    1.3904    1.4529 H   0  0  0  1  0  0  0  0  0  0  0  0
  1  2  4  0  0  0  0
  1  6  4  0  0  0  0
  2  3  4  0  0  0  0
  2 18  1  0  0  0  0
  3  4  4  0  0  0  0
  4  5  4  0  0  0  0
  4  7  4  0  0  0  0
  5  6  4  0  0  0  0
  5  9  4  0  0  0  0
  6 25  1  0  0  0  0
  7  8  4  0  0  0  0
  7 26  1  0  0  0  0
  8  9  4  0  0  0  0
  9 10  1  0  0  0  0
 10 11  4  0  0  0  0
 10 15  4  0  0  0  0
 11 12  4  0  0  0  0
 11 27  1  0  0  0  0
 12 13  4  0  0  0  0
 12 28  1  0  0  0  0
 13 14  4  0  0  0  0
 13 16  1  0  0  0  0
 14 15  4  0  0  0  0
 14 29  1  0  0  0  0
 15 30  1  0  0  0  0
 16 17  1  0  0  0  0
 17 31  1  0  0  0  0
 17 32  1  0  0  0  0
 17 33  1  0  0  0  0
 18 19  1  0  0  0  0
 18 34  1  0  0  0  0
 19 20  1  0  0  0  0
 19 23  1  0  0  0  0
 19 35  1  0  0  0  0
 20 21  1  0  0  0  0
 20 36  1  0  0  0  0
 20 37  1  0  0  0  0
 21 22  1  0  0  0  0
 21 24  1  0  0  0  0
 21 38  1  0  0  0  0
 22 23  1  0  0  0  0
 22 39  1  0  0  0  0
 22 40  1  0  0  0  0
 23 41  1  0  0  0  0
 23 42  1  0  0  0  0
 24 43  1  0  0  0  0
 24 44  1  0  0  0  0
M  END
> <ConfClashScore>
0 

> <ConfOneFourInteractionScore>
-0.984337 

> <ConfScore>
0.0268583 

> <ConfScorePBest>
0.0021138 

> <ConfTolerance>
0.475136 

$$$$
c13.sdf
 OpenBabel04162418043D

 44 47  0  0  0  0  0  0  0  0999 V2000
    2.1079   -0.3773   -1.8532 N   0  0  0  1  0  0  0  0  0  0  0  0
    2.5363    0.5907   -2.6455 C   0  0  0  1  0  0  0  0  0  0  0  0
    2.1526    0.6996   -3.8969 N   0  0  0  1  0  0  0  0  0  0  0  0
    1.2985   -0.1838   -4.4201 C   0  0  0  1  0  0  0  0  0  0  0  0
    0.8204   -1.2305   -3.6033 C   0  0  0  1  0  0  0  0  0  0  0  0
    1.2615   -1.2960   -2.2850 C   0  0  0  1  0  0  0  0  0  0  0  0
    0.7020   -0.3513   -5.6890 C   0  0  0  1  0  0  0  0  0  0  0  0
   -0.0689   -1.4010   -5.6537 N   0  0  0  1  0  0  0  0  0  0  0  0
   -0.0256   -1.9780   -4.3778 N   0  0  0  1  0  0  0  0  0  0  0  0
   -0.7857   -3.1447   -4.0791 C   0  0  0  1  0  0  0  0  0  0  0  0
   -1.3223   -3.9020   -5.1031 C   0  0  0  1  0  0  0  0  0  0  0  0
   -2.1343   -4.9867   -4.8108 C   0  0  0  1  0  0  0  0  0  0  0  0
   -2.4118   -5.3077   -3.4953 C   0  0  0  1  0  0  0  0  0  0  0  0
   -1.8736   -4.5480   -2.4683 C   0  0  0  1  0  0  0  0  0  0  0  0
   -1.0639   -3.4665   -2.7597 C   0  0  0  1  0  0  0  0  0  0  0  0
   -3.1926   -6.3368   -3.0889 O   0  0  0  1  0  0  0  0  0  0  0  0
   -3.6966   -7.2189   -4.1041 C   0  0  0  1  0  0  0  0  0  0  0  0
    3.4098    1.5117   -2.1457 N   0  0  0  1  0  0  0  0  0  0  0  0
    3.9483    2.5793   -2.9706 C   0  0  0  1  0  0  0  0  0  0  0  0
    4.2801    3.8400   -2.0987 C   0  0  0  1  0  0  0  0  0  0  0  0
    5.7517    4.2053   -2.3674 C   0  0  0  1  0  0  0  0  0  0  0  0
    6.3903    2.8232   -2.7320 C   0  0  0  1  0  0  0  0  0  0  0  0
    5.2879    2.1704   -3.5748 C   0  0  0  1  0  0  0  0  0  0  0  0
    5.8663    5.1522   -3.4845 N   0  0  0  1  0  0  0  0  0  0  0  0
    0.9317   -2.0526   -1.6522 H   0  0  0  1  0  0  0  0  0  0  0  0
    0.8530    0.2619   -6.5152 H   0  0  0  1  0  0  0  0  0  0  0  0
   -1.1167   -3.6581   -6.0930 H   0  0  0  1  0  0  0  0  0  0  0  0
   -2.5349   -5.5590   -5.5812 H   0  0  0  1  0  0  0  0  0  0  0  0
   -2.0791   -4.7918   -1.4784 H   0  0  0  1  0  0  0  0  0  0  0  0
   -0.6634   -2.8941   -1.9893 H   0  0  0  1  0  0  0  0  0  0  0  0
   -3.1865   -7.0309   -5.0258 H   0  0  0  1  0  0  0  0  0  0  0  0
   -4.7447   -7.0487   -4.2357 H   0  0  0  1  0  0  0  0  0  0  0  0
   -3.5340   -8.2339   -3.8073 H   0  0  0  1  0  0  0  0  0  0  0  0
    3.6811    1.4516   -1.2059 H   0  0  0  1  0  0  0  0  0  0  0  0
    3.2460    2.8253   -3.7395 H   0  0  0  1  0  0  0  0  0  0  0  0
    4.1418    3.6151   -1.0618 H   0  0  0  1  0  0  0  0  0  0  0  0
    3.6439    4.6546   -2.3755 H   0  0  0  1  0  0  0  0  0  0  0  0
    6.2102    4.6239   -1.4959 H   0  0  0  1  0  0  0  0  0  0  0  0
    7.2891    2.9485   -3.2988 H   0  0  0  1  0  0  0  0  0  0  0  0
    6.5990    2.2485   -1.8538 H   0  0  0  1  0  0  0  0  0  0  0  0
    5.3905    1.1056   -3.5494 H   0  0  0  1  0  0  0  0  0  0  0  0
    5.3515    2.5113   -4.5870 H   0  0  0  1  0  0  0  0  0  0  0  0
    5.4895    6.0173   -3.2199 H   0  0  0  1  0  0  0  0  0  0  0  0
    5.3752    4.8052   -4.2582 H   0  0  0  1  0  0  0  0  0  0  0  0
  1  2  4  0  0  0  0
  1  6  4  0  0  0  0
  2  3  4  0  0  0  0
  2 18  1  0  0  0  0
  3  4  4  0  0  0  0
  4  5  4  0  0  0  0
  4  7  4  0  0  0  0
  5  6  4  0  0  0  0
  5  9  4  0  0  0  0
  6 25  1  0  0  0  0
  7  8  4  0  0  0  0
  7 26  1  0  0  0  0
  8  9  4  0  0  0  0
  9 10  1  0  0  0  0
 10 11  4  0  0  0  0
 10 15  4  0  0  0  0
 11 12  4  0  0  0  0
 11 27  1  0  0  0  0
 12 13  4  0  0  0  0
 12 28  1  0  0  0  0
 13 14  4  0  0  0  0
 13 16  1  0  0  0  0
 14 15  4  0  0  0  0
 14 29  1  0  0  0  0
 15 30  1  0  0  0  0
 16 17  1  0  0  0  0
 17 31  1  0  0  0  0
 17 32  1  0  0  0  0
 17 33  1  0  0  0  0
 18 19  1  0  0  0  0
 18 34  1  0  0  0  0
 19 20  1  0  0  0  0
 19 23  1  0  0  0  0
 19 35  1  0  0  0  0
 20 21  1  0  0  0  0
 20 36  1  0  0  0  0
 20 37  1  0  0  0  0
 21 22  1  0  0  0  0
 21 24  1  0  0  0  0
 21 38  1  0  0  0  0
 22 23  1  0  0  0  0
 22 39  1  0  0  0  0
 22 40  1  0  0  0  0
 23 41  1  0  0  0  0
 23 42  1  0  0  0  0
 24 43  1  0  0  0  0
 24 44  1  0  0  0  0
M  END
> <ConfClashScore>
0 

> <ConfOneFourInteractionScore>
-0.984337 

> <ConfScore>
0.0278907 

> <ConfScorePBest>
0.00210048 

> <ConfTolerance>
0.488685 

$$$$
c13.sdf
 OpenBabel04162418043D

 44 47  0  0  0  0  0  0  0  0999 V2000
    2.1080   -0.3773   -1.8533 N   0  0  0  1  0  0  0  0  0  0  0  0
    2.5364    0.5907   -2.6455 C   0  0  0  1  0  0  0  0  0  0  0  0
    2.1526    0.6997   -3.8968 N   0  0  0  1  0  0  0  0  0  0  0  0
    1.2985   -0.1838   -4.4201 C   0  0  0  1  0  0  0  0  0  0  0  0
    0.8205   -1.2305   -3.6033 C   0  0  0  1  0  0  0  0  0  0  0  0
    1.2615   -1.2960   -2.2849 C   0  0  0  1  0  0  0  0  0  0  0  0
    0.7019   -0.3513   -5.6890 C   0  0  0  1  0  0  0  0  0  0  0  0
   -0.0689   -1.4010   -5.6538 N   0  0  0  1  0  0  0  0  0  0  0  0
   -0.0256   -1.9781   -4.3778 N   0  0  0  1  0  0  0  0  0  0  0  0
   -0.7943   -3.1325   -4.1266 C   0  0  0  1  0  0  0  0  0  0  0  0
   -1.4598   -3.7039   -5.1947 C   0  0  0  1  0  0  0  0  0  0  0  0
   -2.2256   -4.8435   -5.0046 C   0  0  0  1  0  0  0  0  0  0  0  0
   -2.3281   -5.4055   -3.7461 C   0  0  0  1  0  0  0  0  0  0  0  0
   -1.6605   -4.8324   -2.6749 C   0  0  0  1  0  0  0  0  0  0  0  0
   -0.8969   -3.6961   -2.8642 C   0  0  0  1  0  0  0  0  0  0  0  0
   -3.1106   -6.5020   -3.7269 O   0  0  0  1  0  0  0  0  0  0  0  0
   -3.3878   -7.0332   -2.4102 C   0  0  0  1  0  0  0  0  0  0  0  0
    3.4219    1.5557   -2.2017 N   0  0  0  1  0  0  0  0  0  0  0  0
    3.9228    2.5625   -3.1278 C   0  0  0  1  0  0  0  0  0  0  0  0
    4.5762    1.8893   -4.3422 C   0  0  0  1  0  0  0  0  0  0  0  0
    3.7595    2.3502   -5.5527 C   0  0  0  1  0  0  0  0  0  0  0  0
    3.1480    3.6866   -5.1181 C   0  0  0  1  0  0  0  0  0  0  0  0
    2.7645    3.4033   -3.6750 C   0  0  0  1  0  0  0  0  0  0  0  0
    4.6410    2.5359   -6.7439 N   0  0  0  1  0  0  0  0  0  0  0  0
    0.9317   -2.0526   -1.6523 H   0  0  0  1  0  0  0  0  0  0  0  0
    0.8528    0.2620   -6.5152 H   0  0  0  1  0  0  0  0  0  0  0  0
   -1.3859   -3.2787   -6.1410 H   0  0  0  1  0  0  0  0  0  0  0  0
   -2.7231   -5.2757   -5.8092 H   0  0  0  1  0  0  0  0  0  0  0  0
   -1.7344   -5.2575   -1.7286 H   0  0  0  1  0  0  0  0  0  0  0  0
   -0.3994   -3.2638   -2.0598 H   0  0  0  1  0  0  0  0  0  0  0  0
   -3.8519   -6.2780   -1.8108 H   0  0  0  1  0  0  0  0  0  0  0  0
   -2.4721   -7.3408   -1.9500 H   0  0  0  1  0  0  0  0  0  0  0  0
   -4.0443   -7.8737   -2.4960 H   0  0  0  1  0  0  0  0  0  0  0  0
    3.7120    1.5623   -1.2656 H   0  0  0  1  0  0  0  0  0  0  0  0
    4.6305    3.1889   -2.6260 H   0  0  0  1  0  0  0  0  0  0  0  0
    4.5349    0.8244   -4.2467 H   0  0  0  1  0  0  0  0  0  0  0  0
    5.5956    2.2000   -4.4386 H   0  0  0  1  0  0  0  0  0  0  0  0
    2.9923    1.6408   -5.7832 H   0  0  0  1  0  0  0  0  0  0  0  0
    2.2894    3.9313   -5.7078 H   0  0  0  1  0  0  0  0  0  0  0  0
    3.8630    4.4802   -5.1817 H   0  0  0  1  0  0  0  0  0  0  0  0
    1.8457    2.8568   -3.6284 H   0  0  0  1  0  0  0  0  0  0  0  0
    2.6660    4.3152   -3.1241 H   0  0  0  1  0  0  0  0  0  0  0  0
    4.1134    2.8925   -7.4888 H   0  0  0  1  0  0  0  0  0  0  0  0
    5.0278    1.6731   -7.0015 H   0  0  0  1  0  0  0  0  0  0  0  0
  1  2  4  0  0  0  0
  1  6  4  0  0  0  0
  2  3  4  0  0  0  0
  2 18  1  0  0  0  0
  3  4  4  0  0  0  0
  4  5  4  0  0  0  0
  4  7  4  0  0  0  0
  5  6  4  0  0  0  0
  5  9  4  0  0  0  0
  6 25  1  0  0  0  0
  7  8  4  0  0  0  0
  7 26  1  0  0  0  0
  8  9  4  0  0  0  0
  9 10  1  0  0  0  0
 10 11  4  0  0  0  0
 10 15  4  0  0  0  0
 11 12  4  0  0  0  0
 11 27  1  0  0  0  0
 12 13  4  0  0  0  0
 12 28  1  0  0  0  0
 13 14  4  0  0  0  0
 13 16  1  0  0  0  0
 14 15  4  0  0  0  0
 14 29  1  0  0  0  0
 15 30  1  0  0  0  0
 16 17  1  0  0  0  0
 17 31  1  0  0  0  0
 17 32  1  0  0  0  0
 17 33  1  0  0  0  0
 18 19  1  0  0  0  0
 18 34  1  0  0  0  0
 19 20  1  0  0  0  0
 19 23  1  0  0  0  0
 19 35  1  0  0  0  0
 20 21  1  0  0  0  0
 20 36  1  0  0  0  0
 20 37  1  0  0  0  0
 21 22  1  0  0  0  0
 21 24  1  0  0  0  0
 21 38  1  0  0  0  0
 22 23  1  0  0  0  0
 22 39  1  0  0  0  0
 22 40  1  0  0  0  0
 23 41  1  0  0  0  0
 23 42  1  0  0  0  0
 24 43  1  0  0  0  0
 24 44  1  0  0  0  0
M  END
> <ConfClashScore>
0 

> <ConfOneFourInteractionScore>
-0.980204 

> <ConfScore>
0.0310637 

> <ConfScorePBest>
0.00208715 

> <ConfTolerance>
0.367724 

$$$$
c13.sdf
 OpenBabel04162418043D

 44 47  0  0  0  0  0  0  0  0999 V2000
    2.1079   -0.3774   -1.8532 N   0  0  0  1  0  0  0  0  0  0  0  0
    2.5364    0.5907   -2.6455 C   0  0  0  1  0  0  0  0  0  0  0  0
    2.1525    0.6996   -3.8968 N   0  0  0  1  0  0  0  0  0  0  0  0
    1.2985   -0.1838   -4.4201 C   0  0  0  1  0  0  0  0  0  0  0  0
    0.8204   -1.2305   -3.6033 C   0  0  0  1  0  0  0  0  0  0  0  0
    1.2615   -1.2961   -2.2849 C   0  0  0  1  0  0  0  0  0  0  0  0
    0.7019   -0.3512   -5.6890 C   0  0  0  1  0  0  0  0  0  0  0  0
   -0.0690   -1.4010   -5.6537 N   0  0  0  1  0  0  0  0  0  0  0  0
   -0.0256   -1.9781   -4.3778 N   0  0  0  1  0  0  0  0  0  0  0  0
   -0.7858   -3.1448   -4.0792 C   0  0  0  1  0  0  0  0  0  0  0  0
   -0.8550   -3.6103   -2.7797 C   0  0  0  1  0  0  0  0  0  0  0  0
   -1.5993   -4.7428   -2.4882 C   0  0  0  1  0  0  0  0  0  0  0  0
   -2.2677   -5.4095   -3.4976 C   0  0  0  1  0  0  0  0  0  0  0  0
   -2.1980   -4.9424   -4.8009 C   0  0  0  1  0  0  0  0  0  0  0  0
   -1.4560   -3.8131   -5.0917 C   0  0  0  1  0  0  0  0  0  0  0  0
   -2.9905   -6.5189   -3.2136 O   0  0  0  1  0  0  0  0  0  0  0  0
   -2.9930   -6.9690   -1.8498 C   0  0  0  1  0  0  0  0  0  0  0  0
    3.3976    1.4989   -2.1526 N   0  0  0  1  0  0  0  0  0  0  0  0
    3.9904    2.5644   -2.9420 C   0  0  0  1  0  0  0  0  0  0  0  0
    2.8970    3.3583   -3.6693 C   0  0  0  1  0  0  0  0  0  0  0  0
    3.0099    4.7898   -3.1375 C   0  0  0  1  0  0  0  0  0  0  0  0
    4.4665    4.9158   -2.6780 C   0  0  0  1  0  0  0  0  0  0  0  0
    4.7106    3.5631   -2.0296 C   0  0  0  1  0  0  0  0  0  0  0  0
    2.7093    5.7795   -4.2172 N   0  0  0  1  0  0  0  0  0  0  0  0
    0.9317   -2.0527   -1.6522 H   0  0  0  1  0  0  0  0  0  0  0  0
    0.8529    0.2621   -6.5152 H   0  0  0  1  0  0  0  0  0  0  0  0
   -0.3489   -3.1110   -2.0207 H   0  0  0  1  0  0  0  0  0  0  0  0
   -1.6548   -5.0908   -1.5097 H   0  0  0  1  0  0  0  0  0  0  0  0
   -2.7042   -5.4416   -5.5600 H   0  0  0  1  0  0  0  0  0  0  0  0
   -1.4006   -3.4651   -6.0702 H   0  0  0  1  0  0  0  0  0  0  0  0
   -3.1553   -8.0263   -1.8230 H   0  0  0  1  0  0  0  0  0  0  0  0
   -3.7753   -6.4747   -1.3128 H   0  0  0  1  0  0  0  0  0  0  0  0
   -2.0503   -6.7416   -1.3976 H   0  0  0  1  0  0  0  0  0  0  0  0
    3.6395    1.4379   -1.2049 H   0  0  0  1  0  0  0  0  0  0  0  0
    4.6767    2.1462   -3.6484 H   0  0  0  1  0  0  0  0  0  0  0  0
    1.9315    2.9528   -3.4496 H   0  0  0  1  0  0  0  0  0  0  0  0
    3.0606    3.3381   -4.7265 H   0  0  0  1  0  0  0  0  0  0  0  0
    2.3403    4.9421   -2.3169 H   0  0  0  1  0  0  0  0  0  0  0  0
    5.1236    5.0735   -3.5076 H   0  0  0  1  0  0  0  0  0  0  0  0
    4.5842    5.7118   -1.9727 H   0  0  0  1  0  0  0  0  0  0  0  0
    4.2995    3.5374   -1.0422 H   0  0  0  1  0  0  0  0  0  0  0  0
    5.7579    3.3481   -1.9862 H   0  0  0  1  0  0  0  0  0  0  0  0
    2.8403    6.6881   -3.8739 H   0  0  0  1  0  0  0  0  0  0  0  0
    1.7800    5.6718   -4.5093 H   0  0  0  1  0  0  0  0  0  0  0  0
  1  2  4  0  0  0  0
  1  6  4  0  0  0  0
  2  3  4  0  0  0  0
  2 18  1  0  0  0  0
  3  4  4  0  0  0  0
  4  5  4  0  0  0  0
  4  7  4  0  0  0  0
  5  6  4  0  0  0  0
  5  9  4  0  0  0  0
  6 25  1  0  0  0  0
  7  8  4  0  0  0  0
  7 26  1  0  0  0  0
  8  9  4  0  0  0  0
  9 10  1  0  0  0  0
 10 11  4  0  0  0  0
 10 15  4  0  0  0  0
 11 12  4  0  0  0  0
 11 27  1  0  0  0  0
 12 13  4  0  0  0  0
 12 28  1  0  0  0  0
 13 14  4  0  0  0  0
 13 16  1  0  0  0  0
 14 15  4  0  0  0  0
 14 29  1  0  0  0  0
 15 30  1  0  0  0  0
 16 17  1  0  0  0  0
 17 31  1  0  0  0  0
 17 32  1  0  0  0  0
 17 33  1  0  0  0  0
 18 19  1  0  0  0  0
 18 34  1  0  0  0  0
 19 20  1  0  0  0  0
 19 23  1  0  0  0  0
 19 35  1  0  0  0  0
 20 21  1  0  0  0  0
 20 36  1  0  0  0  0
 20 37  1  0  0  0  0
 21 22  1  0  0  0  0
 21 24  1  0  0  0  0
 21 38  1  0  0  0  0
 22 23  1  0  0  0  0
 22 39  1  0  0  0  0
 22 40  1  0  0  0  0
 23 41  1  0  0  0  0
 23 42  1  0  0  0  0
 24 43  1  0  0  0  0
 24 44  1  0  0  0  0
M  END
> <ConfClashScore>
0 

> <ConfOneFourInteractionScore>
-0.985399 

> <ConfScore>
0.0311794 

> <ConfScorePBest>
0.00207382 

> <ConfTolerance>
0.35438 

$$$$
c13.sdf
 OpenBabel04162418043D

 44 47  0  0  0  0  0  0  0  0999 V2000
    2.1079   -0.3773   -1.8532 N   0  0  0  1  0  0  0  0  0  0  0  0
    2.5364    0.5907   -2.6455 C   0  0  0  1  0  0  0  0  0  0  0  0
    2.1526    0.6996   -3.8968 N   0  0  0  1  0  0  0  0  0  0  0  0
    1.2985   -0.1838   -4.4201 C   0  0  0  1  0  0  0  0  0  0  0  0
    0.8204   -1.2304   -3.6034 C   0  0  0  1  0  0  0  0  0  0  0  0
    1.2614   -1.2960   -2.2849 C   0  0  0  1  0  0  0  0  0  0  0  0
    0.7019   -0.3512   -5.6890 C   0  0  0  1  0  0  0  0  0  0  0  0
   -0.0689   -1.4009   -5.6538 N   0  0  0  1  0  0  0  0  0  0  0  0
   -0.0256   -1.9781   -4.3778 N   0  0  0  1  0  0  0  0  0  0  0  0
   -0.7743   -3.1272   -4.0837 C   0  0  0  1  0  0  0  0  0  0  0  0
   -0.3639   -3.8331   -2.9686 C   0  0  0  1  0  0  0  0  0  0  0  0
   -1.0402   -4.9816   -2.5878 C   0  0  0  1  0  0  0  0  0  0  0  0
   -2.1216   -5.4238   -3.3263 C   0  0  0  1  0  0  0  0  0  0  0  0
   -2.5331   -4.7158   -4.4447 C   0  0  0  1  0  0  0  0  0  0  0  0
   -1.8589   -3.5706   -4.8244 C   0  0  0  1  0  0  0  0  0  0  0  0
   -2.8213   -6.5397   -3.0114 O   0  0  0  1  0  0  0  0  0  0  0  0
   -2.4424   -7.2358   -1.8136 C   0  0  0  1  0  0  0  0  0  0  0  0
    3.4218    1.5245   -2.1387 N   0  0  0  1  0  0  0  0  0  0  0  0
    3.6910    1.5026   -0.6938 C   0  0  0  1  0  0  0  0  0  0  0  0
    4.9349    0.6074   -0.3703 C   0  0  0  1  0  0  0  0  0  0  0  0
    5.4266    1.1695    1.0061 C   0  0  0  1  0  0  0  0  0  0  0  0
    4.9800    2.6581    1.0546 C   0  0  0  1  0  0  0  0  0  0  0  0
    4.1086    2.8979   -0.1909 C   0  0  0  1  0  0  0  0  0  0  0  0
    4.8118    0.4163    2.1135 N   0  0  0  1  0  0  0  0  0  0  0  0
    0.9316   -2.0526   -1.6523 H   0  0  0  1  0  0  0  0  0  0  0  0
    0.8529    0.2620   -6.5152 H   0  0  0  1  0  0  0  0  0  0  0  0
    0.4522   -3.5025   -2.4152 H   0  0  0  1  0  0  0  0  0  0  0  0
   -0.7339   -5.5106   -1.7464 H   0  0  0  1  0  0  0  0  0  0  0  0
   -3.3493   -5.0463   -4.9981 H   0  0  0  1  0  0  0  0  0  0  0  0
   -2.1651   -3.0416   -5.6658 H   0  0  0  1  0  0  0  0  0  0  0  0
   -1.4043   -7.4904   -1.8618 H   0  0  0  1  0  0  0  0  0  0  0  0
   -3.0245   -8.1287   -1.7211 H   0  0  0  1  0  0  0  0  0  0  0  0
   -2.6161   -6.6067   -0.9658 H   0  0  0  1  0  0  0  0  0  0  0  0
    3.8559    2.1796   -2.7242 H   0  0  0  1  0  0  0  0  0  0  0  0
    2.8234    1.1532   -0.1742 H   0  0  0  1  0  0  0  0  0  0  0  0
    5.6904    0.7136   -1.1206 H   0  0  0  1  0  0  0  0  0  0  0  0
    4.6562   -0.4222   -0.2873 H   0  0  0  1  0  0  0  0  0  0  0  0
    6.4921    1.1002    1.0751 H   0  0  0  1  0  0  0  0  0  0  0  0
    5.8353    3.3005    1.0357 H   0  0  0  1  0  0  0  0  0  0  0  0
    4.4130    2.8442    1.9428 H   0  0  0  1  0  0  0  0  0  0  0  0
    3.2444    3.4743    0.0659 H   0  0  0  1  0  0  0  0  0  0  0  0
    4.6698    3.4114   -0.9434 H   0  0  0  1  0  0  0  0  0  0  0  0
    4.6279   -0.5014    1.8227 H   0  0  0  1  0  0  0  0  0  0  0  0
    3.9731    0.8494    2.3770 H   0  0  0  1  0  0  0  0  0  0  0  0
  1  2  4  0  0  0  0
  1  6  4  0  0  0  0
  2  3  4  0  0  0  0
  2 18  1  0  0  0  0
  3  4  4  0  0  0  0
  4  5  4  0  0  0  0
  4  7  4  0  0  0  0
  5  6  4  0  0  0  0
  5  9  4  0  0  0  0
  6 25  1  0  0  0  0
  7  8  4  0  0  0  0
  7 26  1  0  0  0  0
  8  9  4  0  0  0  0
  9 10  1  0  0  0  0
 10 11  4  0  0  0  0
 10 15  4  0  0  0  0
 11 12  4  0  0  0  0
 11 27  1  0  0  0  0
 12 13  4  0  0  0  0
 12 28  1  0  0  0  0
 13 14  4  0  0  0  0
 13 16  1  0  0  0  0
 14 15  4  0  0  0  0
 14 29  1  0  0  0  0
 15 30  1  0  0  0  0
 16 17  1  0  0  0  0
 17 31  1  0  0  0  0
 17 32  1  0  0  0  0
 17 33  1  0  0  0  0
 18 19  1  0  0  0  0
 18 34  1  0  0  0  0
 19 20  1  0  0  0  0
 19 23  1  0  0  0  0
 19 35  1  0  0  0  0
 20 21  1  0  0  0  0
 20 36  1  0  0  0  0
 20 37  1  0  0  0  0
 21 22  1  0  0  0  0
 21 24  1  0  0  0  0
 21 38  1  0  0  0  0
 22 23  1  0  0  0  0
 22 39  1  0  0  0  0
 22 40  1  0  0  0  0
 23 41  1  0  0  0  0
 23 42  1  0  0  0  0
 24 43  1  0  0  0  0
 24 44  1  0  0  0  0
M  END
> <ConfClashScore>
0 

> <ConfOneFourInteractionScore>
-0.984337 

> <ConfScore>
0.0323861 

> <ConfScorePBest>
0.00206049 

> <ConfTolerance>
0.632728 

$$$$
c13.sdf
 OpenBabel04162418043D

 44 47  0  0  0  0  0  0  0  0999 V2000
    2.1080   -0.3773   -1.8532 N   0  0  0  1  0  0  0  0  0  0  0  0
    2.5364    0.5907   -2.6454 C   0  0  0  1  0  0  0  0  0  0  0  0
    2.1525    0.6997   -3.8968 N   0  0  0  1  0  0  0  0  0  0  0  0
    1.2985   -0.1838   -4.4202 C   0  0  0  1  0  0  0  0  0  0  0  0
    0.8205   -1.2304   -3.6033 C   0  0  0  1  0  0  0  0  0  0  0  0
    1.2615   -1.2960   -2.2849 C   0  0  0  1  0  0  0  0  0  0  0  0
    0.7019   -0.3512   -5.6890 C   0  0  0  1  0  0  0  0  0  0  0  0
   -0.0690   -1.4009   -5.6538 N   0  0  0  1  0  0  0  0  0  0  0  0
   -0.0256   -1.9781   -4.3778 N   0  0  0  1  0  0  0  0  0  0  0  0
   -0.6861   -3.1907   -4.0716 C   0  0  0  1  0  0  0  0  0  0  0  0
   -1.7359   -3.2559   -3.1749 C   0  0  0  1  0  0  0  0  0  0  0  0
   -2.3512   -4.4706   -2.9155 C   0  0  0  1  0  0  0  0  0  0  0  0
   -1.9117   -5.6174   -3.5494 C   0  0  0  1  0  0  0  0  0  0  0  0
   -0.8589   -5.5519   -4.4487 C   0  0  0  1  0  0  0  0  0  0  0  0
   -0.2452   -4.3408   -4.7074 C   0  0  0  1  0  0  0  0  0  0  0  0
   -2.5831   -6.7406   -3.2140 O   0  0  0  1  0  0  0  0  0  0  0  0
   -2.1362   -8.0174   -3.7266 C   0  0  0  1  0  0  0  0  0  0  0  0
    3.3977    1.4989   -2.1527 N   0  0  0  1  0  0  0  0  0  0  0  0
    3.9625    2.5861   -2.9330 C   0  0  0  1  0  0  0  0  0  0  0  0
    4.5844    2.0502   -4.2289 C   0  0  0  1  0  0  0  0  0  0  0  0
    3.9350    2.8270   -5.3766 C   0  0  0  1  0  0  0  0  0  0  0  0
    3.3312    4.0800   -4.7376 C   0  0  0  1  0  0  0  0  0  0  0  0
    2.8613    3.5530   -3.3816 C   0  0  0  1  0  0  0  0  0  0  0  0
    4.9457    3.1990   -6.3816 N   0  0  0  1  0  0  0  0  0  0  0  0
    0.9318   -2.0526   -1.6522 H   0  0  0  1  0  0  0  0  0  0  0  0
    0.8529    0.2621   -6.5152 H   0  0  0  1  0  0  0  0  0  0  0  0
   -2.0640   -2.3936   -2.6948 H   0  0  0  1  0  0  0  0  0  0  0  0
   -3.1438   -4.5189   -2.2438 H   0  0  0  1  0  0  0  0  0  0  0  0
   -0.5307   -6.4141   -4.9288 H   0  0  0  1  0  0  0  0  0  0  0  0
    0.5473   -4.2923   -5.3791 H   0  0  0  1  0  0  0  0  0  0  0  0
   -2.9807   -8.5844   -4.0587 H   0  0  0  1  0  0  0  0  0  0  0  0
   -1.6287   -8.5542   -2.9525 H   0  0  0  1  0  0  0  0  0  0  0  0
   -1.4688   -7.8581   -4.5475 H   0  0  0  1  0  0  0  0  0  0  0  0
    3.6596    1.4226   -1.2114 H   0  0  0  1  0  0  0  0  0  0  0  0
    4.6975    3.1002   -2.3496 H   0  0  0  1  0  0  0  0  0  0  0  0
    4.3830    1.0042   -4.3303 H   0  0  0  1  0  0  0  0  0  0  0  0
    5.6421    2.2116   -4.2254 H   0  0  0  1  0  0  0  0  0  0  0  0
    3.1704    2.2389   -5.8397 H   0  0  0  1  0  0  0  0  0  0  0  0
    4.0660    4.8492   -4.6217 H   0  0  0  1  0  0  0  0  0  0  0  0
    2.5111    4.4534   -5.3145 H   0  0  0  1  0  0  0  0  0  0  0  0
    2.7564    4.3553   -2.6815 H   0  0  0  1  0  0  0  0  0  0  0  0
    1.9272    3.0404   -3.4800 H   0  0  0  1  0  0  0  0  0  0  0  0
    5.4511    2.4027   -6.6476 H   0  0  0  1  0  0  0  0  0  0  0  0
    5.5581    3.8616   -5.9990 H   0  0  0  1  0  0  0  0  0  0  0  0
  1  2  4  0  0  0  0
  1  6  4  0  0  0  0
  2  3  4  0  0  0  0
  2 18  1  0  0  0  0
  3  4  4  0  0  0  0
  4  5  4  0  0  0  0
  4  7  4  0  0  0  0
  5  6  4  0  0  0  0
  5  9  4  0  0  0  0
  6 25  1  0  0  0  0
  7  8  4  0  0  0  0
  7 26  1  0  0  0  0
  8  9  4  0  0  0  0
  9 10  1  0  0  0  0
 10 11  4  0  0  0  0
 10 15  4  0  0  0  0
 11 12  4  0  0  0  0
 11 27  1  0  0  0  0
 12 13  4  0  0  0  0
 12 28  1  0  0  0  0
 13 14  4  0  0  0  0
 13 16  1  0  0  0  0
 14 15  4  0  0  0  0
 14 29  1  0  0  0  0
 15 30  1  0  0  0  0
 16 17  1  0  0  0  0
 17 31  1  0  0  0  0
 17 32  1  0  0  0  0
 17 33  1  0  0  0  0
 18 19  1  0  0  0  0
 18 34  1  0  0  0  0
 19 20  1  0  0  0  0
 19 23  1  0  0  0  0
 19 35  1  0  0  0  0
 20 21  1  0  0  0  0
 20 36  1  0  0  0  0
 20 37  1  0  0  0  0
 21 22  1  0  0  0  0
 21 24  1  0  0  0  0
 21 38  1  0  0  0  0
 22 23  1  0  0  0  0
 22 39  1  0  0  0  0
 22 40  1  0  0  0  0
 23 41  1  0  0  0  0
 23 42  1  0  0  0  0
 24 43  1  0  0  0  0
 24 44  1  0  0  0  0
M  END
> <ConfClashScore>
0 

> <ConfOneFourInteractionScore>
-0.980204 

> <ConfScore>
0.0329795 

> <ConfScorePBest>
0.00204716 

> <ConfTolerance>
0.312394 

$$$$
c13.sdf
 OpenBabel04162418043D

 44 47  0  0  0  0  0  0  0  0999 V2000
    2.1080   -0.3773   -1.8533 N   0  0  0  1  0  0  0  0  0  0  0  0
    2.5364    0.5908   -2.6454 C   0  0  0  1  0  0  0  0  0  0  0  0
    2.1526    0.6997   -3.8969 N   0  0  0  1  0  0  0  0  0  0  0  0
    1.2985   -0.1838   -4.4201 C   0  0  0  1  0  0  0  0  0  0  0  0
    0.8204   -1.2305   -3.6033 C   0  0  0  1  0  0  0  0  0  0  0  0
    1.2616   -1.2960   -2.2849 C   0  0  0  1  0  0  0  0  0  0  0  0
    0.7019   -0.3513   -5.6890 C   0  0  0  1  0  0  0  0  0  0  0  0
   -0.0689   -1.4010   -5.6538 N   0  0  0  1  0  0  0  0  0  0  0  0
   -0.0256   -1.9781   -4.3778 N   0  0  0  1  0  0  0  0  0  0  0  0
   -0.7857   -3.1448   -4.0791 C   0  0  0  1  0  0  0  0  0  0  0  0
   -1.5608   -3.1904   -2.9357 C   0  0  0  1  0  0  0  0  0  0  0  0
   -2.3048   -4.3240   -2.6478 C   0  0  0  1  0  0  0  0  0  0  0  0
   -2.2674   -5.4106   -3.5012 C   0  0  0  1  0  0  0  0  0  0  0  0
   -1.4898   -5.3646   -4.6480 C   0  0  0  1  0  0  0  0  0  0  0  0
   -0.7480   -4.2344   -4.9352 C   0  0  0  1  0  0  0  0  0  0  0  0
   -3.0639   -6.4797   -3.2642 O   0  0  0  1  0  0  0  0  0  0  0  0
   -2.8885   -7.6287   -4.1080 C   0  0  0  1  0  0  0  0  0  0  0  0
    3.4099    1.5118   -2.1457 N   0  0  0  1  0  0  0  0  0  0  0  0
    3.9549    1.4003   -0.7857 C   0  0  0  1  0  0  0  0  0  0  0  0
    2.8172    1.3313    0.2355 C   0  0  0  1  0  0  0  0  0  0  0  0
    3.2345    0.2605    1.2466 C   0  0  0  1  0  0  0  0  0  0  0  0
    3.9594   -0.7521    0.3599 C   0  0  0  1  0  0  0  0  0  0  0  0
    4.7518    0.0978   -0.6396 C   0  0  0  1  0  0  0  0  0  0  0  0
    4.1493    0.8236    2.2867 N   0  0  0  1  0  0  0  0  0  0  0  0
    0.9317   -2.0526   -1.6523 H   0  0  0  1  0  0  0  0  0  0  0  0
    0.8529    0.2620   -6.5152 H   0  0  0  1  0  0  0  0  0  0  0  0
   -1.5859   -2.3743   -2.2915 H   0  0  0  1  0  0  0  0  0  0  0  0
   -2.8912   -4.3568   -1.7896 H   0  0  0  1  0  0  0  0  0  0  0  0
   -1.4648   -6.1807   -5.2922 H   0  0  0  1  0  0  0  0  0  0  0  0
   -0.1615   -4.2014   -5.7933 H   0  0  0  1  0  0  0  0  0  0  0  0
   -3.7640   -8.2419   -4.0628 H   0  0  0  1  0  0  0  0  0  0  0  0
   -2.0419   -8.1907   -3.7730 H   0  0  0  1  0  0  0  0  0  0  0  0
   -2.7288   -7.3091   -5.1166 H   0  0  0  1  0  0  0  0  0  0  0  0
    3.6808    2.2671   -2.7082 H   0  0  0  1  0  0  0  0  0  0  0  0
    4.5831    2.2424   -0.5826 H   0  0  0  1  0  0  0  0  0  0  0  0
    1.9015    1.0549   -0.2441 H   0  0  0  1  0  0  0  0  0  0  0  0
    2.6946    2.2763    0.7221 H   0  0  0  1  0  0  0  0  0  0  0  0
    2.3819   -0.1789    1.7209 H   0  0  0  1  0  0  0  0  0  0  0  0
    4.6189   -1.3598    0.9435 H   0  0  0  1  0  0  0  0  0  0  0  0
    3.2565   -1.3765   -0.1509 H   0  0  0  1  0  0  0  0  0  0  0  0
    4.8256   -0.4038   -1.5818 H   0  0  0  1  0  0  0  0  0  0  0  0
    5.7333    0.2992   -0.2644 H   0  0  0  1  0  0  0  0  0  0  0  0
    3.6342    1.3765    2.9108 H   0  0  0  1  0  0  0  0  0  0  0  0
    4.8362    1.3728    1.8545 H   0  0  0  1  0  0  0  0  0  0  0  0
  1  2  4  0  0  0  0
  1  6  4  0  0  0  0
  2  3  4  0  0  0  0
  2 18  1  0  0  0  0
  3  4  4  0  0  0  0
  4  5  4  0  0  0  0
  4  7  4  0  0  0  0
  5  6  4  0  0  0  0
  5  9  4  0  0  0  0
  6 25  1  0  0  0  0
  7  8  4  0  0  0  0
  7 26  1  0  0  0  0
  8  9  4  0  0  0  0
  9 10  1  0  0  0  0
 10 11  4  0  0  0  0
 10 15  4  0  0  0  0
 11 12  4  0  0  0  0
 11 27  1  0  0  0  0
 12 13  4  0  0  0  0
 12 28  1  0  0  0  0
 13 14  4  0  0  0  0
 13 16  1  0  0  0  0
 14 15  4  0  0  0  0
 14 29  1  0  0  0  0
 15 30  1  0  0  0  0
 16 17  1  0  0  0  0
 17 31  1  0  0  0  0
 17 32  1  0  0  0  0
 17 33  1  0  0  0  0
 18 19  1  0  0  0  0
 18 34  1  0  0  0  0
 19 20  1  0  0  0  0
 19 23  1  0  0  0  0
 19 35  1  0  0  0  0
 20 21  1  0  0  0  0
 20 36  1  0  0  0  0
 20 37  1  0  0  0  0
 21 22  1  0  0  0  0
 21 24  1  0  0  0  0
 21 38  1  0  0  0  0
 22 23  1  0  0  0  0
 22 39  1  0  0  0  0
 22 40  1  0  0  0  0
 23 41  1  0  0  0  0
 23 42  1  0  0  0  0
 24 43  1  0  0  0  0
 24 44  1  0  0  0  0
M  END
> <ConfClashScore>
0 

> <ConfOneFourInteractionScore>
-0.980204 

> <ConfScore>
0.0329795 

> <ConfScorePBest>
0.00203384 

> <ConfTolerance>
0.301946 

$$$$
c13.sdf
 OpenBabel04162418043D

 44 47  0  0  0  0  0  0  0  0999 V2000
    2.1080   -0.3774   -1.8532 N   0  0  0  1  0  0  0  0  0  0  0  0
    2.5364    0.5908   -2.6455 C   0  0  0  1  0  0  0  0  0  0  0  0
    2.1526    0.6996   -3.8968 N   0  0  0  1  0  0  0  0  0  0  0  0
    1.2985   -0.1838   -4.4201 C   0  0  0  1  0  0  0  0  0  0  0  0
    0.8204   -1.2305   -3.6033 C   0  0  0  1  0  0  0  0  0  0  0  0
    1.2616   -1.2961   -2.2849 C   0  0  0  1  0  0  0  0  0  0  0  0
    0.7019   -0.3513   -5.6889 C   0  0  0  1  0  0  0  0  0  0  0  0
   -0.0690   -1.4010   -5.6537 N   0  0  0  1  0  0  0  0  0  0  0  0
   -0.0256   -1.9781   -4.3778 N   0  0  0  1  0  0  0  0  0  0  0  0
   -0.9164   -3.0099   -4.0192 C   0  0  0  1  0  0  0  0  0  0  0  0
   -1.6826   -2.9602   -2.8701 C   0  0  0  1  0  0  0  0  0  0  0  0
   -2.5472   -4.0008   -2.5680 C   0  0  0  1  0  0  0  0  0  0  0  0
   -2.6389   -5.0906   -3.4132 C   0  0  0  1  0  0  0  0  0  0  0  0
   -1.8704   -5.1404   -4.5657 C   0  0  0  1  0  0  0  0  0  0  0  0
   -1.0083   -4.1028   -4.8670 C   0  0  0  1  0  0  0  0  0  0  0  0
   -3.5113   -6.0458   -3.0125 O   0  0  0  1  0  0  0  0  0  0  0  0
   -3.4774   -7.3001   -3.7111 C   0  0  0  1  0  0  0  0  0  0  0  0
    3.4179    1.4755   -2.0513 N   0  0  0  1  0  0  0  0  0  0  0  0
    3.6818    1.3208   -0.6173 C   0  0  0  1  0  0  0  0  0  0  0  0
    5.0752    1.8539   -0.2759 C   0  0  0  1  0  0  0  0  0  0  0  0
    4.9118    2.6260    1.0356 C   0  0  0  1  0  0  0  0  0  0  0  0
    3.5235    3.2448    0.8721 C   0  0  0  1  0  0  0  0  0  0  0  0
    2.6844    2.1539    0.1977 C   0  0  0  1  0  0  0  0  0  0  0  0
    4.9610    1.7168    2.2044 N   0  0  0  1  0  0  0  0  0  0  0  0
    0.9318   -2.0527   -1.6523 H   0  0  0  1  0  0  0  0  0  0  0  0
    0.8528    0.2621   -6.5151 H   0  0  0  1  0  0  0  0  0  0  0  0
   -1.6106   -2.1421   -2.2320 H   0  0  0  1  0  0  0  0  0  0  0  0
   -3.1267   -3.9617   -1.7054 H   0  0  0  1  0  0  0  0  0  0  0  0
   -1.9423   -5.9584   -5.2038 H   0  0  0  1  0  0  0  0  0  0  0  0
   -0.4287   -4.1419   -5.7297 H   0  0  0  1  0  0  0  0  0  0  0  0
   -4.2916   -7.9128   -3.3848 H   0  0  0  1  0  0  0  0  0  0  0  0
   -2.5524   -7.7975   -3.5058 H   0  0  0  1  0  0  0  0  0  0  0  0
   -3.5627   -7.1245   -4.7631 H   0  0  0  1  0  0  0  0  0  0  0  0
    3.8522    2.1831   -2.5720 H   0  0  0  1  0  0  0  0  0  0  0  0
    3.6058    0.2876   -0.3496 H   0  0  0  1  0  0  0  0  0  0  0  0
    5.4262    2.5037   -1.0501 H   0  0  0  1  0  0  0  0  0  0  0  0
    5.7636    1.0447   -0.1493 H   0  0  0  1  0  0  0  0  0  0  0  0
    5.6637    3.3805    1.1383 H   0  0  0  1  0  0  0  0  0  0  0  0
    3.1111    3.5018    1.8254 H   0  0  0  1  0  0  0  0  0  0  0  0
    3.5707    4.1184    0.2561 H   0  0  0  1  0  0  0  0  0  0  0  0
    2.2007    1.5453    0.9329 H   0  0  0  1  0  0  0  0  0  0  0  0
    1.9485    2.5908   -0.4446 H   0  0  0  1  0  0  0  0  0  0  0  0
    5.0778    0.7939    1.8963 H   0  0  0  1  0  0  0  0  0  0  0  0
    4.1242    1.7889    2.7094 H   0  0  0  1  0  0  0  0  0  0  0  0
  1  2  4  0  0  0  0
  1  6  4  0  0  0  0
  2  3  4  0  0  0  0
  2 18  1  0  0  0  0
  3  4  4  0  0  0  0
  4  5  4  0  0  0  0
  4  7  4  0  0  0  0
  5  6  4  0  0  0  0
  5  9  4  0  0  0  0
  6 25  1  0  0  0  0
  7  8  4  0  0  0  0
  7 26  1  0  0  0  0
  8  9  4  0  0  0  0
  9 10  1  0  0  0  0
 10 11  4  0  0  0  0
 10 15  4  0  0  0  0
 11 12  4  0  0  0  0
 11 27  1  0  0  0  0
 12 13  4  0  0  0  0
 12 28  1  0  0  0  0
 13 14  4  0  0  0  0
 13 16  1  0  0  0  0
 14 15  4  0  0  0  0
 14 29  1  0  0  0  0
 15 30  1  0  0  0  0
 16 17  1  0  0  0  0
 17 31  1  0  0  0  0
 17 32  1  0  0  0  0
 17 33  1  0  0  0  0
 18 19  1  0  0  0  0
 18 34  1  0  0  0  0
 19 20  1  0  0  0  0
 19 23  1  0  0  0  0
 19 35  1  0  0  0  0
 20 21  1  0  0  0  0
 20 36  1  0  0  0  0
 20 37  1  0  0  0  0
 21 22  1  0  0  0  0
 21 24  1  0  0  0  0
 21 38  1  0  0  0  0
 22 23  1  0  0  0  0
 22 39  1  0  0  0  0
 22 40  1  0  0  0  0
 23 41  1  0  0  0  0
 23 42  1  0  0  0  0
 24 43  1  0  0  0  0
 24 44  1  0  0  0  0
M  END
> <ConfClashScore>
0 

> <ConfOneFourInteractionScore>
-0.984337 

> <ConfScore>
0.0346772 

> <ConfScorePBest>
0.00202051 

> <ConfTolerance>
0.529754 

$$$$
c13.sdf
 OpenBabel04162418043D

 44 47  0  0  0  0  0  0  0  0999 V2000
    2.1080   -0.3774   -1.8533 N   0  0  0  1  0  0  0  0  0  0  0  0
    2.5364    0.5907   -2.6454 C   0  0  0  1  0  0  0  0  0  0  0  0
    2.1525    0.6996   -3.8967 N   0  0  0  1  0  0  0  0  0  0  0  0
    1.2985   -0.1837   -4.4202 C   0  0  0  1  0  0  0  0  0  0  0  0
    0.8205   -1.2305   -3.6034 C   0  0  0  1  0  0  0  0  0  0  0  0
    1.2616   -1.2961   -2.2849 C   0  0  0  1  0  0  0  0  0  0  0  0
    0.7019   -0.3513   -5.6890 C   0  0  0  1  0  0  0  0  0  0  0  0
   -0.0689   -1.4011   -5.6537 N   0  0  0  1  0  0  0  0  0  0  0  0
   -0.0256   -1.9781   -4.3778 N   0  0  0  1  0  0  0  0  0  0  0  0
   -0.7582   -3.1316   -4.0321 C   0  0  0  1  0  0  0  0  0  0  0  0
   -0.5933   -4.2551   -4.8199 C   0  0  0  1  0  0  0  0  0  0  0  0
   -1.2855   -5.4184   -4.5216 C   0  0  0  1  0  0  0  0  0  0  0  0
   -2.1450   -5.4532   -3.4396 C   0  0  0  1  0  0  0  0  0  0  0  0
   -2.3104   -4.3262   -2.6497 C   0  0  0  1  0  0  0  0  0  0  0  0
   -1.6201   -3.1663   -2.9470 C   0  0  0  1  0  0  0  0  0  0  0  0
   -2.8671   -6.5136   -3.0596 O   0  0  0  1  0  0  0  0  0  0  0  0
   -2.9165   -7.7405   -3.8627 C   0  0  0  1  0  0  0  0  0  0  0  0
    3.3929    1.4938   -2.1554 N   0  0  0  1  0  0  0  0  0  0  0  0
    3.8181    1.6212   -0.7606 C   0  0  0  1  0  0  0  0  0  0  0  0
    2.6117    1.8980    0.1454 C   0  0  0  1  0  0  0  0  0  0  0  0
    2.6269    0.8199    1.2316 C   0  0  0  1  0  0  0  0  0  0  0  0
    4.0476    0.2502    1.2279 C   0  0  0  1  0  0  0  0  0  0  0  0
    4.4085    0.2996   -0.2569 C   0  0  0  1  0  0  0  0  0  0  0  0
    2.3116    1.4117    2.5508 N   0  0  0  1  0  0  0  0  0  0  0  0
    0.9318   -2.0527   -1.6522 H   0  0  0  1  0  0  0  0  0  0  0  0
    0.8527    0.2621   -6.5152 H   0  0  0  1  0  0  0  0  0  0  0  0
    0.0503   -4.2279   -5.6364 H   0  0  0  1  0  0  0  0  0  0  0  0
   -1.1583   -6.2651   -5.1120 H   0  0  0  1  0  0  0  0  0  0  0  0
   -2.9539   -4.3534   -1.8331 H   0  0  0  1  0  0  0  0  0  0  0  0
   -1.7473   -2.3195   -2.3566 H   0  0  0  1  0  0  0  0  0  0  0  0
   -2.8564   -7.4904   -4.9012 H   0  0  0  1  0  0  0  0  0  0  0  0
   -3.8355   -8.2543   -3.6723 H   0  0  0  1  0  0  0  0  0  0  0  0
   -2.0933   -8.3717   -3.5999 H   0  0  0  1  0  0  0  0  0  0  0  0
    3.7732    2.1333   -2.7931 H   0  0  0  1  0  0  0  0  0  0  0  0
    4.5377    2.4089   -0.6771 H   0  0  0  1  0  0  0  0  0  0  0  0
    1.7047    1.8406   -0.4194 H   0  0  0  1  0  0  0  0  0  0  0  0
    2.6965    2.8687    0.5873 H   0  0  0  1  0  0  0  0  0  0  0  0
    1.9165    0.0523    1.0054 H   0  0  0  1  0  0  0  0  0  0  0  0
    4.7105    0.8566    1.8090 H   0  0  0  1  0  0  0  0  0  0  0  0
    4.0645   -0.7535    1.5983 H   0  0  0  1  0  0  0  0  0  0  0  0
    5.4705    0.2877   -0.3869 H   0  0  0  1  0  0  0  0  0  0  0  0
    3.9756   -0.5288   -0.7775 H   0  0  0  1  0  0  0  0  0  0  0  0
    3.0456    1.9978    2.8303 H   0  0  0  1  0  0  0  0  0  0  0  0
    2.1960    0.6962    3.2105 H   0  0  0  1  0  0  0  0  0  0  0  0
  1  2  4  0  0  0  0
  1  6  4  0  0  0  0
  2  3  4  0  0  0  0
  2 18  1  0  0  0  0
  3  4  4  0  0  0  0
  4  5  4  0  0  0  0
  4  7  4  0  0  0  0
  5  6  4  0  0  0  0
  5  9  4  0  0  0  0
  6 25  1  0  0  0  0
  7  8  4  0  0  0  0
  7 26  1  0  0  0  0
  8  9  4  0  0  0  0
  9 10  1  0  0  0  0
 10 11  4  0  0  0  0
 10 15  4  0  0  0  0
 11 12  4  0  0  0  0
 11 27  1  0  0  0  0
 12 13  4  0  0  0  0
 12 28  1  0  0  0  0
 13 14  4  0  0  0  0
 13 16  1  0  0  0  0
 14 15  4  0  0  0  0
 14 29  1  0  0  0  0
 15 30  1  0  0  0  0
 16 17  1  0  0  0  0
 17 31  1  0  0  0  0
 17 32  1  0  0  0  0
 17 33  1  0  0  0  0
 18 19  1  0  0  0  0
 18 34  1  0  0  0  0
 19 20  1  0  0  0  0
 19 23  1  0  0  0  0
 19 35  1  0  0  0  0
 20 21  1  0  0  0  0
 20 36  1  0  0  0  0
 20 37  1  0  0  0  0
 21 22  1  0  0  0  0
 21 24  1  0  0  0  0
 21 38  1  0  0  0  0
 22 23  1  0  0  0  0
 22 39  1  0  0  0  0
 22 40  1  0  0  0  0
 23 41  1  0  0  0  0
 23 42  1  0  0  0  0
 24 43  1  0  0  0  0
 24 44  1  0  0  0  0
M  END
> <ConfClashScore>
0 

> <ConfOneFourInteractionScore>
-0.980204 

> <ConfScore>
0.035982 

> <ConfScorePBest>
0.00200718 

> <ConfTolerance>
0.246166 

$$$$
c13.sdf
 OpenBabel04162418043D

 44 47  0  0  0  0  0  0  0  0999 V2000
    2.1079   -0.3774   -1.8533 N   0  0  0  1  0  0  0  0  0  0  0  0
    2.5363    0.5907   -2.6455 C   0  0  0  1  0  0  0  0  0  0  0  0
    2.1525    0.6996   -3.8968 N   0  0  0  1  0  0  0  0  0  0  0  0
    1.2985   -0.1838   -4.4201 C   0  0  0  1  0  0  0  0  0  0  0  0
    0.8204   -1.2305   -3.6034 C   0  0  0  1  0  0  0  0  0  0  0  0
    1.2615   -1.2960   -2.2850 C   0  0  0  1  0  0  0  0  0  0  0  0
    0.7018   -0.3513   -5.6890 C   0  0  0  1  0  0  0  0  0  0  0  0
   -0.0690   -1.4009   -5.6537 N   0  0  0  1  0  0  0  0  0  0  0  0
   -0.0256   -1.9781   -4.3778 N   0  0  0  1  0  0  0  0  0  0  0  0
   -0.7857   -3.1448   -4.0792 C   0  0  0  1  0  0  0  0  0  0  0  0
   -2.1258   -3.0333   -3.7599 C   0  0  0  1  0  0  0  0  0  0  0  0
   -2.8669   -4.1695   -3.4744 C   0  0  0  1  0  0  0  0  0  0  0  0
   -2.2645   -5.4131   -3.5038 C   0  0  0  1  0  0  0  0  0  0  0  0
   -0.9205   -5.5247   -3.8241 C   0  0  0  1  0  0  0  0  0  0  0  0
   -0.1814   -4.3919   -4.1088 C   0  0  0  1  0  0  0  0  0  0  0  0
   -3.0857   -6.4470   -3.2029 O   0  0  0  1  0  0  0  0  0  0  0  0
   -2.4910   -7.7506   -3.1063 C   0  0  0  1  0  0  0  0  0  0  0  0
    3.4083    1.4869   -2.1000 N   0  0  0  1  0  0  0  0  0  0  0  0
    3.8186    1.4055   -0.6915 C   0  0  0  1  0  0  0  0  0  0  0  0
    4.3701   -0.0239   -0.3563 C   0  0  0  1  0  0  0  0  0  0  0  0
    5.7718    0.1602    0.2542 C   0  0  0  1  0  0  0  0  0  0  0  0
    6.2669    1.4886   -0.4100 C   0  0  0  1  0  0  0  0  0  0  0  0
    4.9919    2.3408   -0.4168 C   0  0  0  1  0  0  0  0  0  0  0  0
    5.6979    0.2964    1.7388 N   0  0  0  1  0  0  0  0  0  0  0  0
    0.9317   -2.0527   -1.6523 H   0  0  0  1  0  0  0  0  0  0  0  0
    0.8528    0.2621   -6.5152 H   0  0  0  1  0  0  0  0  0  0  0  0
   -2.5781   -2.0973   -3.7339 H   0  0  0  1  0  0  0  0  0  0  0  0
   -3.8762   -4.0861   -3.2381 H   0  0  0  1  0  0  0  0  0  0  0  0
   -0.4681   -6.4607   -3.8502 H   0  0  0  1  0  0  0  0  0  0  0  0
    0.8279   -4.4752   -4.3451 H   0  0  0  1  0  0  0  0  0  0  0  0
   -1.6659   -7.8179   -3.7842 H   0  0  0  1  0  0  0  0  0  0  0  0
   -3.2191   -8.4939   -3.3562 H   0  0  0  1  0  0  0  0  0  0  0  0
   -2.1450   -7.9115   -2.1066 H   0  0  0  1  0  0  0  0  0  0  0  0
    3.7703    2.2034   -2.6621 H   0  0  0  1  0  0  0  0  0  0  0  0
    2.9872    1.6471   -0.0627 H   0  0  0  1  0  0  0  0  0  0  0  0
    3.7256   -0.5101    0.3459 H   0  0  0  1  0  0  0  0  0  0  0  0
    4.4334   -0.6108   -1.2488 H   0  0  0  1  0  0  0  0  0  0  0  0
    6.4126   -0.6588    0.0021 H   0  0  0  1  0  0  0  0  0  0  0  0
    7.0382    1.9491    0.1714 H   0  0  0  1  0  0  0  0  0  0  0  0
    6.6235    1.3161   -1.4040 H   0  0  0  1  0  0  0  0  0  0  0  0
    4.8653    2.8167    0.5331 H   0  0  0  1  0  0  0  0  0  0  0  0
    5.0535    3.0846   -1.1835 H   0  0  0  1  0  0  0  0  0  0  0  0
    5.1722   -0.4430    2.1093 H   0  0  0  1  0  0  0  0  0  0  0  0
    5.2702    1.1478    1.9676 H   0  0  0  1  0  0  0  0  0  0  0  0
  1  2  4  0  0  0  0
  1  6  4  0  0  0  0
  2  3  4  0  0  0  0
  2 18  1  0  0  0  0
  3  4  4  0  0  0  0
  4  5  4  0  0  0  0
  4  7  4  0  0  0  0
  5  6  4  0  0  0  0
  5  9  4  0  0  0  0
  6 25  1  0  0  0  0
  7  8  4  0  0  0  0
  7 26  1  0  0  0  0
  8  9  4  0  0  0  0
  9 10  1  0  0  0  0
 10 11  4  0  0  0  0
 10 15  4  0  0  0  0
 11 12  4  0  0  0  0
 11 27  1  0  0  0  0
 12 13  4  0  0  0  0
 12 28  1  0  0  0  0
 13 14  4  0  0  0  0
 13 16  1  0  0  0  0
 14 15  4  0  0  0  0
 14 29  1  0  0  0  0
 15 30  1  0  0  0  0
 16 17  1  0  0  0  0
 17 31  1  0  0  0  0
 17 32  1  0  0  0  0
 17 33  1  0  0  0  0
 18 19  1  0  0  0  0
 18 34  1  0  0  0  0
 19 20  1  0  0  0  0
 19 23  1  0  0  0  0
 19 35  1  0  0  0  0
 20 21  1  0  0  0  0
 20 36  1  0  0  0  0
 20 37  1  0  0  0  0
 21 22  1  0  0  0  0
 21 24  1  0  0  0  0
 21 38  1  0  0  0  0
 22 23  1  0  0  0  0
 22 39  1  0  0  0  0
 22 40  1  0  0  0  0
 23 41  1  0  0  0  0
 23 42  1  0  0  0  0
 24 43  1  0  0  0  0
 24 44  1  0  0  0  0
M  END
> <ConfClashScore>
0 

> <ConfOneFourInteractionScore>
-0.985399 

> <ConfScore>
0.0389307 

> <ConfScorePBest>
0.00199385 

> <ConfTolerance>
0.513633 

$$$$
c13.sdf
 OpenBabel04162418043D

 44 47  0  0  0  0  0  0  0  0999 V2000
    2.1080   -0.3773   -1.8533 N   0  0  0  1  0  0  0  0  0  0  0  0
    2.5364    0.5907   -2.6455 C   0  0  0  1  0  0  0  0  0  0  0  0
    2.1525    0.6996   -3.8968 N   0  0  0  1  0  0  0  0  0  0  0  0
    1.2985   -0.1837   -4.4201 C   0  0  0  1  0  0  0  0  0  0  0  0
    0.8205   -1.2305   -3.6034 C   0  0  0  1  0  0  0  0  0  0  0  0
    1.2617   -1.2961   -2.2850 C   0  0  0  1  0  0  0  0  0  0  0  0
    0.7018   -0.3513   -5.6890 C   0  0  0  1  0  0  0  0  0  0  0  0
   -0.0689   -1.4010   -5.6537 N   0  0  0  1  0  0  0  0  0  0  0  0
   -0.0256   -1.9781   -4.3778 N   0  0  0  1  0  0  0  0  0  0  0  0
   -0.7969   -3.1367   -4.1257 C   0  0  0  1  0  0  0  0  0  0  0  0
   -0.2941   -4.1393   -3.3181 C   0  0  0  1  0  0  0  0  0  0  0  0
   -1.0522   -5.2722   -3.0667 C   0  0  0  1  0  0  0  0  0  0  0  0
   -2.3085   -5.4018   -3.6280 C   0  0  0  1  0  0  0  0  0  0  0  0
   -2.8127   -4.3962   -4.4382 C   0  0  0  1  0  0  0  0  0  0  0  0
   -2.0568   -3.2665   -4.6888 C   0  0  0  1  0  0  0  0  0  0  0  0
   -3.1664   -6.4400   -3.4862 O   0  0  0  1  0  0  0  0  0  0  0  0
   -2.7479   -7.5268   -2.6459 C   0  0  0  1  0  0  0  0  0  0  0  0
    3.4099    1.5117   -2.1458 N   0  0  0  1  0  0  0  0  0  0  0  0
    3.8705    1.4606   -0.7573 C   0  0  0  1  0  0  0  0  0  0  0  0
    2.6593    1.4939    0.2353 C   0  0  0  1  0  0  0  0  0  0  0  0
    3.2445    0.8341    1.5292 C   0  0  0  1  0  0  0  0  0  0  0  0
    4.3782   -0.1200    1.0586 C   0  0  0  1  0  0  0  0  0  0  0  0
    4.5509    0.1119   -0.4529 C   0  0  0  1  0  0  0  0  0  0  0  0
    3.7909    1.8735    2.4325 N   0  0  0  1  0  0  0  0  0  0  0  0
    0.9319   -2.0528   -1.6523 H   0  0  0  1  0  0  0  0  0  0  0  0
    0.8527    0.2621   -6.5152 H   0  0  0  1  0  0  0  0  0  0  0  0
    0.6529   -4.0435   -2.8990 H   0  0  0  1  0  0  0  0  0  0  0  0
   -0.6756   -6.0248   -2.4557 H   0  0  0  1  0  0  0  0  0  0  0  0
   -3.7596   -4.4918   -4.8573 H   0  0  0  1  0  0  0  0  0  0  0  0
   -2.4334   -2.5139   -5.2999 H   0  0  0  1  0  0  0  0  0  0  0  0
   -1.7265   -7.7673   -2.8551 H   0  0  0  1  0  0  0  0  0  0  0  0
   -3.3618   -8.3820   -2.8371 H   0  0  0  1  0  0  0  0  0  0  0  0
   -2.8437   -7.2409   -1.6192 H   0  0  0  1  0  0  0  0  0  0  0  0
    3.7373    2.2261   -2.7314 H   0  0  0  1  0  0  0  0  0  0  0  0
    4.5385    2.2758   -0.5724 H   0  0  0  1  0  0  0  0  0  0  0  0
    2.3454    2.4991    0.4247 H   0  0  0  1  0  0  0  0  0  0  0  0
    1.8348    0.9281   -0.1455 H   0  0  0  1  0  0  0  0  0  0  0  0
    2.4835    0.2815    2.0397 H   0  0  0  1  0  0  0  0  0  0  0  0
    5.2886    0.1071    1.5729 H   0  0  0  1  0  0  0  0  0  0  0  0
    4.1059   -1.1375    1.2468 H   0  0  0  1  0  0  0  0  0  0  0  0
    4.0807   -0.6745   -1.0054 H   0  0  0  1  0  0  0  0  0  0  0  0
    5.5896    0.1545   -0.7058 H   0  0  0  1  0  0  0  0  0  0  0  0
    4.5068    2.3615    1.9745 H   0  0  0  1  0  0  0  0  0  0  0  0
    4.1499    1.4487    3.2395 H   0  0  0  1  0  0  0  0  0  0  0  0
  1  2  4  0  0  0  0
  1  6  4  0  0  0  0
  2  3  4  0  0  0  0
  2 18  1  0  0  0  0
  3  4  4  0  0  0  0
  4  5  4  0  0  0  0
  4  7  4  0  0  0  0
  5  6  4  0  0  0  0
  5  9  4  0  0  0  0
  6 25  1  0  0  0  0
  7  8  4  0  0  0  0
  7 26  1  0  0  0  0
  8  9  4  0  0  0  0
  9 10  1  0  0  0  0
 10 11  4  0  0  0  0
 10 15  4  0  0  0  0
 11 12  4  0  0  0  0
 11 27  1  0  0  0  0
 12 13  4  0  0  0  0
 12 28  1  0  0  0  0
 13 14  4  0  0  0  0
 13 16  1  0  0  0  0
 14 15  4  0  0  0  0
 14 29  1  0  0  0  0
 15 30  1  0  0  0  0
 16 17  1  0  0  0  0
 17 31  1  0  0  0  0
 17 32  1  0  0  0  0
 17 33  1  0  0  0  0
 18 19  1  0  0  0  0
 18 34  1  0  0  0  0
 19 20  1  0  0  0  0
 19 23  1  0  0  0  0
 19 35  1  0  0  0  0
 20 21  1  0  0  0  0
 20 36  1  0  0  0  0
 20 37  1  0  0  0  0
 21 22  1  0  0  0  0
 21 24  1  0  0  0  0
 21 38  1  0  0  0  0
 22 23  1  0  0  0  0
 22 39  1  0  0  0  0
 22 40  1  0  0  0  0
 23 41  1  0  0  0  0
 23 42  1  0  0  0  0
 24 43  1  0  0  0  0
 24 44  1  0  0  0  0
M  END
> <ConfClashScore>
0 

> <ConfOneFourInteractionScore>
-0.980204 

> <ConfScore>
0.040639 

> <ConfScorePBest>
0.00198052 

> <ConfTolerance>
0.187004 

$$$$
c13.sdf
 OpenBabel04162418043D

 44 47  0  0  0  0  0  0  0  0999 V2000
    2.1080   -0.3773   -1.8532 N   0  0  0  1  0  0  0  0  0  0  0  0
    2.5364    0.5907   -2.6454 C   0  0  0  1  0  0  0  0  0  0  0  0
    2.1525    0.6996   -3.8968 N   0  0  0  1  0  0  0  0  0  0  0  0
    1.2985   -0.1837   -4.4201 C   0  0  0  1  0  0  0  0  0  0  0  0
    0.8204   -1.2304   -3.6033 C   0  0  0  1  0  0  0  0  0  0  0  0
    1.2615   -1.2959   -2.2849 C   0  0  0  1  0  0  0  0  0  0  0  0
    0.7018   -0.3513   -5.6889 C   0  0  0  1  0  0  0  0  0  0  0  0
   -0.0689   -1.4011   -5.6537 N   0  0  0  1  0  0  0  0  0  0  0  0
   -0.0256   -1.9781   -4.3778 N   0  0  0  1  0  0  0  0  0  0  0  0
   -0.7096   -3.1880   -4.1145 C   0  0  0  1  0  0  0  0  0  0  0  0
   -1.8301   -3.5225   -4.8514 C   0  0  0  1  0  0  0  0  0  0  0  0
   -2.4972   -4.7107   -4.5970 C   0  0  0  1  0  0  0  0  0  0  0  0
   -2.0452   -5.5582   -3.6032 C   0  0  0  1  0  0  0  0  0  0  0  0
   -0.9214   -5.2224   -2.8643 C   0  0  0  1  0  0  0  0  0  0  0  0
   -0.2561   -4.0377   -3.1178 C   0  0  0  1  0  0  0  0  0  0  0  0
   -2.7756   -6.6789   -3.4435 O   0  0  0  1  0  0  0  0  0  0  0  0
   -2.2264   -7.6382   -2.5191 C   0  0  0  1  0  0  0  0  0  0  0  0
    3.4098    1.5117   -2.1457 N   0  0  0  1  0  0  0  0  0  0  0  0
    3.8506    1.4762   -0.7482 C   0  0  0  1  0  0  0  0  0  0  0  0
    2.6465    1.5545    0.1934 C   0  0  0  1  0  0  0  0  0  0  0  0
    2.9065    0.5448    1.3186 C   0  0  0  1  0  0  0  0  0  0  0  0
    4.3257    0.0210    1.0730 C   0  0  0  1  0  0  0  0  0  0  0  0
    4.5318    0.1413   -0.4371 C   0  0  0  1  0  0  0  0  0  0  0  0
    2.8185    1.2201    2.6649 N   0  0  0  1  0  0  0  0  0  0  0  0
    0.9318   -2.0526   -1.6522 H   0  0  0  1  0  0  0  0  0  0  0  0
    0.8528    0.2620   -6.5151 H   0  0  0  1  0  0  0  0  0  0  0  0
   -2.1726   -2.8830   -5.5965 H   0  0  0  1  0  0  0  0  0  0  0  0
   -3.3380   -4.9644   -5.1541 H   0  0  0  1  0  0  0  0  0  0  0  0
   -0.5789   -5.8619   -2.1190 H   0  0  0  1  0  0  0  0  0  0  0  0
    0.5846   -3.7840   -2.5607 H   0  0  0  1  0  0  0  0  0  0  0  0
   -1.1578   -7.6055   -2.5632 H   0  0  0  1  0  0  0  0  0  0  0  0
   -2.5641   -8.6192   -2.7808 H   0  0  0  1  0  0  0  0  0  0  0  0
   -2.5495   -7.4022   -1.5266 H   0  0  0  1  0  0  0  0  0  0  0  0
    3.7515    2.2153   -2.7363 H   0  0  0  1  0  0  0  0  0  0  0  0
    4.5215    2.2892   -0.5644 H   0  0  0  1  0  0  0  0  0  0  0  0
    2.5562    2.5416    0.5964 H   0  0  0  1  0  0  0  0  0  0  0  0
    1.7497    1.2997   -0.3317 H   0  0  0  1  0  0  0  0  0  0  0  0
    2.1987   -0.2563    1.2738 H   0  0  0  1  0  0  0  0  0  0  0  0
    5.0430    0.6154    1.5994 H   0  0  0  1  0  0  0  0  0  0  0  0
    4.4097   -0.9993    1.3845 H   0  0  0  1  0  0  0  0  0  0  0  0
    5.5721    0.1689   -0.6860 H   0  0  0  1  0  0  0  0  0  0  0  0
    4.0610   -0.6657   -0.9587 H   0  0  0  1  0  0  0  0  0  0  0  0
    3.5168    1.9041    2.7340 H   0  0  0  1  0  0  0  0  0  0  0  0
    2.9426    0.5540    3.3729 H   0  0  0  1  0  0  0  0  0  0  0  0
  1  2  4  0  0  0  0
  1  6  4  0  0  0  0
  2  3  4  0  0  0  0
  2 18  1  0  0  0  0
  3  4  4  0  0  0  0
  4  5  4  0  0  0  0
  4  7  4  0  0  0  0
  5  6  4  0  0  0  0
  5  9  4  0  0  0  0
  6 25  1  0  0  0  0
  7  8  4  0  0  0  0
  7 26  1  0  0  0  0
  8  9  4  0  0  0  0
  9 10  1  0  0  0  0
 10 11  4  0  0  0  0
 10 15  4  0  0  0  0
 11 12  4  0  0  0  0
 11 27  1  0  0  0  0
 12 13  4  0  0  0  0
 12 28  1  0  0  0  0
 13 14  4  0  0  0  0
 13 16  1  0  0  0  0
 14 15  4  0  0  0  0
 14 29  1  0  0  0  0
 15 30  1  0  0  0  0
 16 17  1  0  0  0  0
 17 31  1  0  0  0  0
 17 32  1  0  0  0  0
 17 33  1  0  0  0  0
 18 19  1  0  0  0  0
 18 34  1  0  0  0  0
 19 20  1  0  0  0  0
 19 23  1  0  0  0  0
 19 35  1  0  0  0  0
 20 21  1  0  0  0  0
 20 36  1  0  0  0  0
 20 37  1  0  0  0  0
 21 22  1  0  0  0  0
 21 24  1  0  0  0  0
 21 38  1  0  0  0  0
 22 23  1  0  0  0  0
 22 39  1  0  0  0  0
 22 40  1  0  0  0  0
 23 41  1  0  0  0  0
 23 42  1  0  0  0  0
 24 43  1  0  0  0  0
 24 44  1  0  0  0  0
M  END
> <ConfClashScore>
0 

> <ConfOneFourInteractionScore>
-0.980204 

> <ConfScore>
0.040639 

> <ConfScorePBest>
0.00196719 

> <ConfTolerance>
0.264041 

$$$$
c13.sdf
 OpenBabel04162418043D

 44 47  0  0  0  0  0  0  0  0999 V2000
    2.1080   -0.3774   -1.8532 N   0  0  0  1  0  0  0  0  0  0  0  0
    2.5363    0.5907   -2.6455 C   0  0  0  1  0  0  0  0  0  0  0  0
    2.1525    0.6996   -3.8968 N   0  0  0  1  0  0  0  0  0  0  0  0
    1.2985   -0.1837   -4.4201 C   0  0  0  1  0  0  0  0  0  0  0  0
    0.8204   -1.2306   -3.6033 C   0  0  0  1  0  0  0  0  0  0  0  0
    1.2616   -1.2960   -2.2849 C   0  0  0  1  0  0  0  0  0  0  0  0
    0.7019   -0.3513   -5.6890 C   0  0  0  1  0  0  0  0  0  0  0  0
   -0.0689   -1.4009   -5.6537 N   0  0  0  1  0  0  0  0  0  0  0  0
   -0.0256   -1.9781   -4.3778 N   0  0  0  1  0  0  0  0  0  0  0  0
   -0.9256   -3.0205   -4.0155 C   0  0  0  1  0  0  0  0  0  0  0  0
   -0.4648   -4.1183   -3.3135 C   0  0  0  1  0  0  0  0  0  0  0  0
   -1.3420   -5.1305   -2.9562 C   0  0  0  1  0  0  0  0  0  0  0  0
   -2.6763   -5.0445   -3.3066 C   0  0  0  1  0  0  0  0  0  0  0  0
   -3.1382   -3.9433   -4.0106 C   0  0  0  1  0  0  0  0  0  0  0  0
   -2.2637   -2.9341   -4.3668 C   0  0  0  1  0  0  0  0  0  0  0  0
   -3.5095   -5.9960   -2.8318 O   0  0  0  1  0  0  0  0  0  0  0  0
   -2.9716   -7.0979   -2.0842 C   0  0  0  1  0  0  0  0  0  0  0  0
    3.4099    1.5117   -2.1456 N   0  0  0  1  0  0  0  0  0  0  0  0
    3.9271    1.4193   -0.7775 C   0  0  0  1  0  0  0  0  0  0  0  0
    4.7269    2.7141   -0.3986 C   0  0  0  1  0  0  0  0  0  0  0  0
    4.1163    3.2618    0.9046 C   0  0  0  1  0  0  0  0  0  0  0  0
    2.6301    2.7768    0.8210 C   0  0  0  1  0  0  0  0  0  0  0  0
    2.7824    1.3701    0.2294 C   0  0  0  1  0  0  0  0  0  0  0  0
    4.8029    2.6896    2.1032 N   0  0  0  1  0  0  0  0  0  0  0  0
    0.9317   -2.0527   -1.6522 H   0  0  0  1  0  0  0  0  0  0  0  0
    0.8529    0.2621   -6.5151 H   0  0  0  1  0  0  0  0  0  0  0  0
    0.5399   -4.1850   -3.0534 H   0  0  0  1  0  0  0  0  0  0  0  0
   -0.9961   -5.9546   -2.4245 H   0  0  0  1  0  0  0  0  0  0  0  0
   -4.1430   -3.8766   -4.2706 H   0  0  0  1  0  0  0  0  0  0  0  0
   -2.6096   -2.1099   -4.8986 H   0  0  0  1  0  0  0  0  0  0  0  0
   -2.1981   -7.5712   -2.6522 H   0  0  0  1  0  0  0  0  0  0  0  0
   -3.7490   -7.8049   -1.8823 H   0  0  0  1  0  0  0  0  0  0  0  0
   -2.5670   -6.7387   -1.1610 H   0  0  0  1  0  0  0  0  0  0  0  0
    3.6990    2.2542   -2.7162 H   0  0  0  1  0  0  0  0  0  0  0  0
    4.5471    0.5518   -0.6879 H   0  0  0  1  0  0  0  0  0  0  0  0
    5.7592    2.4761   -0.2478 H   0  0  0  1  0  0  0  0  0  0  0  0
    4.6383    3.4410   -1.1788 H   0  0  0  1  0  0  0  0  0  0  0  0
    4.1718    4.3299    0.9370 H   0  0  0  1  0  0  0  0  0  0  0  0
    2.0517    3.4073    0.1784 H   0  0  0  1  0  0  0  0  0  0  0  0
    2.1778    2.7433    1.7900 H   0  0  0  1  0  0  0  0  0  0  0  0
    1.8767    1.0797   -0.2607 H   0  0  0  1  0  0  0  0  0  0  0  0
    3.0087    0.6696    1.0060 H   0  0  0  1  0  0  0  0  0  0  0  0
    5.0161    1.7473    1.9394 H   0  0  0  1  0  0  0  0  0  0  0  0
    4.2125    2.7600    2.8823 H   0  0  0  1  0  0  0  0  0  0  0  0
  1  2  4  0  0  0  0
  1  6  4  0  0  0  0
  2  3  4  0  0  0  0
  2 18  1  0  0  0  0
  3  4  4  0  0  0  0
  4  5  4  0  0  0  0
  4  7  4  0  0  0  0
  5  6  4  0  0  0  0
  5  9  4  0  0  0  0
  6 25  1  0  0  0  0
  7  8  4  0  0  0  0
  7 26  1  0  0  0  0
  8  9  4  0  0  0  0
  9 10  1  0  0  0  0
 10 11  4  0  0  0  0
 10 15  4  0  0  0  0
 11 12  4  0  0  0  0
 11 27  1  0  0  0  0
 12 13  4  0  0  0  0
 12 28  1  0  0  0  0
 13 14  4  0  0  0  0
 13 16  1  0  0  0  0
 14 15  4  0  0  0  0
 14 29  1  0  0  0  0
 15 30  1  0  0  0  0
 16 17  1  0  0  0  0
 17 31  1  0  0  0  0
 17 32  1  0  0  0  0
 17 33  1  0  0  0  0
 18 19  1  0  0  0  0
 18 34  1  0  0  0  0
 19 20  1  0  0  0  0
 19 23  1  0  0  0  0
 19 35  1  0  0  0  0
 20 21  1  0  0  0  0
 20 36  1  0  0  0  0
 20 37  1  0  0  0  0
 21 22  1  0  0  0  0
 21 24  1  0  0  0  0
 21 38  1  0  0  0  0
 22 23  1  0  0  0  0
 22 39  1  0  0  0  0
 22 40  1  0  0  0  0
 23 41  1  0  0  0  0
 23 42  1  0  0  0  0
 24 43  1  0  0  0  0
 24 44  1  0  0  0  0
M  END
> <ConfClashScore>
0 

> <ConfOneFourInteractionScore>
-0.985399 

> <ConfScore>
0.0409967 

> <ConfScorePBest>
0.00195387 

> <ConfTolerance>
0.452235 

$$$$
c13.sdf
 OpenBabel04162418043D

 44 47  0  0  0  0  0  0  0  0999 V2000
    2.1079   -0.3774   -1.8533 N   0  0  0  1  0  0  0  0  0  0  0  0
    2.5364    0.5907   -2.6454 C   0  0  0  1  0  0  0  0  0  0  0  0
    2.1526    0.6996   -3.8969 N   0  0  0  1  0  0  0  0  0  0  0  0
    1.2985   -0.1837   -4.4202 C   0  0  0  1  0  0  0  0  0  0  0  0
    0.8205   -1.2305   -3.6033 C   0  0  0  1  0  0  0  0  0  0  0  0
    1.2616   -1.2960   -2.2849 C   0  0  0  1  0  0  0  0  0  0  0  0
    0.7020   -0.3512   -5.6890 C   0  0  0  1  0  0  0  0  0  0  0  0
   -0.0689   -1.4010   -5.6538 N   0  0  0  1  0  0  0  0  0  0  0  0
   -0.0256   -1.9781   -4.3778 N   0  0  0  1  0  0  0  0  0  0  0  0
   -0.7644   -3.1410   -4.0292 C   0  0  0  1  0  0  0  0  0  0  0  0
   -1.3502   -3.9104   -5.0166 C   0  0  0  1  0  0  0  0  0  0  0  0
   -2.1430   -4.9940   -4.6719 C   0  0  0  1  0  0  0  0  0  0  0  0
   -2.3520   -5.3018   -3.3407 C   0  0  0  1  0  0  0  0  0  0  0  0
   -1.7643   -4.5300   -2.3505 C   0  0  0  1  0  0  0  0  0  0  0  0
   -0.9739   -3.4496   -2.6941 C   0  0  0  1  0  0  0  0  0  0  0  0
   -3.1059   -6.3262   -2.8855 O   0  0  0  1  0  0  0  0  0  0  0  0
   -3.8618   -7.1162   -3.8165 C   0  0  0  1  0  0  0  0  0  0  0  0
    3.4098    1.5117   -2.1456 N   0  0  0  1  0  0  0  0  0  0  0  0
    3.8906    2.6274   -2.9512 C   0  0  0  1  0  0  0  0  0  0  0  0
    5.1219    3.2774   -2.3199 C   0  0  0  1  0  0  0  0  0  0  0  0
    5.8202    4.0013   -3.4764 C   0  0  0  1  0  0  0  0  0  0  0  0
    5.4500    3.2062   -4.7350 C   0  0  0  1  0  0  0  0  0  0  0  0
    4.4371    2.1457   -4.2973 C   0  0  0  1  0  0  0  0  0  0  0  0
    5.3343    5.3977   -3.5833 N   0  0  0  1  0  0  0  0  0  0  0  0
    0.9317   -2.0527   -1.6523 H   0  0  0  1  0  0  0  0  0  0  0  0
    0.8529    0.2620   -6.5152 H   0  0  0  1  0  0  0  0  0  0  0  0
   -1.1963   -3.6765   -6.0182 H   0  0  0  1  0  0  0  0  0  0  0  0
   -2.5807   -5.5754   -5.4149 H   0  0  0  1  0  0  0  0  0  0  0  0
   -1.9183   -4.7640   -1.3490 H   0  0  0  1  0  0  0  0  0  0  0  0
   -0.5362   -2.8682   -1.9512 H   0  0  0  1  0  0  0  0  0  0  0  0
   -4.6851   -6.5416   -4.1867 H   0  0  0  1  0  0  0  0  0  0  0  0
   -4.2309   -7.9914   -3.3240 H   0  0  0  1  0  0  0  0  0  0  0  0
   -3.2326   -7.4042   -4.6327 H   0  0  0  1  0  0  0  0  0  0  0  0
    3.7222    1.4209   -1.2212 H   0  0  0  1  0  0  0  0  0  0  0  0
    3.1016    3.3379   -3.0842 H   0  0  0  1  0  0  0  0  0  0  0  0
    4.8327    3.9730   -1.5600 H   0  0  0  1  0  0  0  0  0  0  0  0
    5.7653    2.5341   -1.8976 H   0  0  0  1  0  0  0  0  0  0  0  0
    6.8803    4.0020   -3.3322 H   0  0  0  1  0  0  0  0  0  0  0  0
    6.3204    2.7385   -5.1456 H   0  0  0  1  0  0  0  0  0  0  0  0
    5.0139    3.8541   -5.4663 H   0  0  0  1  0  0  0  0  0  0  0  0
    4.9159    1.1952   -4.1871 H   0  0  0  1  0  0  0  0  0  0  0  0
    3.6465    2.0664   -5.0141 H   0  0  0  1  0  0  0  0  0  0  0  0
    5.7007    5.9290   -2.8457 H   0  0  0  1  0  0  0  0  0  0  0  0
    4.3553    5.4072   -3.5376 H   0  0  0  1  0  0  0  0  0  0  0  0
  1  2  4  0  0  0  0
  1  6  4  0  0  0  0
  2  3  4  0  0  0  0
  2 18  1  0  0  0  0
  3  4  4  0  0  0  0
  4  5  4  0  0  0  0
  4  7  4  0  0  0  0
  5  6  4  0  0  0  0
  5  9  4  0  0  0  0
  6 25  1  0  0  0  0
  7  8  4  0  0  0  0
  7 26  1  0  0  0  0
  8  9  4  0  0  0  0
  9 10  1  0  0  0  0
 10 11  4  0  0  0  0
 10 15  4  0  0  0  0
 11 12  4  0  0  0  0
 11 27  1  0  0  0  0
 12 13  4  0  0  0  0
 12 28  1  0  0  0  0
 13 14  4  0  0  0  0
 13 16  1  0  0  0  0
 14 15  4  0  0  0  0
 14 29  1  0  0  0  0
 15 30  1  0  0  0  0
 16 17  1  0  0  0  0
 17 31  1  0  0  0  0
 17 32  1  0  0  0  0
 17 33  1  0  0  0  0
 18 19  1  0  0  0  0
 18 34  1  0  0  0  0
 19 20  1  0  0  0  0
 19 23  1  0  0  0  0
 19 35  1  0  0  0  0
 20 21  1  0  0  0  0
 20 36  1  0  0  0  0
 20 37  1  0  0  0  0
 21 22  1  0  0  0  0
 21 24  1  0  0  0  0
 21 38  1  0  0  0  0
 22 23  1  0  0  0  0
 22 39  1  0  0  0  0
 22 40  1  0  0  0  0
 23 41  1  0  0  0  0
 23 42  1  0  0  0  0
 24 43  1  0  0  0  0
 24 44  1  0  0  0  0
M  END
> <ConfClashScore>
0 

> <ConfOneFourInteractionScore>
-0.985399 

> <ConfScore>
0.0459834 

> <ConfScorePBest>
0.00194054 

> <ConfTolerance>
0.413288 

$$$$
c13.sdf
 OpenBabel04162418043D

 44 47  0  0  0  0  0  0  0  0999 V2000
    2.1080   -0.3773   -1.8532 N   0  0  0  1  0  0  0  0  0  0  0  0
    2.5364    0.5907   -2.6455 C   0  0  0  1  0  0  0  0  0  0  0  0
    2.1525    0.6997   -3.8968 N   0  0  0  1  0  0  0  0  0  0  0  0
    1.2985   -0.1838   -4.4201 C   0  0  0  1  0  0  0  0  0  0  0  0
    0.8205   -1.2304   -3.6034 C   0  0  0  1  0  0  0  0  0  0  0  0
    1.2616   -1.2960   -2.2849 C   0  0  0  1  0  0  0  0  0  0  0  0
    0.7019   -0.3513   -5.6890 C   0  0  0  1  0  0  0  0  0  0  0  0
   -0.0689   -1.4010   -5.6537 N   0  0  0  1  0  0  0  0  0  0  0  0
   -0.0256   -1.9781   -4.3778 N   0  0  0  1  0  0  0  0  0  0  0  0
   -0.7583   -3.1316   -4.0320 C   0  0  0  1  0  0  0  0  0  0  0  0
   -1.8969   -3.4104   -4.7642 C   0  0  0  1  0  0  0  0  0  0  0  0
   -2.6518   -4.5350   -4.4699 C   0  0  0  1  0  0  0  0  0  0  0  0
   -2.2691   -5.3746   -3.4410 C   0  0  0  1  0  0  0  0  0  0  0  0
   -1.1270   -5.0948   -2.7067 C   0  0  0  1  0  0  0  0  0  0  0  0
   -0.3742   -3.9735   -3.0000 C   0  0  0  1  0  0  0  0  0  0  0  0
   -3.0096   -6.4705   -3.1501 O   0  0  0  1  0  0  0  0  0  0  0  0
   -4.1688   -6.7135   -3.9622 C   0  0  0  1  0  0  0  0  0  0  0  0
    3.4009    1.5329   -2.2122 N   0  0  0  1  0  0  0  0  0  0  0  0
    3.9151    2.6164   -3.0513 C   0  0  0  1  0  0  0  0  0  0  0  0
    4.6132    2.0542   -4.2927 C   0  0  0  1  0  0  0  0  0  0  0  0
    4.2995    3.0449   -5.4220 C   0  0  0  1  0  0  0  0  0  0  0  0
    3.4174    4.1347   -4.8039 C   0  0  0  1  0  0  0  0  0  0  0  0
    2.7648    3.4632   -3.6069 C   0  0  0  1  0  0  0  0  0  0  0  0
    5.5453    3.6327   -5.9459 N   0  0  0  1  0  0  0  0  0  0  0  0
    0.9318   -2.0526   -1.6523 H   0  0  0  1  0  0  0  0  0  0  0  0
    0.8529    0.2621   -6.5152 H   0  0  0  1  0  0  0  0  0  0  0  0
   -2.1872   -2.7764   -5.5358 H   0  0  0  1  0  0  0  0  0  0  0  0
   -3.5064   -4.7471   -5.0235 H   0  0  0  1  0  0  0  0  0  0  0  0
   -0.8368   -5.7287   -1.9349 H   0  0  0  1  0  0  0  0  0  0  0  0
    0.4803   -3.7614   -2.4465 H   0  0  0  1  0  0  0  0  0  0  0  0
   -4.6094   -5.7802   -4.2444 H   0  0  0  1  0  0  0  0  0  0  0  0
   -4.8791   -7.2894   -3.4063 H   0  0  0  1  0  0  0  0  0  0  0  0
   -3.8818   -7.2523   -4.8410 H   0  0  0  1  0  0  0  0  0  0  0  0
    3.7021    1.4887   -1.2806 H   0  0  0  1  0  0  0  0  0  0  0  0
    4.5883    3.2215   -2.4806 H   0  0  0  1  0  0  0  0  0  0  0  0
    5.6692    1.9924   -4.1322 H   0  0  0  1  0  0  0  0  0  0  0  0
    4.2304    1.0836   -4.5297 H   0  0  0  1  0  0  0  0  0  0  0  0
    3.7771    2.5504   -6.2142 H   0  0  0  1  0  0  0  0  0  0  0  0
    2.6771    4.4636   -5.5030 H   0  0  0  1  0  0  0  0  0  0  0  0
    4.0102    4.9693   -4.4924 H   0  0  0  1  0  0  0  0  0  0  0  0
    1.9405    2.8503   -3.9066 H   0  0  0  1  0  0  0  0  0  0  0  0
    2.4316    4.1845   -2.8902 H   0  0  0  1  0  0  0  0  0  0  0  0
    6.0677    2.9398   -6.4013 H   0  0  0  1  0  0  0  0  0  0  0  0
    6.0690    4.0019   -5.2045 H   0  0  0  1  0  0  0  0  0  0  0  0
  1  2  4  0  0  0  0
  1  6  4  0  0  0  0
  2  3  4  0  0  0  0
  2 18  1  0  0  0  0
  3  4  4  0  0  0  0
  4  5  4  0  0  0  0
  4  7  4  0  0  0  0
  5  6  4  0  0  0  0
  5  9  4  0  0  0  0
  6 25  1  0  0  0  0
  7  8  4  0  0  0  0
  7 26  1  0  0  0  0
  8  9  4  0  0  0  0
  9 10  1  0  0  0  0
 10 11  4  0  0  0  0
 10 15  4  0  0  0  0
 11 12  4  0  0  0  0
 11 27  1  0  0  0  0
 12 13  4  0  0  0  0
 12 28  1  0  0  0  0
 13 14  4  0  0  0  0
 13 16  1  0  0  0  0
 14 15  4  0  0  0  0
 14 29  1  0  0  0  0
 15 30  1  0  0  0  0
 16 17  1  0  0  0  0
 17 31  1  0  0  0  0
 17 32  1  0  0  0  0
 17 33  1  0  0  0  0
 18 19  1  0  0  0  0
 18 34  1  0  0  0  0
 19 20  1  0  0  0  0
 19 23  1  0  0  0  0
 19 35  1  0  0  0  0
 20 21  1  0  0  0  0
 20 36  1  0  0  0  0
 20 37  1  0  0  0  0
 21 22  1  0  0  0  0
 21 24  1  0  0  0  0
 21 38  1  0  0  0  0
 22 23  1  0  0  0  0
 22 39  1  0  0  0  0
 22 40  1  0  0  0  0
 23 41  1  0  0  0  0
 23 42  1  0  0  0  0
 24 43  1  0  0  0  0
 24 44  1  0  0  0  0
M  END
> <ConfClashScore>
0 

> <ConfOneFourInteractionScore>
-0.980204 

> <ConfScore>
0.0523473 

> <ConfScorePBest>
0.00192721 

> <ConfTolerance>
0.26778 

$$$$
c13.sdf
 OpenBabel04162418043D

 44 47  0  0  0  0  0  0  0  0999 V2000
    2.1079   -0.3774   -1.8532 N   0  0  0  1  0  0  0  0  0  0  0  0
    2.5364    0.5907   -2.6455 C   0  0  0  1  0  0  0  0  0  0  0  0
    2.1526    0.6997   -3.8968 N   0  0  0  1  0  0  0  0  0  0  0  0
    1.2985   -0.1837   -4.4201 C   0  0  0  1  0  0  0  0  0  0  0  0
    0.8204   -1.2305   -3.6033 C   0  0  0  1  0  0  0  0  0  0  0  0
    1.2616   -1.2960   -2.2850 C   0  0  0  1  0  0  0  0  0  0  0  0
    0.7019   -0.3513   -5.6890 C   0  0  0  1  0  0  0  0  0  0  0  0
   -0.0689   -1.4010   -5.6538 N   0  0  0  1  0  0  0  0  0  0  0  0
   -0.0256   -1.9781   -4.3778 N   0  0  0  1  0  0  0  0  0  0  0  0
   -0.8674   -3.0856   -4.0667 C   0  0  0  1  0  0  0  0  0  0  0  0
   -1.2190   -4.0307   -5.0119 C   0  0  0  1  0  0  0  0  0  0  0  0
   -1.9561   -5.1435   -4.6383 C   0  0  0  1  0  0  0  0  0  0  0  0
   -2.3441   -5.3054   -3.3216 C   0  0  0  1  0  0  0  0  0  0  0  0
   -1.9915   -4.3575   -2.3737 C   0  0  0  1  0  0  0  0  0  0  0  0
   -1.2564   -3.2478   -2.7462 C   0  0  0  1  0  0  0  0  0  0  0  0
   -3.0621   -6.4236   -3.0779 O   0  0  0  1  0  0  0  0  0  0  0  0
   -3.4035   -6.7637   -1.7251 C   0  0  0  1  0  0  0  0  0  0  0  0
    3.4220    1.5558   -2.2015 N   0  0  0  1  0  0  0  0  0  0  0  0
    3.8825    1.4757   -0.8128 C   0  0  0  1  0  0  0  0  0  0  0  0
    4.6615    2.7774   -0.4243 C   0  0  0  1  0  0  0  0  0  0  0  0
    3.5447    3.6875    0.1905 C   0  0  0  1  0  0  0  0  0  0  0  0
    2.6556    2.6960    0.9656 C   0  0  0  1  0  0  0  0  0  0  0  0
    2.6671    1.3893    0.1530 C   0  0  0  1  0  0  0  0  0  0  0  0
    4.1342    4.7079    1.1107 N   0  0  0  1  0  0  0  0  0  0  0  0
    0.9318   -2.0527   -1.6523 H   0  0  0  1  0  0  0  0  0  0  0  0
    0.8529    0.2621   -6.5152 H   0  0  0  1  0  0  0  0  0  0  0  0
   -0.9305   -3.9069   -6.0035 H   0  0  0  1  0  0  0  0  0  0  0  0
   -2.2173   -5.8567   -5.3488 H   0  0  0  1  0  0  0  0  0  0  0  0
   -2.2799   -4.4812   -1.3822 H   0  0  0  1  0  0  0  0  0  0  0  0
   -0.9953   -2.5346   -2.0358 H   0  0  0  1  0  0  0  0  0  0  0  0
   -2.6174   -7.3481   -1.2944 H   0  0  0  1  0  0  0  0  0  0  0  0
   -4.3123   -7.3286   -1.7181 H   0  0  0  1  0  0  0  0  0  0  0  0
   -3.5353   -5.8680   -1.1548 H   0  0  0  1  0  0  0  0  0  0  0  0
    3.7316    2.2703   -2.7965 H   0  0  0  1  0  0  0  0  0  0  0  0
    4.5115    0.6183   -0.6940 H   0  0  0  1  0  0  0  0  0  0  0  0
    5.4254    2.5677    0.2950 H   0  0  0  1  0  0  0  0  0  0  0  0
    5.0989    3.2353   -1.2867 H   0  0  0  1  0  0  0  0  0  0  0  0
    2.9869    4.1799   -0.5786 H   0  0  0  1  0  0  0  0  0  0  0  0
    1.6582    3.0752    1.0452 H   0  0  0  1  0  0  0  0  0  0  0  0
    3.0531    2.5280    1.9448 H   0  0  0  1  0  0  0  0  0  0  0  0
    2.7747    0.5491    0.8069 H   0  0  0  1  0  0  0  0  0  0  0  0
    1.7590    1.2938   -0.4048 H   0  0  0  1  0  0  0  0  0  0  0  0
    4.7036    5.3197    0.5991 H   0  0  0  1  0  0  0  0  0  0  0  0
    4.6714    4.2580    1.7959 H   0  0  0  1  0  0  0  0  0  0  0  0
  1  2  4  0  0  0  0
  1  6  4  0  0  0  0
  2  3  4  0  0  0  0
  2 18  1  0  0  0  0
  3  4  4  0  0  0  0
  4  5  4  0  0  0  0
  4  7  4  0  0  0  0
  5  6  4  0  0  0  0
  5  9  4  0  0  0  0
  6 25  1  0  0  0  0
  7  8  4  0  0  0  0
  7 26  1  0  0  0  0
  8  9  4  0  0  0  0
  9 10  1  0  0  0  0
 10 11  4  0  0  0  0
 10 15  4  0  0  0  0
 11 12  4  0  0  0  0
 11 27  1  0  0  0  0
 12 13  4  0  0  0  0
 12 28  1  0  0  0  0
 13 14  4  0  0  0  0
 13 16  1  0  0  0  0
 14 15  4  0  0  0  0
 14 29  1  0  0  0  0
 15 30  1  0  0  0  0
 16 17  1  0  0  0  0
 17 31  1  0  0  0  0
 17 32  1  0  0  0  0
 17 33  1  0  0  0  0
 18 19  1  0  0  0  0
 18 34  1  0  0  0  0
 19 20  1  0  0  0  0
 19 23  1  0  0  0  0
 19 35  1  0  0  0  0
 20 21  1  0  0  0  0
 20 36  1  0  0  0  0
 20 37  1  0  0  0  0
 21 22  1  0  0  0  0
 21 24  1  0  0  0  0
 21 38  1  0  0  0  0
 22 23  1  0  0  0  0
 22 39  1  0  0  0  0
 22 40  1  0  0  0  0
 23 41  1  0  0  0  0
 23 42  1  0  0  0  0
 24 43  1  0  0  0  0
 24 44  1  0  0  0  0
M  END
> <ConfClashScore>
0 

> <ConfOneFourInteractionScore>
-0.981848 

> <ConfScore>
0.0581278 

> <ConfScorePBest>
0.00191388 

> <ConfTolerance>
0.46196 

$$$$
c13.sdf
 OpenBabel04162418043D

 44 47  0  0  0  0  0  0  0  0999 V2000
    2.1079   -0.3773   -1.8532 N   0  0  0  1  0  0  0  0  0  0  0  0
    2.5364    0.5907   -2.6455 C   0  0  0  1  0  0  0  0  0  0  0  0
    2.1526    0.6996   -3.8968 N   0  0  0  1  0  0  0  0  0  0  0  0
    1.2985   -0.1838   -4.4201 C   0  0  0  1  0  0  0  0  0  0  0  0
    0.8204   -1.2304   -3.6033 C   0  0  0  1  0  0  0  0  0  0  0  0
    1.2614   -1.2960   -2.2849 C   0  0  0  1  0  0  0  0  0  0  0  0
    0.7020   -0.3512   -5.6890 C   0  0  0  1  0  0  0  0  0  0  0  0
   -0.0689   -1.4010   -5.6537 N   0  0  0  1  0  0  0  0  0  0  0  0
   -0.0256   -1.9781   -4.3778 N   0  0  0  1  0  0  0  0  0  0  0  0
   -0.7779   -3.1328   -4.0822 C   0  0  0  1  0  0  0  0  0  0  0  0
   -0.1878   -4.3245   -3.7056 C   0  0  0  1  0  0  0  0  0  0  0  0
   -0.9761   -5.4285   -3.4210 C   0  0  0  1  0  0  0  0  0  0  0  0
   -2.3519   -5.3393   -3.5188 C   0  0  0  1  0  0  0  0  0  0  0  0
   -2.9437   -4.1440   -3.8966 C   0  0  0  1  0  0  0  0  0  0  0  0
   -2.1578   -3.0430   -4.1805 C   0  0  0  1  0  0  0  0  0  0  0  0
   -3.2211   -6.3480   -3.2717 O   0  0  0  1  0  0  0  0  0  0  0  0
   -2.6644   -7.6130   -2.8815 C   0  0  0  1  0  0  0  0  0  0  0  0
    3.4221    1.5433   -2.1762 N   0  0  0  1  0  0  0  0  0  0  0  0
    3.7389    2.7076   -2.9958 C   0  0  0  1  0  0  0  0  0  0  0  0
    4.3459    2.2721   -4.3354 C   0  0  0  1  0  0  0  0  0  0  0  0
    3.4933    2.9183   -5.4300 C   0  0  0  1  0  0  0  0  0  0  0  0
    2.7355    4.0577   -4.7442 C   0  0  0  1  0  0  0  0  0  0  0  0
    2.4610    3.4716   -3.3592 C   0  0  0  1  0  0  0  0  0  0  0  0
    4.3560    3.4487   -6.5114 N   0  0  0  1  0  0  0  0  0  0  0  0
    0.9316   -2.0526   -1.6523 H   0  0  0  1  0  0  0  0  0  0  0  0
    0.8530    0.2621   -6.5152 H   0  0  0  1  0  0  0  0  0  0  0  0
    0.8476   -4.3928   -3.6359 H   0  0  0  1  0  0  0  0  0  0  0  0
   -0.5323   -6.3242   -3.1337 H   0  0  0  1  0  0  0  0  0  0  0  0
   -3.9790   -4.0756   -3.9663 H   0  0  0  1  0  0  0  0  0  0  0  0
   -2.6016   -2.1474   -4.4677 H   0  0  0  1  0  0  0  0  0  0  0  0
   -1.8327   -7.4509   -2.2281 H   0  0  0  1  0  0  0  0  0  0  0  0
   -2.3362   -8.1417   -3.7519 H   0  0  0  1  0  0  0  0  0  0  0  0
   -3.4097   -8.1889   -2.3737 H   0  0  0  1  0  0  0  0  0  0  0  0
    3.8364    1.4364   -1.2946 H   0  0  0  1  0  0  0  0  0  0  0  0
    4.4175    3.3433   -2.4662 H   0  0  0  1  0  0  0  0  0  0  0  0
    4.3167    1.2063   -4.4252 H   0  0  0  1  0  0  0  0  0  0  0  0
    5.3588    2.6091   -4.4091 H   0  0  0  1  0  0  0  0  0  0  0  0
    2.8068    2.2058   -5.8376 H   0  0  0  1  0  0  0  0  0  0  0  0
    3.3367    4.9405   -4.6801 H   0  0  0  1  0  0  0  0  0  0  0  0
    1.8244    4.2827   -5.2582 H   0  0  0  1  0  0  0  0  0  0  0  0
    2.2738    4.2513   -2.6507 H   0  0  0  1  0  0  0  0  0  0  0  0
    1.6218    2.8085   -3.3905 H   0  0  0  1  0  0  0  0  0  0  0  0
    4.7028    2.7053   -7.0475 H   0  0  0  1  0  0  0  0  0  0  0  0
    5.1042    3.9448   -6.1184 H   0  0  0  1  0  0  0  0  0  0  0  0
  1  2  4  0  0  0  0
  1  6  4  0  0  0  0
  2  3  4  0  0  0  0
  2 18  1  0  0  0  0
  3  4  4  0  0  0  0
  4  5  4  0  0  0  0
  4  7  4  0  0  0  0
  5  6  4  0  0  0  0
  5  9  4  0  0  0  0
  6 25  1  0  0  0  0
  7  8  4  0  0  0  0
  7 26  1  0  0  0  0
  8  9  4  0  0  0  0
  9 10  1  0  0  0  0
 10 11  4  0  0  0  0
 10 15  4  0  0  0  0
 11 12  4  0  0  0  0
 11 27  1  0  0  0  0
 12 13  4  0  0  0  0
 12 28  1  0  0  0  0
 13 14  4  0  0  0  0
 13 16  1  0  0  0  0
 14 15  4  0  0  0  0
 14 29  1  0  0  0  0
 15 30  1  0  0  0  0
 16 17  1  0  0  0  0
 17 31  1  0  0  0  0
 17 32  1  0  0  0  0
 17 33  1  0  0  0  0
 18 19  1  0  0  0  0
 18 34  1  0  0  0  0
 19 20  1  0  0  0  0
 19 23  1  0  0  0  0
 19 35  1  0  0  0  0
 20 21  1  0  0  0  0
 20 36  1  0  0  0  0
 20 37  1  0  0  0  0
 21 22  1  0  0  0  0
 21 24  1  0  0  0  0
 21 38  1  0  0  0  0
 22 23  1  0  0  0  0
 22 39  1  0  0  0  0
 22 40  1  0  0  0  0
 23 41  1  0  0  0  0
 23 42  1  0  0  0  0
 24 43  1  0  0  0  0
 24 44  1  0  0  0  0
M  END
> <ConfClashScore>
0 

> <ConfOneFourInteractionScore>
-0.980204 

> <ConfScore>
0.0602085 

> <ConfScorePBest>
0.00190055 

> <ConfTolerance>
0.470718 

$$$$
c13.sdf
 OpenBabel04162418043D

 44 47  0  0  0  0  0  0  0  0999 V2000
    2.1079   -0.3774   -1.8532 N   0  0  0  1  0  0  0  0  0  0  0  0
    2.5364    0.5907   -2.6455 C   0  0  0  1  0  0  0  0  0  0  0  0
    2.1525    0.6996   -3.8968 N   0  0  0  1  0  0  0  0  0  0  0  0
    1.2986   -0.1837   -4.4201 C   0  0  0  1  0  0  0  0  0  0  0  0
    0.8204   -1.2304   -3.6034 C   0  0  0  1  0  0  0  0  0  0  0  0
    1.2615   -1.2960   -2.2849 C   0  0  0  1  0  0  0  0  0  0  0  0
    0.7019   -0.3512   -5.6890 C   0  0  0  1  0  0  0  0  0  0  0  0
   -0.0690   -1.4010   -5.6538 N   0  0  0  1  0  0  0  0  0  0  0  0
   -0.0256   -1.9781   -4.3778 N   0  0  0  1  0  0  0  0  0  0  0  0
   -0.7942   -3.1326   -4.1266 C   0  0  0  1  0  0  0  0  0  0  0  0
   -0.9273   -3.6725   -2.8613 C   0  0  0  1  0  0  0  0  0  0  0  0
   -1.7002   -4.8070   -2.6698 C   0  0  0  1  0  0  0  0  0  0  0  0
   -2.3338   -5.4014   -3.7448 C   0  0  0  1  0  0  0  0  0  0  0  0
   -2.2003   -4.8598   -5.0138 C   0  0  0  1  0  0  0  0  0  0  0  0
   -1.4296   -3.7285   -5.2049 C   0  0  0  1  0  0  0  0  0  0  0  0
   -3.1076   -6.5110   -3.6814 O   0  0  0  1  0  0  0  0  0  0  0  0
   -3.2902   -7.1106   -2.3893 C   0  0  0  1  0  0  0  0  0  0  0  0
    3.3977    1.4988   -2.1526 N   0  0  0  1  0  0  0  0  0  0  0  0
    3.9038    1.5628   -0.7778 C   0  0  0  1  0  0  0  0  0  0  0  0
    2.7282    1.4932    0.2672 C   0  0  0  1  0  0  0  0  0  0  0  0
    3.4897    1.0357    1.5526 C   0  0  0  1  0  0  0  0  0  0  0  0
    4.6782    0.1924    1.0862 C   0  0  0  1  0  0  0  0  0  0  0  0
    4.7160    0.3226   -0.4303 C   0  0  0  1  0  0  0  0  0  0  0  0
    3.9724    2.2273    2.3161 N   0  0  0  1  0  0  0  0  0  0  0  0
    0.9317   -2.0527   -1.6523 H   0  0  0  1  0  0  0  0  0  0  0  0
    0.8529    0.2621   -6.5152 H   0  0  0  1  0  0  0  0  0  0  0  0
   -0.4473   -3.2276   -2.0530 H   0  0  0  1  0  0  0  0  0  0  0  0
   -1.8036   -5.2111   -1.7171 H   0  0  0  1  0  0  0  0  0  0  0  0
   -2.6802   -5.3047   -5.8222 H   0  0  0  1  0  0  0  0  0  0  0  0
   -1.3262   -3.3245   -6.1576 H   0  0  0  1  0  0  0  0  0  0  0  0
   -3.1410   -6.3729   -1.6289 H   0  0  0  1  0  0  0  0  0  0  0  0
   -2.5827   -7.9030   -2.2609 H   0  0  0  1  0  0  0  0  0  0  0  0
   -4.2830   -7.5028   -2.3155 H   0  0  0  1  0  0  0  0  0  0  0  0
    3.7187    2.1856   -2.7738 H   0  0  0  1  0  0  0  0  0  0  0  0
    4.4829    2.4537   -0.6515 H   0  0  0  1  0  0  0  0  0  0  0  0
    2.2683    2.4495    0.4038 H   0  0  0  1  0  0  0  0  0  0  0  0
    1.9869    0.7786   -0.0242 H   0  0  0  1  0  0  0  0  0  0  0  0
    2.8445    0.4507    2.1742 H   0  0  0  1  0  0  0  0  0  0  0  0
    4.5412   -0.8308    1.3681 H   0  0  0  1  0  0  0  0  0  0  0  0
    5.5867    0.5620    1.5138 H   0  0  0  1  0  0  0  0  0  0  0  0
    5.7255    0.4358   -0.7664 H   0  0  0  1  0  0  0  0  0  0  0  0
    4.2825   -0.5428   -0.8864 H   0  0  0  1  0  0  0  0  0  0  0  0
    3.2341    2.8605    2.4353 H   0  0  0  1  0  0  0  0  0  0  0  0
    4.6976    2.6611    1.8198 H   0  0  0  1  0  0  0  0  0  0  0  0
  1  2  4  0  0  0  0
  1  6  4  0  0  0  0
  2  3  4  0  0  0  0
  2 18  1  0  0  0  0
  3  4  4  0  0  0  0
  4  5  4  0  0  0  0
  4  7  4  0  0  0  0
  5  6  4  0  0  0  0
  5  9  4  0  0  0  0
  6 25  1  0  0  0  0
  7  8  4  0  0  0  0
  7 26  1  0  0  0  0
  8  9  4  0  0  0  0
  9 10  1  0  0  0  0
 10 11  4  0  0  0  0
 10 15  4  0  0  0  0
 11 12  4  0  0  0  0
 11 27  1  0  0  0  0
 12 13  4  0  0  0  0
 12 28  1  0  0  0  0
 13 14  4  0  0  0  0
 13 16  1  0  0  0  0
 14 15  4  0  0  0  0
 14 29  1  0  0  0  0
 15 30  1  0  0  0  0
 16 17  1  0  0  0  0
 17 31  1  0  0  0  0
 17 32  1  0  0  0  0
 17 33  1  0  0  0  0
 18 19  1  0  0  0  0
 18 34  1  0  0  0  0
 19 20  1  0  0  0  0
 19 23  1  0  0  0  0
 19 35  1  0  0  0  0
 20 21  1  0  0  0  0
 20 36  1  0  0  0  0
 20 37  1  0  0  0  0
 21 22  1  0  0  0  0
 21 24  1  0  0  0  0
 21 38  1  0  0  0  0
 22 23  1  0  0  0  0
 22 39  1  0  0  0  0
 22 40  1  0  0  0  0
 23 41  1  0  0  0  0
 23 42  1  0  0  0  0
 24 43  1  0  0  0  0
 24 44  1  0  0  0  0
M  END
> <ConfClashScore>
0 

> <ConfOneFourInteractionScore>
-0.980204 

> <ConfScore>
0.0618957 

> <ConfScorePBest>
0.00188723 

> <ConfTolerance>
0.293116 

$$$$
c13.sdf
 OpenBabel04162418043D

 44 47  0  0  0  0  0  0  0  0999 V2000
    2.1080   -0.3773   -1.8532 N   0  0  0  1  0  0  0  0  0  0  0  0
    2.5364    0.5907   -2.6454 C   0  0  0  1  0  0  0  0  0  0  0  0
    2.1526    0.6996   -3.8968 N   0  0  0  1  0  0  0  0  0  0  0  0
    1.2986   -0.1837   -4.4201 C   0  0  0  1  0  0  0  0  0  0  0  0
    0.8205   -1.2305   -3.6033 C   0  0  0  1  0  0  0  0  0  0  0  0
    1.2615   -1.2961   -2.2849 C   0  0  0  1  0  0  0  0  0  0  0  0
    0.7019   -0.3513   -5.6889 C   0  0  0  1  0  0  0  0  0  0  0  0
   -0.0690   -1.4010   -5.6537 N   0  0  0  1  0  0  0  0  0  0  0  0
   -0.0256   -1.9781   -4.3778 N   0  0  0  1  0  0  0  0  0  0  0  0
   -0.7857   -3.1448   -4.0791 C   0  0  0  1  0  0  0  0  0  0  0  0
   -0.1556   -4.3688   -3.9578 C   0  0  0  1  0  0  0  0  0  0  0  0
   -0.9053   -5.5168   -3.7540 C   0  0  0  1  0  0  0  0  0  0  0  0
   -2.2830   -5.4383   -3.6775 C   0  0  0  1  0  0  0  0  0  0  0  0
   -2.9148   -4.2104   -3.7991 C   0  0  0  1  0  0  0  0  0  0  0  0
   -2.1674   -3.0656   -4.0023 C   0  0  0  1  0  0  0  0  0  0  0  0
   -3.1174   -6.4877   -3.4868 O   0  0  0  1  0  0  0  0  0  0  0  0
   -2.5214   -7.7909   -3.3920 C   0  0  0  1  0  0  0  0  0  0  0  0
    3.3970    1.4545   -2.0655 N   0  0  0  1  0  0  0  0  0  0  0  0
    3.7307    1.4410   -0.6375 C   0  0  0  1  0  0  0  0  0  0  0  0
    2.4824    1.6652    0.2100 C   0  0  0  1  0  0  0  0  0  0  0  0
    2.5516    0.6949    1.3956 C   0  0  0  1  0  0  0  0  0  0  0  0
    3.1963   -0.5747    0.7451 C   0  0  0  1  0  0  0  0  0  0  0  0
    4.2504    0.0264   -0.2030 C   0  0  0  1  0  0  0  0  0  0  0  0
    3.4103    1.2380    2.4903 N   0  0  0  1  0  0  0  0  0  0  0  0
    0.9317   -2.0526   -1.6522 H   0  0  0  1  0  0  0  0  0  0  0  0
    0.8529    0.2621   -6.5151 H   0  0  0  1  0  0  0  0  0  0  0  0
    0.8808   -4.4287   -4.0195 H   0  0  0  1  0  0  0  0  0  0  0  0
   -0.4309   -6.4375   -3.6587 H   0  0  0  1  0  0  0  0  0  0  0  0
   -3.9513   -4.1506   -3.7375 H   0  0  0  1  0  0  0  0  0  0  0  0
   -2.6418   -2.1449   -4.0976 H   0  0  0  1  0  0  0  0  0  0  0  0
   -1.7058   -7.8617   -4.0809 H   0  0  0  1  0  0  0  0  0  0  0  0
   -3.2529   -8.5353   -3.6281 H   0  0  0  1  0  0  0  0  0  0  0  0
   -2.1617   -7.9468   -2.3964 H   0  0  0  1  0  0  0  0  0  0  0  0
    3.8239    2.1304   -2.6323 H   0  0  0  1  0  0  0  0  0  0  0  0
    4.4651    2.1924   -0.4352 H   0  0  0  1  0  0  0  0  0  0  0  0
    2.4579    2.6745    0.5647 H   0  0  0  1  0  0  0  0  0  0  0  0
    1.6058    1.4697   -0.3716 H   0  0  0  1  0  0  0  0  0  0  0  0
    1.5760    0.4813    1.7796 H   0  0  0  1  0  0  0  0  0  0  0  0
    3.6541   -1.1968    1.4856 H   0  0  0  1  0  0  0  0  0  0  0  0
    2.4688   -1.1415    0.2027 H   0  0  0  1  0  0  0  0  0  0  0  0
    4.3701   -0.5998   -1.0622 H   0  0  0  1  0  0  0  0  0  0  0  0
    5.1881    0.1203    0.3039 H   0  0  0  1  0  0  0  0  0  0  0  0
    3.0886    2.1271    2.7480 H   0  0  0  1  0  0  0  0  0  0  0  0
    4.3363    1.3041    2.1766 H   0  0  0  1  0  0  0  0  0  0  0  0
  1  2  4  0  0  0  0
  1  6  4  0  0  0  0
  2  3  4  0  0  0  0
  2 18  1  0  0  0  0
  3  4  4  0  0  0  0
  4  5  4  0  0  0  0
  4  7  4  0  0  0  0
  5  6  4  0  0  0  0
  5  9  4  0  0  0  0
  6 25  1  0  0  0  0
  7  8  4  0  0  0  0
  7 26  1  0  0  0  0
  8  9  4  0  0  0  0
  9 10  1  0  0  0  0
 10 11  4  0  0  0  0
 10 15  4  0  0  0  0
 11 12  4  0  0  0  0
 11 27  1  0  0  0  0
 12 13  4  0  0  0  0
 12 28  1  0  0  0  0
 13 14  4  0  0  0  0
 13 16  1  0  0  0  0
 14 15  4  0  0  0  0
 14 29  1  0  0  0  0
 15 30  1  0  0  0  0
 16 17  1  0  0  0  0
 17 31  1  0  0  0  0
 17 32  1  0  0  0  0
 17 33  1  0  0  0  0
 18 19  1  0  0  0  0
 18 34  1  0  0  0  0
 19 20  1  0  0  0  0
 19 23  1  0  0  0  0
 19 35  1  0  0  0  0
 20 21  1  0  0  0  0
 20 36  1  0  0  0  0
 20 37  1  0  0  0  0
 21 22  1  0  0  0  0
 21 24  1  0  0  0  0
 21 38  1  0  0  0  0
 22 23  1  0  0  0  0
 22 39  1  0  0  0  0
 22 40  1  0  0  0  0
 23 41  1  0  0  0  0
 23 42  1  0  0  0  0
 24 43  1  0  0  0  0
 24 44  1  0  0  0  0
M  END
> <ConfClashScore>
0 

> <ConfOneFourInteractionScore>
-0.980204 

> <ConfScore>
0.0630305 

> <ConfScorePBest>
0.0018739 

> <ConfTolerance>
0.385935 

$$$$
c13.sdf
 OpenBabel04162418043D

 44 47  0  0  0  0  0  0  0  0999 V2000
    2.1079   -0.3773   -1.8532 N   0  0  0  1  0  0  0  0  0  0  0  0
    2.5363    0.5907   -2.6455 C   0  0  0  1  0  0  0  0  0  0  0  0
    2.1525    0.6996   -3.8969 N   0  0  0  1  0  0  0  0  0  0  0  0
    1.2985   -0.1838   -4.4201 C   0  0  0  1  0  0  0  0  0  0  0  0
    0.8204   -1.2304   -3.6034 C   0  0  0  1  0  0  0  0  0  0  0  0
    1.2614   -1.2959   -2.2849 C   0  0  0  1  0  0  0  0  0  0  0  0
    0.7020   -0.3514   -5.6890 C   0  0  0  1  0  0  0  0  0  0  0  0
   -0.0689   -1.4011   -5.6538 N   0  0  0  1  0  0  0  0  0  0  0  0
   -0.0256   -1.9781   -4.3778 N   0  0  0  1  0  0  0  0  0  0  0  0
   -0.7849   -3.1434   -4.0794 C   0  0  0  1  0  0  0  0  0  0  0  0
   -1.5445   -3.2521   -2.9299 C   0  0  0  1  0  0  0  0  0  0  0  0
   -2.3465   -4.3651   -2.7320 C   0  0  0  1  0  0  0  0  0  0  0  0
   -2.3825   -5.3689   -3.6815 C   0  0  0  1  0  0  0  0  0  0  0  0
   -1.6206   -5.2597   -4.8344 C   0  0  0  1  0  0  0  0  0  0  0  0
   -0.8208   -4.1499   -5.0319 C   0  0  0  1  0  0  0  0  0  0  0  0
   -3.0453   -6.5318   -3.4764 O   0  0  0  1  0  0  0  0  0  0  0  0
   -2.7963   -7.6011   -4.4022 C   0  0  0  1  0  0  0  0  0  0  0  0
    3.3976    1.4989   -2.1527 N   0  0  0  1  0  0  0  0  0  0  0  0
    3.9684    2.6391   -2.8753 C   0  0  0  1  0  0  0  0  0  0  0  0
    4.6889    2.1581   -4.1368 C   0  0  0  1  0  0  0  0  0  0  0  0
    4.3129    3.1574   -5.2335 C   0  0  0  1  0  0  0  0  0  0  0  0
    2.8670    3.4987   -4.8735 C   0  0  0  1  0  0  0  0  0  0  0  0
    2.8525    3.5819   -3.3432 C   0  0  0  1  0  0  0  0  0  0  0  0
    5.1537    4.3270   -5.1859 N   0  0  0  1  0  0  0  0  0  0  0  0
    0.9316   -2.0525   -1.6522 H   0  0  0  1  0  0  0  0  0  0  0  0
    0.8529    0.2619   -6.5152 H   0  0  0  1  0  0  0  0  0  0  0  0
   -1.5144   -2.4987   -2.2135 H   0  0  0  1  0  0  0  0  0  0  0  0
   -2.9212   -4.4451   -1.8688 H   0  0  0  1  0  0  0  0  0  0  0  0
   -1.6507   -6.0130   -5.5508 H   0  0  0  1  0  0  0  0  0  0  0  0
   -0.2461   -4.0700   -5.8950 H   0  0  0  1  0  0  0  0  0  0  0  0
   -3.3524   -8.4661   -4.1068 H   0  0  0  1  0  0  0  0  0  0  0  0
   -1.7517   -7.8332   -4.4061 H   0  0  0  1  0  0  0  0  0  0  0  0
   -3.0991   -7.3008   -5.3835 H   0  0  0  1  0  0  0  0  0  0  0  0
    3.6705    1.3872   -1.2181 H   0  0  0  1  0  0  0  0  0  0  0  0
    4.6499    3.1615   -2.2370 H   0  0  0  1  0  0  0  0  0  0  0  0
    4.3623    1.1739   -4.4009 H   0  0  0  1  0  0  0  0  0  0  0  0
    5.7478    2.1537   -3.9831 H   0  0  0  1  0  0  0  0  0  0  0  0
    4.3765    2.7112   -6.2039 H   0  0  0  1  0  0  0  0  0  0  0  0
    2.5827    4.4361   -5.3043 H   0  0  0  1  0  0  0  0  0  0  0  0
    2.2028    2.7326   -5.2153 H   0  0  0  1  0  0  0  0  0  0  0  0
    3.0483    4.5831   -3.0206 H   0  0  0  1  0  0  0  0  0  0  0  0
    1.9063    3.2617   -2.9597 H   0  0  0  1  0  0  0  0  0  0  0  0
    6.0941    4.0528   -5.1553 H   0  0  0  1  0  0  0  0  0  0  0  0
    4.9401    4.8502   -4.3853 H   0  0  0  1  0  0  0  0  0  0  0  0
  1  2  4  0  0  0  0
  1  6  4  0  0  0  0
  2  3  4  0  0  0  0
  2 18  1  0  0  0  0
  3  4  4  0  0  0  0
  4  5  4  0  0  0  0
  4  7  4  0  0  0  0
  5  6  4  0  0  0  0
  5  9  4  0  0  0  0
  6 25  1  0  0  0  0
  7  8  4  0  0  0  0
  7 26  1  0  0  0  0
  8  9  4  0  0  0  0
  9 10  1  0  0  0  0
 10 11  4  0  0  0  0
 10 15  4  0  0  0  0
 11 12  4  0  0  0  0
 11 27  1  0  0  0  0
 12 13  4  0  0  0  0
 12 28  1  0  0  0  0
 13 14  4  0  0  0  0
 13 16  1  0  0  0  0
 14 15  4  0  0  0  0
 14 29  1  0  0  0  0
 15 30  1  0  0  0  0
 16 17  1  0  0  0  0
 17 31  1  0  0  0  0
 17 32  1  0  0  0  0
 17 33  1  0  0  0  0
 18 19  1  0  0  0  0
 18 34  1  0  0  0  0
 19 20  1  0  0  0  0
 19 23  1  0  0  0  0
 19 35  1  0  0  0  0
 20 21  1  0  0  0  0
 20 36  1  0  0  0  0
 20 37  1  0  0  0  0
 21 22  1  0  0  0  0
 21 24  1  0  0  0  0
 21 38  1  0  0  0  0
 22 23  1  0  0  0  0
 22 39  1  0  0  0  0
 22 40  1  0  0  0  0
 23 41  1  0  0  0  0
 23 42  1  0  0  0  0
 24 43  1  0  0  0  0
 24 44  1  0  0  0  0
M  END
> <ConfClashScore>
0 

> <ConfOneFourInteractionScore>
-0.980204 

> <ConfScore>
0.0636507 

> <ConfScorePBest>
0.00186057 

> <ConfTolerance>
0.320023 

$$$$
c13.sdf
 OpenBabel04162418043D

 44 47  0  0  0  0  0  0  0  0999 V2000
    2.1080   -0.3774   -1.8532 N   0  0  0  1  0  0  0  0  0  0  0  0
    2.5363    0.5907   -2.6455 C   0  0  0  1  0  0  0  0  0  0  0  0
    2.1526    0.6995   -3.8968 N   0  0  0  1  0  0  0  0  0  0  0  0
    1.2986   -0.1837   -4.4201 C   0  0  0  1  0  0  0  0  0  0  0  0
    0.8205   -1.2305   -3.6033 C   0  0  0  1  0  0  0  0  0  0  0  0
    1.2615   -1.2960   -2.2849 C   0  0  0  1  0  0  0  0  0  0  0  0
    0.7020   -0.3513   -5.6890 C   0  0  0  1  0  0  0  0  0  0  0  0
   -0.0689   -1.4011   -5.6537 N   0  0  0  1  0  0  0  0  0  0  0  0
   -0.0256   -1.9781   -4.3778 N   0  0  0  1  0  0  0  0  0  0  0  0
   -0.7779   -3.1328   -4.0821 C   0  0  0  1  0  0  0  0  0  0  0  0
   -1.1143   -3.4862   -2.7890 C   0  0  0  1  0  0  0  0  0  0  0  0
   -1.8610   -4.6304   -2.5553 C   0  0  0  1  0  0  0  0  0  0  0  0
   -2.2645   -5.4209   -3.6149 C   0  0  0  1  0  0  0  0  0  0  0  0
   -1.9270   -5.0664   -4.9118 C   0  0  0  1  0  0  0  0  0  0  0  0
   -1.1826   -3.9254   -5.1450 C   0  0  0  1  0  0  0  0  0  0  0  0
   -2.9896   -6.5416   -3.3861 O   0  0  0  1  0  0  0  0  0  0  0  0
   -3.3801   -7.3156   -4.5310 C   0  0  0  1  0  0  0  0  0  0  0  0
    3.3977    1.4989   -2.1526 N   0  0  0  1  0  0  0  0  0  0  0  0
    3.9808    2.6027   -2.9510 C   0  0  0  1  0  0  0  0  0  0  0  0
    5.1824    3.2437   -2.1851 C   0  0  0  1  0  0  0  0  0  0  0  0
    6.3816    2.3661   -2.7053 C   0  0  0  1  0  0  0  0  0  0  0  0
    6.0480    2.2103   -4.1827 C   0  0  0  1  0  0  0  0  0  0  0  0
    4.5352    2.0620   -4.2708 C   0  0  0  1  0  0  0  0  0  0  0  0
    7.6767    3.0608   -2.5174 N   0  0  0  1  0  0  0  0  0  0  0  0
    0.9317   -2.0527   -1.6523 H   0  0  0  1  0  0  0  0  0  0  0  0
    0.8529    0.2620   -6.5152 H   0  0  0  1  0  0  0  0  0  0  0  0
   -0.8073   -2.8937   -1.9914 H   0  0  0  1  0  0  0  0  0  0  0  0
   -2.1175   -4.8942   -1.5826 H   0  0  0  1  0  0  0  0  0  0  0  0
   -2.2340   -5.6589   -5.7095 H   0  0  0  1  0  0  0  0  0  0  0  0
   -0.9259   -3.6616   -6.1177 H   0  0  0  1  0  0  0  0  0  0  0  0
   -2.5394   -7.8721   -4.8896 H   0  0  0  1  0  0  0  0  0  0  0  0
   -3.7289   -6.6606   -5.3019 H   0  0  0  1  0  0  0  0  0  0  0  0
   -4.1628   -7.9908   -4.2546 H   0  0  0  1  0  0  0  0  0  0  0  0
    3.6548    1.4262   -1.2097 H   0  0  0  1  0  0  0  0  0  0  0  0
    3.2300    3.3407   -3.1419 H   0  0  0  1  0  0  0  0  0  0  0  0
    5.3086    4.2737   -2.4460 H   0  0  0  1  0  0  0  0  0  0  0  0
    5.0633    3.1557   -1.1254 H   0  0  0  1  0  0  0  0  0  0  0  0
    6.4103    1.4171   -2.2119 H   0  0  0  1  0  0  0  0  0  0  0  0
    6.3669    3.0747   -4.7267 H   0  0  0  1  0  0  0  0  0  0  0  0
    6.5283    1.3408   -4.5803 H   0  0  0  1  0  0  0  0  0  0  0  0
    4.1535    2.6288   -5.0942 H   0  0  0  1  0  0  0  0  0  0  0  0
    4.2690    1.0328   -4.3918 H   0  0  0  1  0  0  0  0  0  0  0  0
    7.6964    3.8709   -3.0685 H   0  0  0  1  0  0  0  0  0  0  0  0
    8.4080    2.4659   -2.7854 H   0  0  0  1  0  0  0  0  0  0  0  0
  1  2  4  0  0  0  0
  1  6  4  0  0  0  0
  2  3  4  0  0  0  0
  2 18  1  0  0  0  0
  3  4  4  0  0  0  0
  4  5  4  0  0  0  0
  4  7  4  0  0  0  0
  5  6  4  0  0  0  0
  5  9  4  0  0  0  0
  6 25  1  0  0  0  0
  7  8  4  0  0  0  0
  7 26  1  0  0  0  0
  8  9  4  0  0  0  0
  9 10  1  0  0  0  0
 10 11  4  0  0  0  0
 10 15  4  0  0  0  0
 11 12  4  0  0  0  0
 11 27  1  0  0  0  0
 12 13  4  0  0  0  0
 12 28  1  0  0  0  0
 13 14  4  0  0  0  0
 13 16  1  0  0  0  0
 14 15  4  0  0  0  0
 14 29  1  0  0  0  0
 15 30  1  0  0  0  0
 16 17  1  0  0  0  0
 17 31  1  0  0  0  0
 17 32  1  0  0  0  0
 17 33  1  0  0  0  0
 18 19  1  0  0  0  0
 18 34  1  0  0  0  0
 19 20  1  0  0  0  0
 19 23  1  0  0  0  0
 19 35  1  0  0  0  0
 20 21  1  0  0  0  0
 20 36  1  0  0  0  0
 20 37  1  0  0  0  0
 21 22  1  0  0  0  0
 21 24  1  0  0  0  0
 21 38  1  0  0  0  0
 22 23  1  0  0  0  0
 22 39  1  0  0  0  0
 22 40  1  0  0  0  0
 23 41  1  0  0  0  0
 23 42  1  0  0  0  0
 24 43  1  0  0  0  0
 24 44  1  0  0  0  0
M  END
> <ConfClashScore>
0 

> <ConfOneFourInteractionScore>
-0.985399 

> <ConfScore>
0.0639523 

> <ConfScorePBest>
0.00184724 

> <ConfTolerance>
0.682188 

$$$$
c13.sdf
 OpenBabel04162418043D

 44 47  0  0  0  0  0  0  0  0999 V2000
    2.1079   -0.3772   -1.8532 N   0  0  0  1  0  0  0  0  0  0  0  0
    2.5363    0.5907   -2.6455 C   0  0  0  1  0  0  0  0  0  0  0  0
    2.1525    0.6996   -3.8968 N   0  0  0  1  0  0  0  0  0  0  0  0
    1.2986   -0.1837   -4.4201 C   0  0  0  1  0  0  0  0  0  0  0  0
    0.8204   -1.2304   -3.6033 C   0  0  0  1  0  0  0  0  0  0  0  0
    1.2614   -1.2959   -2.2850 C   0  0  0  1  0  0  0  0  0  0  0  0
    0.7019   -0.3514   -5.6890 C   0  0  0  1  0  0  0  0  0  0  0  0
   -0.0690   -1.4011   -5.6537 N   0  0  0  1  0  0  0  0  0  0  0  0
   -0.0256   -1.9781   -4.3778 N   0  0  0  1  0  0  0  0  0  0  0  0
   -0.9015   -3.0386   -4.0695 C   0  0  0  1  0  0  0  0  0  0  0  0
   -2.2188   -2.7224   -3.7962 C   0  0  0  1  0  0  0  0  0  0  0  0
   -3.1239   -3.7273   -3.4923 C   0  0  0  1  0  0  0  0  0  0  0  0
   -2.7080   -5.0450   -3.4573 C   0  0  0  1  0  0  0  0  0  0  0  0
   -1.3866   -5.3619   -3.7315 C   0  0  0  1  0  0  0  0  0  0  0  0
   -0.4840   -4.3600   -4.0346 C   0  0  0  1  0  0  0  0  0  0  0  0
   -3.5354   -6.0668   -3.1641 O   0  0  0  1  0  0  0  0  0  0  0  0
   -4.9089   -5.6893   -2.9117 C   0  0  0  1  0  0  0  0  0  0  0  0
    3.4009    1.5023   -2.1508 N   0  0  0  1  0  0  0  0  0  0  0  0
    3.8496    1.5298   -0.7562 C   0  0  0  1  0  0  0  0  0  0  0  0
    2.6455    1.4854    0.1873 C   0  0  0  1  0  0  0  0  0  0  0  0
    3.0370    0.5232    1.3114 C   0  0  0  1  0  0  0  0  0  0  0  0
    3.8694   -0.5195    0.5649 C   0  0  0  1  0  0  0  0  0  0  0  0
    4.6924    0.2860   -0.4465 C   0  0  0  1  0  0  0  0  0  0  0  0
    3.8477    1.2152    2.3601 N   0  0  0  1  0  0  0  0  0  0  0  0
    0.9316   -2.0526   -1.6522 H   0  0  0  1  0  0  0  0  0  0  0  0
    0.8529    0.2619   -6.5152 H   0  0  0  1  0  0  0  0  0  0  0  0
   -2.5310   -1.7306   -3.8186 H   0  0  0  1  0  0  0  0  0  0  0  0
   -4.1161   -3.4898   -3.2905 H   0  0  0  1  0  0  0  0  0  0  0  0
   -1.0744   -6.3537   -3.7091 H   0  0  0  1  0  0  0  0  0  0  0  0
    0.5082   -4.5975   -4.2363 H   0  0  0  1  0  0  0  0  0  0  0  0
   -4.9543   -5.0671   -2.0425 H   0  0  0  1  0  0  0  0  0  0  0  0
   -5.4966   -6.5689   -2.7516 H   0  0  0  1  0  0  0  0  0  0  0  0
   -5.2916   -5.1526   -3.7546 H   0  0  0  1  0  0  0  0  0  0  0  0
    3.7488    2.1861   -2.7606 H   0  0  0  1  0  0  0  0  0  0  0  0
    4.4224    2.4167   -0.5828 H   0  0  0  1  0  0  0  0  0  0  0  0
    2.4450    2.4592    0.5826 H   0  0  0  1  0  0  0  0  0  0  0  0
    1.7803    1.1243   -0.3285 H   0  0  0  1  0  0  0  0  0  0  0  0
    2.1733    0.0804    1.7620 H   0  0  0  1  0  0  0  0  0  0  0  0
    4.5120   -1.0430    1.2415 H   0  0  0  1  0  0  0  0  0  0  0  0
    3.2344   -1.2186    0.0620 H   0  0  0  1  0  0  0  0  0  0  0  0
    5.6340    0.5675   -0.0237 H   0  0  0  1  0  0  0  0  0  0  0  0
    4.8568   -0.2859   -1.3357 H   0  0  0  1  0  0  0  0  0  0  0  0
    4.0859    0.5762    3.0641 H   0  0  0  1  0  0  0  0  0  0  0  0
    3.3240    1.9473    2.7474 H   0  0  0  1  0  0  0  0  0  0  0  0
  1  2  4  0  0  0  0
  1  6  4  0  0  0  0
  2  3  4  0  0  0  0
  2 18  1  0  0  0  0
  3  4  4  0  0  0  0
  4  5  4  0  0  0  0
  4  7  4  0  0  0  0
  5  6  4  0  0  0  0
  5  9  4  0  0  0  0
  6 25  1  0  0  0  0
  7  8  4  0  0  0  0
  7 26  1  0  0  0  0
  8  9  4  0  0  0  0
  9 10  1  0  0  0  0
 10 11  4  0  0  0  0
 10 15  4  0  0  0  0
 11 12  4  0  0  0  0
 11 27  1  0  0  0  0
 12 13  4  0  0  0  0
 12 28  1  0  0  0  0
 13 14  4  0  0  0  0
 13 16  1  0  0  0  0
 14 15  4  0  0  0  0
 14 29  1  0  0  0  0
 15 30  1  0  0  0  0
 16 17  1  0  0  0  0
 17 31  1  0  0  0  0
 17 32  1  0  0  0  0
 17 33  1  0  0  0  0
 18 19  1  0  0  0  0
 18 34  1  0  0  0  0
 19 20  1  0  0  0  0
 19 23  1  0  0  0  0
 19 35  1  0  0  0  0
 20 21  1  0  0  0  0
 20 36  1  0  0  0  0
 20 37  1  0  0  0  0
 21 22  1  0  0  0  0
 21 24  1  0  0  0  0
 21 38  1  0  0  0  0
 22 23  1  0  0  0  0
 22 39  1  0  0  0  0
 22 40  1  0  0  0  0
 23 41  1  0  0  0  0
 23 42  1  0  0  0  0
 24 43  1  0  0  0  0
 24 44  1  0  0  0  0
M  END
> <ConfClashScore>
0 

> <ConfOneFourInteractionScore>
-0.985973 

> <ConfScore>
0.0642735 

> <ConfScorePBest>
0.00183391 

> <ConfTolerance>
0.347045 

$$$$
c13.sdf
 OpenBabel04162418043D

 44 47  0  0  0  0  0  0  0  0999 V2000
    2.1078   -0.3773   -1.8532 N   0  0  0  1  0  0  0  0  0  0  0  0
    2.5364    0.5907   -2.6455 C   0  0  0  1  0  0  0  0  0  0  0  0
    2.1525    0.6996   -3.8968 N   0  0  0  1  0  0  0  0  0  0  0  0
    1.2986   -0.1837   -4.4201 C   0  0  0  1  0  0  0  0  0  0  0  0
    0.8204   -1.2305   -3.6033 C   0  0  0  1  0  0  0  0  0  0  0  0
    1.2614   -1.2959   -2.2850 C   0  0  0  1  0  0  0  0  0  0  0  0
    0.7020   -0.3514   -5.6890 C   0  0  0  1  0  0  0  0  0  0  0  0
   -0.0689   -1.4010   -5.6538 N   0  0  0  1  0  0  0  0  0  0  0  0
   -0.0256   -1.9781   -4.3778 N   0  0  0  1  0  0  0  0  0  0  0  0
   -0.8728   -3.0650   -4.0187 C   0  0  0  1  0  0  0  0  0  0  0  0
   -0.6164   -3.7909   -2.8709 C   0  0  0  1  0  0  0  0  0  0  0  0
   -1.4441   -4.8455   -2.5186 C   0  0  0  1  0  0  0  0  0  0  0  0
   -2.5227   -5.1745   -3.3177 C   0  0  0  1  0  0  0  0  0  0  0  0
   -2.7798   -4.4462   -4.4689 C   0  0  0  1  0  0  0  0  0  0  0  0
   -1.9545   -3.3948   -4.8203 C   0  0  0  1  0  0  0  0  0  0  0  0
   -3.2464   -6.2118   -2.8812 O   0  0  0  1  0  0  0  0  0  0  0  0
   -3.1079   -6.7279   -1.5147 C   0  0  0  1  0  0  0  0  0  0  0  0
    3.3977    1.4989   -2.1527 N   0  0  0  1  0  0  0  0  0  0  0  0
    3.9142    1.4730   -0.7899 C   0  0  0  1  0  0  0  0  0  0  0  0
    2.7442    1.4672    0.2516 C   0  0  0  1  0  0  0  0  0  0  0  0
    3.4060    0.8370    1.5231 C   0  0  0  1  0  0  0  0  0  0  0  0
    4.5544   -0.0771    1.0104 C   0  0  0  1  0  0  0  0  0  0  0  0
    4.6562    0.1523   -0.5079 C   0  0  0  1  0  0  0  0  0  0  0  0
    3.9570    1.9148    2.4100 N   0  0  0  1  0  0  0  0  0  0  0  0
    0.9317   -2.0526   -1.6522 H   0  0  0  1  0  0  0  0  0  0  0  0
    0.8529    0.2619   -6.5153 H   0  0  0  1  0  0  0  0  0  0  0  0
    0.1976   -3.5459   -2.2716 H   0  0  0  1  0  0  0  0  0  0  0  0
   -1.2535   -5.3892   -1.6527 H   0  0  0  1  0  0  0  0  0  0  0  0
   -3.5937   -4.6912   -5.0682 H   0  0  0  1  0  0  0  0  0  0  0  0
   -2.1450   -2.8510   -5.6861 H   0  0  0  1  0  0  0  0  0  0  0  0
   -4.0738   -6.9759   -1.1270 H   0  0  0  1  0  0  0  0  0  0  0  0
   -2.6564   -5.9810   -0.8957 H   0  0  0  1  0  0  0  0  0  0  0  0
   -2.4925   -7.6031   -1.5249 H   0  0  0  1  0  0  0  0  0  0  0  0
    3.6954    2.2207   -2.7449 H   0  0  0  1  0  0  0  0  0  0  0  0
    4.5583    2.3134   -0.6360 H   0  0  0  1  0  0  0  0  0  0  0  0
    1.9265    0.8689   -0.0925 H   0  0  0  1  0  0  0  0  0  0  0  0
    2.4011    2.4611    0.4496 H   0  0  0  1  0  0  0  0  0  0  0  0
    2.6878    0.2596    2.0668 H   0  0  0  1  0  0  0  0  0  0  0  0
    5.4760    0.1865    1.4858 H   0  0  0  1  0  0  0  0  0  0  0  0
    4.3281   -1.1029    1.2139 H   0  0  0  1  0  0  0  0  0  0  0  0
    5.6815    0.2319   -0.8036 H   0  0  0  1  0  0  0  0  0  0  0  0
    4.1934   -0.6542   -1.0373 H   0  0  0  1  0  0  0  0  0  0  0  0
    4.7099    2.3539    1.9621 H   0  0  0  1  0  0  0  0  0  0  0  0
    4.2640    1.5191    3.2524 H   0  0  0  1  0  0  0  0  0  0  0  0
  1  2  4  0  0  0  0
  1  6  4  0  0  0  0
  2  3  4  0  0  0  0
  2 18  1  0  0  0  0
  3  4  4  0  0  0  0
  4  5  4  0  0  0  0
  4  7  4  0  0  0  0
  5  6  4  0  0  0  0
  5  9  4  0  0  0  0
  6 25  1  0  0  0  0
  7  8  4  0  0  0  0
  7 26  1  0  0  0  0
  8  9  4  0  0  0  0
  9 10  1  0  0  0  0
 10 11  4  0  0  0  0
 10 15  4  0  0  0  0
 11 12  4  0  0  0  0
 11 27  1  0  0  0  0
 12 13  4  0  0  0  0
 12 28  1  0  0  0  0
 13 14  4  0  0  0  0
 13 16  1  0  0  0  0
 14 15  4  0  0  0  0
 14 29  1  0  0  0  0
 15 30  1  0  0  0  0
 16 17  1  0  0  0  0
 17 31  1  0  0  0  0
 17 32  1  0  0  0  0
 17 33  1  0  0  0  0
 18 19  1  0  0  0  0
 18 34  1  0  0  0  0
 19 20  1  0  0  0  0
 19 23  1  0  0  0  0
 19 35  1  0  0  0  0
 20 21  1  0  0  0  0
 20 36  1  0  0  0  0
 20 37  1  0  0  0  0
 21 22  1  0  0  0  0
 21 24  1  0  0  0  0
 21 38  1  0  0  0  0
 22 23  1  0  0  0  0
 22 39  1  0  0  0  0
 22 40  1  0  0  0  0
 23 41  1  0  0  0  0
 23 42  1  0  0  0  0
 24 43  1  0  0  0  0
 24 44  1  0  0  0  0
M  END
> <ConfClashScore>
0 

> <ConfOneFourInteractionScore>
-0.980204 

> <ConfScore>
0.0646713 

> <ConfScorePBest>
0.00182058 

> <ConfTolerance>
0.364358 

$$$$
c13.sdf
 OpenBabel04162418043D

 44 47  0  0  0  0  0  0  0  0999 V2000
    2.1079   -0.3773   -1.8533 N   0  0  0  1  0  0  0  0  0  0  0  0
    2.5363    0.5907   -2.6455 C   0  0  0  1  0  0  0  0  0  0  0  0
    2.1526    0.6996   -3.8969 N   0  0  0  1  0  0  0  0  0  0  0  0
    1.2986   -0.1837   -4.4201 C   0  0  0  1  0  0  0  0  0  0  0  0
    0.8204   -1.2304   -3.6034 C   0  0  0  1  0  0  0  0  0  0  0  0
    1.2615   -1.2960   -2.2849 C   0  0  0  1  0  0  0  0  0  0  0  0
    0.7019   -0.3513   -5.6890 C   0  0  0  1  0  0  0  0  0  0  0  0
   -0.0690   -1.4009   -5.6537 N   0  0  0  1  0  0  0  0  0  0  0  0
   -0.0256   -1.9781   -4.3778 N   0  0  0  1  0  0  0  0  0  0  0  0
   -0.8581   -3.0732   -4.0702 C   0  0  0  1  0  0  0  0  0  0  0  0
   -0.4030   -4.1756   -3.3718 C   0  0  0  1  0  0  0  0  0  0  0  0
   -1.2665   -5.2231   -3.0914 C   0  0  0  1  0  0  0  0  0  0  0  0
   -2.5810   -5.1675   -3.5148 C   0  0  0  1  0  0  0  0  0  0  0  0
   -3.0372   -4.0617   -4.2153 C   0  0  0  1  0  0  0  0  0  0  0  0
   -2.1764   -3.0173   -4.4949 C   0  0  0  1  0  0  0  0  0  0  0  0
   -3.4212   -6.1907   -3.2460 O   0  0  0  1  0  0  0  0  0  0  0  0
   -2.9501   -7.3106   -2.4710 C   0  0  0  1  0  0  0  0  0  0  0  0
    3.3977    1.4988   -2.1526 N   0  0  0  1  0  0  0  0  0  0  0  0
    3.9236    1.6173   -0.7986 C   0  0  0  1  0  0  0  0  0  0  0  0
    2.8707    2.2499    0.1314 C   0  0  0  1  0  0  0  0  0  0  0  0
    2.1480    1.0288    0.6939 C   0  0  0  1  0  0  0  0  0  0  0  0
    3.2292   -0.0113    0.9296 C   0  0  0  1  0  0  0  0  0  0  0  0
    4.2157    0.2407   -0.2226 C   0  0  0  1  0  0  0  0  0  0  0  0
    1.4753    1.3671    1.9596 N   0  0  0  1  0  0  0  0  0  0  0  0
    0.9317   -2.0527   -1.6523 H   0  0  0  1  0  0  0  0  0  0  0  0
    0.8529    0.2621   -6.5152 H   0  0  0  1  0  0  0  0  0  0  0  0
    0.5871   -4.2193   -3.0566 H   0  0  0  1  0  0  0  0  0  0  0  0
   -0.9252   -6.0509   -2.5623 H   0  0  0  1  0  0  0  0  0  0  0  0
   -4.0274   -4.0180   -4.5305 H   0  0  0  1  0  0  0  0  0  0  0  0
   -2.5176   -2.1894   -5.0239 H   0  0  0  1  0  0  0  0  0  0  0  0
   -2.6085   -8.0820   -3.1291 H   0  0  0  1  0  0  0  0  0  0  0  0
   -3.7486   -7.6862   -1.8658 H   0  0  0  1  0  0  0  0  0  0  0  0
   -2.1436   -6.9951   -1.8426 H   0  0  0  1  0  0  0  0  0  0  0  0
    3.7146    2.1720   -2.7905 H   0  0  0  1  0  0  0  0  0  0  0  0
    4.8132    2.2116   -0.8117 H   0  0  0  1  0  0  0  0  0  0  0  0
    2.1992    2.8779   -0.4160 H   0  0  0  1  0  0  0  0  0  0  0  0
    3.3348    2.8171    0.9110 H   0  0  0  1  0  0  0  0  0  0  0  0
    1.4267    0.6654   -0.0079 H   0  0  0  1  0  0  0  0  0  0  0  0
    2.8265   -1.0013    0.8802 H   0  0  0  1  0  0  0  0  0  0  0  0
    3.7020    0.1351    1.8783 H   0  0  0  1  0  0  0  0  0  0  0  0
    4.0874   -0.5044   -0.9798 H   0  0  0  1  0  0  0  0  0  0  0  0
    5.2199    0.2068    0.1453 H   0  0  0  1  0  0  0  0  0  0  0  0
    0.8957    0.6248    2.2306 H   0  0  0  1  0  0  0  0  0  0  0  0
    0.9347    2.1752    1.8361 H   0  0  0  1  0  0  0  0  0  0  0  0
  1  2  4  0  0  0  0
  1  6  4  0  0  0  0
  2  3  4  0  0  0  0
  2 18  1  0  0  0  0
  3  4  4  0  0  0  0
  4  5  4  0  0  0  0
  4  7  4  0  0  0  0
  5  6  4  0  0  0  0
  5  9  4  0  0  0  0
  6 25  1  0  0  0  0
  7  8  4  0  0  0  0
  7 26  1  0  0  0  0
  8  9  4  0  0  0  0
  9 10  1  0  0  0  0
 10 11  4  0  0  0  0
 10 15  4  0  0  0  0
 11 12  4  0  0  0  0
 11 27  1  0  0  0  0
 12 13  4  0  0  0  0
 12 28  1  0  0  0  0
 13 14  4  0  0  0  0
 13 16  1  0  0  0  0
 14 15  4  0  0  0  0
 14 29  1  0  0  0  0
 15 30  1  0  0  0  0
 16 17  1  0  0  0  0
 17 31  1  0  0  0  0
 17 32  1  0  0  0  0
 17 33  1  0  0  0  0
 18 19  1  0  0  0  0
 18 34  1  0  0  0  0
 19 20  1  0  0  0  0
 19 23  1  0  0  0  0
 19 35  1  0  0  0  0
 20 21  1  0  0  0  0
 20 36  1  0  0  0  0
 20 37  1  0  0  0  0
 21 22  1  0  0  0  0
 21 24  1  0  0  0  0
 21 38  1  0  0  0  0
 22 23  1  0  0  0  0
 22 39  1  0  0  0  0
 22 40  1  0  0  0  0
 23 41  1  0  0  0  0
 23 42  1  0  0  0  0
 24 43  1  0  0  0  0
 24 44  1  0  0  0  0
M  END
> <ConfClashScore>
0 

> <ConfOneFourInteractionScore>
-0.982693 

> <ConfScore>
0.0648431 

> <ConfScorePBest>
0.00180726 

> <ConfTolerance>
0.401414 

$$$$
c13.sdf
 OpenBabel04162418043D

 44 47  0  0  0  0  0  0  0  0999 V2000
    2.1080   -0.3774   -1.8532 N   0  0  0  1  0  0  0  0  0  0  0  0
    2.5363    0.5907   -2.6455 C   0  0  0  1  0  0  0  0  0  0  0  0
    2.1525    0.6996   -3.8968 N   0  0  0  1  0  0  0  0  0  0  0  0
    1.2986   -0.1837   -4.4201 C   0  0  0  1  0  0  0  0  0  0  0  0
    0.8205   -1.2304   -3.6033 C   0  0  0  1  0  0  0  0  0  0  0  0
    1.2615   -1.2960   -2.2850 C   0  0  0  1  0  0  0  0  0  0  0  0
    0.7019   -0.3512   -5.6890 C   0  0  0  1  0  0  0  0  0  0  0  0
   -0.0689   -1.4009   -5.6537 N   0  0  0  1  0  0  0  0  0  0  0  0
   -0.0256   -1.9781   -4.3778 N   0  0  0  1  0  0  0  0  0  0  0  0
   -0.7857   -3.1448   -4.0791 C   0  0  0  1  0  0  0  0  0  0  0  0
   -0.1922   -4.3913   -4.1438 C   0  0  0  1  0  0  0  0  0  0  0  0
   -0.9306   -5.5265   -3.8479 C   0  0  0  1  0  0  0  0  0  0  0  0
   -2.2616   -5.4123   -3.4933 C   0  0  0  1  0  0  0  0  0  0  0  0
   -2.8567   -4.1619   -3.4284 C   0  0  0  1  0  0  0  0  0  0  0  0
   -2.1205   -3.0300   -3.7234 C   0  0  0  1  0  0  0  0  0  0  0  0
   -3.0391   -6.4809   -3.1975 O   0  0  0  1  0  0  0  0  0  0  0  0
   -2.3894   -7.7578   -3.0985 C   0  0  0  1  0  0  0  0  0  0  0  0
    3.3914    1.4695   -2.1106 N   0  0  0  1  0  0  0  0  0  0  0  0
    3.9942    2.6210   -2.7887 C   0  0  0  1  0  0  0  0  0  0  0  0
    5.1242    2.1648   -3.7182 C   0  0  0  1  0  0  0  0  0  0  0  0
    4.4490    1.9304   -5.0697 C   0  0  0  1  0  0  0  0  0  0  0  0
    3.4554    3.0928   -5.1375 C   0  0  0  1  0  0  0  0  0  0  0  0
    2.9684    3.3038   -3.7020 C   0  0  0  1  0  0  0  0  0  0  0  0
    5.4381    1.9961   -6.1890 N   0  0  0  1  0  0  0  0  0  0  0  0
    0.9318   -2.0526   -1.6523 H   0  0  0  1  0  0  0  0  0  0  0  0
    0.8528    0.2621   -6.5152 H   0  0  0  1  0  0  0  0  0  0  0  0
    0.8082   -4.4776   -4.4145 H   0  0  0  1  0  0  0  0  0  0  0  0
   -0.4831   -6.4641   -3.8927 H   0  0  0  1  0  0  0  0  0  0  0  0
   -3.8571   -4.0756   -3.1577 H   0  0  0  1  0  0  0  0  0  0  0  0
   -2.5680   -2.0923   -3.6787 H   0  0  0  1  0  0  0  0  0  0  0  0
   -3.1077   -8.5043   -2.8305 H   0  0  0  1  0  0  0  0  0  0  0  0
   -1.6263   -7.7124   -2.3498 H   0  0  0  1  0  0  0  0  0  0  0  0
   -1.9500   -8.0082   -4.0415 H   0  0  0  1  0  0  0  0  0  0  0  0
    3.6392    1.3298   -1.1728 H   0  0  0  1  0  0  0  0  0  0  0  0
    4.3646    3.3111   -2.0596 H   0  0  0  1  0  0  0  0  0  0  0  0
    5.5674    1.2605   -3.3567 H   0  0  0  1  0  0  0  0  0  0  0  0
    5.8748    2.9231   -3.7988 H   0  0  0  1  0  0  0  0  0  0  0  0
    3.9449    0.9868   -5.0933 H   0  0  0  1  0  0  0  0  0  0  0  0
    2.6346    2.8451   -5.7775 H   0  0  0  1  0  0  0  0  0  0  0  0
    3.9383    3.9756   -5.5012 H   0  0  0  1  0  0  0  0  0  0  0  0
    2.9143    4.3492   -3.4801 H   0  0  0  1  0  0  0  0  0  0  0  0
    2.0035    2.8602   -3.5703 H   0  0  0  1  0  0  0  0  0  0  0  0
    5.8844    2.8685   -6.1804 H   0  0  0  1  0  0  0  0  0  0  0  0
    4.9730    1.8756   -7.0432 H   0  0  0  1  0  0  0  0  0  0  0  0
  1  2  4  0  0  0  0
  1  6  4  0  0  0  0
  2  3  4  0  0  0  0
  2 18  1  0  0  0  0
  3  4  4  0  0  0  0
  4  5  4  0  0  0  0
  4  7  4  0  0  0  0
  5  6  4  0  0  0  0
  5  9  4  0  0  0  0
  6 25  1  0  0  0  0
  7  8  4  0  0  0  0
  7 26  1  0  0  0  0
  8  9  4  0  0  0  0
  9 10  1  0  0  0  0
 10 11  4  0  0  0  0
 10 15  4  0  0  0  0
 11 12  4  0  0  0  0
 11 27  1  0  0  0  0
 12 13  4  0  0  0  0
 12 28  1  0  0  0  0
 13 14  4  0  0  0  0
 13 16  1  0  0  0  0
 14 15  4  0  0  0  0
 14 29  1  0  0  0  0
 15 30  1  0  0  0  0
 16 17  1  0  0  0  0
 17 31  1  0  0  0  0
 17 32  1  0  0  0  0
 17 33  1  0  0  0  0
 18 19  1  0  0  0  0
 18 34  1  0  0  0  0
 19 20  1  0  0  0  0
 19 23  1  0  0  0  0
 19 35  1  0  0  0  0
 20 21  1  0  0  0  0
 20 36  1  0  0  0  0
 20 37  1  0  0  0  0
 21 22  1  0  0  0  0
 21 24  1  0  0  0  0
 21 38  1  0  0  0  0
 22 23  1  0  0  0  0
 22 39  1  0  0  0  0
 22 40  1  0  0  0  0
 23 41  1  0  0  0  0
 23 42  1  0  0  0  0
 24 43  1  0  0  0  0
 24 44  1  0  0  0  0
M  END
> <ConfClashScore>
0 

> <ConfOneFourInteractionScore>
-0.988461 

> <ConfScore>
0.0655665 

> <ConfScorePBest>
0.00179393 

> <ConfTolerance>
0.450107 

$$$$
c13.sdf
 OpenBabel04162418043D

 44 47  0  0  0  0  0  0  0  0999 V2000
    2.1078   -0.3772   -1.8533 N   0  0  0  1  0  0  0  0  0  0  0  0
    2.5363    0.5907   -2.6455 C   0  0  0  1  0  0  0  0  0  0  0  0
    2.1526    0.6996   -3.8968 N   0  0  0  1  0  0  0  0  0  0  0  0
    1.2986   -0.1837   -4.4201 C   0  0  0  1  0  0  0  0  0  0  0  0
    0.8204   -1.2304   -3.6034 C   0  0  0  1  0  0  0  0  0  0  0  0
    1.2614   -1.2959   -2.2849 C   0  0  0  1  0  0  0  0  0  0  0  0
    0.7020   -0.3513   -5.6890 C   0  0  0  1  0  0  0  0  0  0  0  0
   -0.0688   -1.4011   -5.6538 N   0  0  0  1  0  0  0  0  0  0  0  0
   -0.0256   -1.9781   -4.3778 N   0  0  0  1  0  0  0  0  0  0  0  0
   -0.7858   -3.1447   -4.0791 C   0  0  0  1  0  0  0  0  0  0  0  0
   -0.9015   -3.5132   -2.7521 C   0  0  0  1  0  0  0  0  0  0  0  0
   -1.5567   -4.6870   -2.4136 C   0  0  0  1  0  0  0  0  0  0  0  0
   -2.0894   -5.4914   -3.4032 C   0  0  0  1  0  0  0  0  0  0  0  0
   -1.9731   -5.1216   -4.7342 C   0  0  0  1  0  0  0  0  0  0  0  0
   -1.3199   -3.9514   -5.0718 C   0  0  0  1  0  0  0  0  0  0  0  0
   -2.7004   -6.6130   -2.9532 O   0  0  0  1  0  0  0  0  0  0  0  0
   -3.1513   -7.5552   -3.9388 C   0  0  0  1  0  0  0  0  0  0  0  0
    3.3977    1.4989   -2.1527 N   0  0  0  1  0  0  0  0  0  0  0  0
    4.0475    2.5326   -2.9633 C   0  0  0  1  0  0  0  0  0  0  0  0
    4.7801    1.9216   -4.1580 C   0  0  0  1  0  0  0  0  0  0  0  0
    4.9080    3.0674   -5.1678 C   0  0  0  1  0  0  0  0  0  0  0  0
    3.7107    3.9861   -4.8927 C   0  0  0  1  0  0  0  0  0  0  0  0
    3.0155    3.4332   -3.6465 C   0  0  0  1  0  0  0  0  0  0  0  0
    6.1920    3.8054   -4.9622 N   0  0  0  1  0  0  0  0  0  0  0  0
    0.9316   -2.0526   -1.6522 H   0  0  0  1  0  0  0  0  0  0  0  0
    0.8530    0.2620   -6.5153 H   0  0  0  1  0  0  0  0  0  0  0  0
   -0.4973   -2.9100   -2.0077 H   0  0  0  1  0  0  0  0  0  0  0  0
   -1.6474   -4.9623   -1.4148 H   0  0  0  1  0  0  0  0  0  0  0  0
   -2.3775   -5.7249   -5.4786 H   0  0  0  1  0  0  0  0  0  0  0  0
   -1.2292   -3.6760   -6.0706 H   0  0  0  1  0  0  0  0  0  0  0  0
   -3.4244   -8.4715   -3.4584 H   0  0  0  1  0  0  0  0  0  0  0  0
   -2.3648   -7.7411   -4.6402 H   0  0  0  1  0  0  0  0  0  0  0  0
   -4.0005   -7.1550   -4.4521 H   0  0  0  1  0  0  0  0  0  0  0  0
    3.6027    1.4675   -1.1949 H   0  0  0  1  0  0  0  0  0  0  0  0
    4.7135    3.1018   -2.3491 H   0  0  0  1  0  0  0  0  0  0  0  0
    5.7465    1.5672   -3.8661 H   0  0  0  1  0  0  0  0  0  0  0  0
    4.2142    1.1144   -4.5740 H   0  0  0  1  0  0  0  0  0  0  0  0
    4.8688    2.6907   -6.1686 H   0  0  0  1  0  0  0  0  0  0  0  0
    4.0459    4.9866   -4.7155 H   0  0  0  1  0  0  0  0  0  0  0  0
    3.0388    3.9766   -5.7254 H   0  0  0  1  0  0  0  0  0  0  0  0
    2.7272    4.2314   -2.9948 H   0  0  0  1  0  0  0  0  0  0  0  0
    2.1504    2.8670   -3.9220 H   0  0  0  1  0  0  0  0  0  0  0  0
    6.9306    3.1647   -4.8966 H   0  0  0  1  0  0  0  0  0  0  0  0
    6.1391    4.3284   -4.1351 H   0  0  0  1  0  0  0  0  0  0  0  0
  1  2  4  0  0  0  0
  1  6  4  0  0  0  0
  2  3  4  0  0  0  0
  2 18  1  0  0  0  0
  3  4  4  0  0  0  0
  4  5  4  0  0  0  0
  4  7  4  0  0  0  0
  5  6  4  0  0  0  0
  5  9  4  0  0  0  0
  6 25  1  0  0  0  0
  7  8  4  0  0  0  0
  7 26  1  0  0  0  0
  8  9  4  0  0  0  0
  9 10  1  0  0  0  0
 10 11  4  0  0  0  0
 10 15  4  0  0  0  0
 11 12  4  0  0  0  0
 11 27  1  0  0  0  0
 12 13  4  0  0  0  0
 12 28  1  0  0  0  0
 13 14  4  0  0  0  0
 13 16  1  0  0  0  0
 14 15  4  0  0  0  0
 14 29  1  0  0  0  0
 15 30  1  0  0  0  0
 16 17  1  0  0  0  0
 17 31  1  0  0  0  0
 17 32  1  0  0  0  0
 17 33  1  0  0  0  0
 18 19  1  0  0  0  0
 18 34  1  0  0  0  0
 19 20  1  0  0  0  0
 19 23  1  0  0  0  0
 19 35  1  0  0  0  0
 20 21  1  0  0  0  0
 20 36  1  0  0  0  0
 20 37  1  0  0  0  0
 21 22  1  0  0  0  0
 21 24  1  0  0  0  0
 21 38  1  0  0  0  0
 22 23  1  0  0  0  0
 22 39  1  0  0  0  0
 22 40  1  0  0  0  0
 23 41  1  0  0  0  0
 23 42  1  0  0  0  0
 24 43  1  0  0  0  0
 24 44  1  0  0  0  0
M  END
> <ConfClashScore>
0 

> <ConfOneFourInteractionScore>
-0.980204 

> <ConfScore>
0.0670619 

> <ConfScorePBest>
0.0017806 

> <ConfTolerance>
0.421537 

$$$$
c13.sdf
 OpenBabel04162418043D

 44 47  0  0  0  0  0  0  0  0999 V2000
    2.1079   -0.3773   -1.8532 N   0  0  0  1  0  0  0  0  0  0  0  0
    2.5363    0.5907   -2.6455 C   0  0  0  1  0  0  0  0  0  0  0  0
    2.1525    0.6996   -3.8968 N   0  0  0  1  0  0  0  0  0  0  0  0
    1.2986   -0.1837   -4.4201 C   0  0  0  1  0  0  0  0  0  0  0  0
    0.8205   -1.2304   -3.6033 C   0  0  0  1  0  0  0  0  0  0  0  0
    1.2615   -1.2960   -2.2850 C   0  0  0  1  0  0  0  0  0  0  0  0
    0.7018   -0.3513   -5.6890 C   0  0  0  1  0  0  0  0  0  0  0  0
   -0.0690   -1.4010   -5.6537 N   0  0  0  1  0  0  0  0  0  0  0  0
   -0.0256   -1.9781   -4.3778 N   0  0  0  1  0  0  0  0  0  0  0  0
   -0.7857   -3.1448   -4.0791 C   0  0  0  1  0  0  0  0  0  0  0  0
   -0.9988   -3.5126   -2.7640 C   0  0  0  1  0  0  0  0  0  0  0  0
   -1.7432   -4.6452   -2.4732 C   0  0  0  1  0  0  0  0  0  0  0  0
   -2.2677   -5.4097   -3.4983 C   0  0  0  1  0  0  0  0  0  0  0  0
   -2.0539   -5.0405   -4.8173 C   0  0  0  1  0  0  0  0  0  0  0  0
   -1.3117   -3.9112   -5.1073 C   0  0  0  1  0  0  0  0  0  0  0  0
   -3.0037   -6.5350   -3.3376 O   0  0  0  1  0  0  0  0  0  0  0  0
   -3.2647   -6.9616   -1.9914 C   0  0  0  1  0  0  0  0  0  0  0  0
    3.4098    1.5118   -2.1457 N   0  0  0  1  0  0  0  0  0  0  0  0
    3.8943    2.6359   -2.9574 C   0  0  0  1  0  0  0  0  0  0  0  0
    2.7301    3.4831   -3.4851 C   0  0  0  1  0  0  0  0  0  0  0  0
    2.3223    4.4431   -2.3722 C   0  0  0  1  0  0  0  0  0  0  0  0
    3.5585    4.4723   -1.4074 C   0  0  0  1  0  0  0  0  0  0  0  0
    4.6838    3.6679   -2.0842 C   0  0  0  1  0  0  0  0  0  0  0  0
    2.0500    5.8045   -2.9226 N   0  0  0  1  0  0  0  0  0  0  0  0
    0.9318   -2.0526   -1.6522 H   0  0  0  1  0  0  0  0  0  0  0  0
    0.8529    0.2620   -6.5152 H   0  0  0  1  0  0  0  0  0  0  0  0
   -0.6008   -2.9397   -1.9927 H   0  0  0  1  0  0  0  0  0  0  0  0
   -1.9069   -4.9198   -1.4836 H   0  0  0  1  0  0  0  0  0  0  0  0
   -2.4520   -5.6134   -5.5885 H   0  0  0  1  0  0  0  0  0  0  0  0
   -1.1479   -3.6366   -6.0969 H   0  0  0  1  0  0  0  0  0  0  0  0
   -2.6110   -7.7706   -1.7400 H   0  0  0  1  0  0  0  0  0  0  0  0
   -4.2810   -7.2866   -1.9112 H   0  0  0  1  0  0  0  0  0  0  0  0
   -3.0965   -6.1457   -1.3200 H   0  0  0  1  0  0  0  0  0  0  0  0
    3.7221    1.4210   -1.2212 H   0  0  0  1  0  0  0  0  0  0  0  0
    4.4978    2.2637   -3.7588 H   0  0  0  1  0  0  0  0  0  0  0  0
    3.0410    4.0347   -4.3477 H   0  0  0  1  0  0  0  0  0  0  0  0
    1.9058    2.8514   -3.7430 H   0  0  0  1  0  0  0  0  0  0  0  0
    1.4530    4.0836   -1.8622 H   0  0  0  1  0  0  0  0  0  0  0  0
    3.8749    5.4819   -1.2476 H   0  0  0  1  0  0  0  0  0  0  0  0
    3.3020    4.0257   -0.4695 H   0  0  0  1  0  0  0  0  0  0  0  0
    5.2961    4.2994   -2.6933 H   0  0  0  1  0  0  0  0  0  0  0  0
    5.2934    3.1719   -1.3581 H   0  0  0  1  0  0  0  0  0  0  0  0
    1.3065    5.7572   -3.5593 H   0  0  0  1  0  0  0  0  0  0  0  0
    2.8503    6.1379   -3.3795 H   0  0  0  1  0  0  0  0  0  0  0  0
  1  2  4  0  0  0  0
  1  6  4  0  0  0  0
  2  3  4  0  0  0  0
  2 18  1  0  0  0  0
  3  4  4  0  0  0  0
  4  5  4  0  0  0  0
  4  7  4  0  0  0  0
  5  6  4  0  0  0  0
  5  9  4  0  0  0  0
  6 25  1  0  0  0  0
  7  8  4  0  0  0  0
  7 26  1  0  0  0  0
  8  9  4  0  0  0  0
  9 10  1  0  0  0  0
 10 11  4  0  0  0  0
 10 15  4  0  0  0  0
 11 12  4  0  0  0  0
 11 27  1  0  0  0  0
 12 13  4  0  0  0  0
 12 28  1  0  0  0  0
 13 14  4  0  0  0  0
 13 16  1  0  0  0  0
 14 15  4  0  0  0  0
 14 29  1  0  0  0  0
 15 30  1  0  0  0  0
 16 17  1  0  0  0  0
 17 31  1  0  0  0  0
 17 32  1  0  0  0  0
 17 33  1  0  0  0  0
 18 19  1  0  0  0  0
 18 34  1  0  0  0  0
 19 20  1  0  0  0  0
 19 23  1  0  0  0  0
 19 35  1  0  0  0  0
 20 21  1  0  0  0  0
 20 36  1  0  0  0  0
 20 37  1  0  0  0  0
 21 22  1  0  0  0  0
 21 24  1  0  0  0  0
 21 38  1  0  0  0  0
 22 23  1  0  0  0  0
 22 39  1  0  0  0  0
 22 40  1  0  0  0  0
 23 41  1  0  0  0  0
 23 42  1  0  0  0  0
 24 43  1  0  0  0  0
 24 44  1  0  0  0  0
M  END
> <ConfClashScore>
0 

> <ConfOneFourInteractionScore>
-0.985399 

> <ConfScore>
0.069441 

> <ConfScorePBest>
0.00176727 

> <ConfTolerance>
0.498255 

$$$$
c13.sdf
 OpenBabel04162418043D

 44 47  0  0  0  0  0  0  0  0999 V2000
    2.1079   -0.3773   -1.8532 N   0  0  0  1  0  0  0  0  0  0  0  0
    2.5364    0.5907   -2.6455 C   0  0  0  1  0  0  0  0  0  0  0  0
    2.1526    0.6996   -3.8968 N   0  0  0  1  0  0  0  0  0  0  0  0
    1.2985   -0.1838   -4.4201 C   0  0  0  1  0  0  0  0  0  0  0  0
    0.8204   -1.2305   -3.6033 C   0  0  0  1  0  0  0  0  0  0  0  0
    1.2615   -1.2960   -2.2850 C   0  0  0  1  0  0  0  0  0  0  0  0
    0.7020   -0.3513   -5.6890 C   0  0  0  1  0  0  0  0  0  0  0  0
   -0.0689   -1.4010   -5.6538 N   0  0  0  1  0  0  0  0  0  0  0  0
   -0.0256   -1.9781   -4.3778 N   0  0  0  1  0  0  0  0  0  0  0  0
   -0.7644   -3.1411   -4.0293 C   0  0  0  1  0  0  0  0  0  0  0  0
   -2.1320   -3.0617   -3.8461 C   0  0  0  1  0  0  0  0  0  0  0  0
   -2.8533   -4.1971   -3.5114 C   0  0  0  1  0  0  0  0  0  0  0  0
   -2.2044   -5.4073   -3.3556 C   0  0  0  1  0  0  0  0  0  0  0  0
   -0.8327   -5.4868   -3.5393 C   0  0  0  1  0  0  0  0  0  0  0  0
   -0.1133   -4.3548   -3.8730 C   0  0  0  1  0  0  0  0  0  0  0  0
   -2.7986   -6.5753   -3.0271 O   0  0  0  1  0  0  0  0  0  0  0  0
   -4.2271   -6.6919   -3.1184 C   0  0  0  1  0  0  0  0  0  0  0  0
    3.3939    1.4949   -2.1548 N   0  0  0  1  0  0  0  0  0  0  0  0
    3.8438    1.6773   -0.7723 C   0  0  0  1  0  0  0  0  0  0  0  0
    2.7083    2.2363    0.0920 C   0  0  0  1  0  0  0  0  0  0  0  0
    2.0029    1.0034    0.6572 C   0  0  0  1  0  0  0  0  0  0  0  0
    3.1794    0.0739    0.9649 C   0  0  0  1  0  0  0  0  0  0  0  0
    4.2053    0.3261   -0.1426 C   0  0  0  1  0  0  0  0  0  0  0  0
    1.2444    1.3340    1.8846 N   0  0  0  1  0  0  0  0  0  0  0  0
    0.9316   -2.0527   -1.6523 H   0  0  0  1  0  0  0  0  0  0  0  0
    0.8530    0.2621   -6.5153 H   0  0  0  1  0  0  0  0  0  0  0  0
   -2.6199   -2.1502   -3.9595 H   0  0  0  1  0  0  0  0  0  0  0  0
   -3.8830   -4.1383   -3.3775 H   0  0  0  1  0  0  0  0  0  0  0  0
   -0.3447   -6.3982   -3.4259 H   0  0  0  1  0  0  0  0  0  0  0  0
    0.9163   -4.4136   -4.0068 H   0  0  0  1  0  0  0  0  0  0  0  0
   -4.5075   -6.8562   -4.1379 H   0  0  0  1  0  0  0  0  0  0  0  0
   -4.6817   -5.7904   -2.7645 H   0  0  0  1  0  0  0  0  0  0  0  0
   -4.5563   -7.5163   -2.5210 H   0  0  0  1  0  0  0  0  0  0  0  0
    3.7718    2.1191   -2.8090 H   0  0  0  1  0  0  0  0  0  0  0  0
    4.6868    2.3361   -0.7549 H   0  0  0  1  0  0  0  0  0  0  0  0
    2.0337    2.8169   -0.5019 H   0  0  0  1  0  0  0  0  0  0  0  0
    3.0998    2.8417    0.8827 H   0  0  0  1  0  0  0  0  0  0  0  0
    1.3431    0.5687   -0.0643 H   0  0  0  1  0  0  0  0  0  0  0  0
    3.5984    0.3063    1.9216 H   0  0  0  1  0  0  0  0  0  0  0  0
    2.8610   -0.9476    0.9530 H   0  0  0  1  0  0  0  0  0  0  0  0
    4.1536   -0.4497   -0.8777 H   0  0  0  1  0  0  0  0  0  0  0  0
    5.1921    0.3626    0.2693 H   0  0  0  1  0  0  0  0  0  0  0  0
    0.5016    1.9321    1.6590 H   0  0  0  1  0  0  0  0  0  0  0  0
    1.8379    1.7782    2.5256 H   0  0  0  1  0  0  0  0  0  0  0  0
  1  2  4  0  0  0  0
  1  6  4  0  0  0  0
  2  3  4  0  0  0  0
  2 18  1  0  0  0  0
  3  4  4  0  0  0  0
  4  5  4  0  0  0  0
  4  7  4  0  0  0  0
  5  6  4  0  0  0  0
  5  9  4  0  0  0  0
  6 25  1  0  0  0  0
  7  8  4  0  0  0  0
  7 26  1  0  0  0  0
  8  9  4  0  0  0  0
  9 10  1  0  0  0  0
 10 11  4  0  0  0  0
 10 15  4  0  0  0  0
 11 12  4  0  0  0  0
 11 27  1  0  0  0  0
 12 13  4  0  0  0  0
 12 28  1  0  0  0  0
 13 14  4  0  0  0  0
 13 16  1  0  0  0  0
 14 15  4  0  0  0  0
 14 29  1  0  0  0  0
 15 30  1  0  0  0  0
 16 17  1  0  0  0  0
 17 31  1  0  0  0  0
 17 32  1  0  0  0  0
 17 33  1  0  0  0  0
 18 19  1  0  0  0  0
 18 34  1  0  0  0  0
 19 20  1  0  0  0  0
 19 23  1  0  0  0  0
 19 35  1  0  0  0  0
 20 21  1  0  0  0  0
 20 36  1  0  0  0  0
 20 37  1  0  0  0  0
 21 22  1  0  0  0  0
 21 24  1  0  0  0  0
 21 38  1  0  0  0  0
 22 23  1  0  0  0  0
 22 39  1  0  0  0  0
 22 40  1  0  0  0  0
 23 41  1  0  0  0  0
 23 42  1  0  0  0  0
 24 43  1  0  0  0  0
 24 44  1  0  0  0  0
M  END
> <ConfClashScore>
0 

> <ConfOneFourInteractionScore>
-0.982693 

> <ConfScore>
0.0711264 

> <ConfScorePBest>
0.00175394 

> <ConfTolerance>
0.365222 

$$$$
c13.sdf
 OpenBabel04162418043D

 44 47  0  0  0  0  0  0  0  0999 V2000
    2.1079   -0.3774   -1.8532 N   0  0  0  1  0  0  0  0  0  0  0  0
    2.5364    0.5907   -2.6454 C   0  0  0  1  0  0  0  0  0  0  0  0
    2.1526    0.6996   -3.8969 N   0  0  0  1  0  0  0  0  0  0  0  0
    1.2985   -0.1837   -4.4201 C   0  0  0  1  0  0  0  0  0  0  0  0
    0.8204   -1.2305   -3.6033 C   0  0  0  1  0  0  0  0  0  0  0  0
    1.2615   -1.2960   -2.2849 C   0  0  0  1  0  0  0  0  0  0  0  0
    0.7019   -0.3514   -5.6890 C   0  0  0  1  0  0  0  0  0  0  0  0
   -0.0689   -1.4010   -5.6537 N   0  0  0  1  0  0  0  0  0  0  0  0
   -0.0256   -1.9781   -4.3778 N   0  0  0  1  0  0  0  0  0  0  0  0
   -0.7780   -3.1328   -4.0821 C   0  0  0  1  0  0  0  0  0  0  0  0
   -1.2695   -3.3922   -2.8167 C   0  0  0  1  0  0  0  0  0  0  0  0
   -2.0084   -4.5413   -2.5824 C   0  0  0  1  0  0  0  0  0  0  0  0
   -2.2493   -5.4303   -3.6129 C   0  0  0  1  0  0  0  0  0  0  0  0
   -1.7562   -5.1701   -4.8821 C   0  0  0  1  0  0  0  0  0  0  0  0
   -1.0193   -4.0244   -5.1158 C   0  0  0  1  0  0  0  0  0  0  0  0
   -2.9580   -6.5958   -3.5025 O   0  0  0  1  0  0  0  0  0  0  0  0
   -3.6290   -6.7260   -2.2275 C   0  0  0  1  0  0  0  0  0  0  0  0
    3.4042    1.4826   -2.1026 N   0  0  0  1  0  0  0  0  0  0  0  0
    3.9803    2.6122   -2.8369 C   0  0  0  1  0  0  0  0  0  0  0  0
    4.6508    2.1304   -4.1678 C   0  0  0  1  0  0  0  0  0  0  0  0
    4.6391    3.4196   -5.0565 C   0  0  0  1  0  0  0  0  0  0  0  0
    3.4397    4.2781   -4.5649 C   0  0  0  1  0  0  0  0  0  0  0  0
    2.8782    3.5769   -3.3154 C   0  0  0  1  0  0  0  0  0  0  0  0
    5.9233    4.1775   -4.8888 N   0  0  0  1  0  0  0  0  0  0  0  0
    0.9317   -2.0526   -1.6522 H   0  0  0  1  0  0  0  0  0  0  0  0
    0.8529    0.2620   -6.5152 H   0  0  0  1  0  0  0  0  0  0  0  0
   -1.0849   -2.7252   -2.0404 H   0  0  0  1  0  0  0  0  0  0  0  0
   -2.3817   -4.7345   -1.6312 H   0  0  0  1  0  0  0  0  0  0  0  0
   -1.9408   -5.8370   -5.6585 H   0  0  0  1  0  0  0  0  0  0  0  0
   -0.6461   -3.8311   -6.0670 H   0  0  0  1  0  0  0  0  0  0  0  0
   -2.9026   -6.7488   -1.4423 H   0  0  0  1  0  0  0  0  0  0  0  0
   -4.1966   -7.6330   -2.2145 H   0  0  0  1  0  0  0  0  0  0  0  0
   -4.2842   -5.8926   -2.0828 H   0  0  0  1  0  0  0  0  0  0  0  0
    3.6604    1.3640   -1.1642 H   0  0  0  1  0  0  0  0  0  0  0  0
    4.6879    3.1192   -2.2145 H   0  0  0  1  0  0  0  0  0  0  0  0
    4.0829    1.3455   -4.6220 H   0  0  0  1  0  0  0  0  0  0  0  0
    5.6511    1.7927   -3.9938 H   0  0  0  1  0  0  0  0  0  0  0  0
    4.5103    3.1585   -6.0861 H   0  0  0  1  0  0  0  0  0  0  0  0
    3.7698    5.2652   -4.3168 H   0  0  0  1  0  0  0  0  0  0  0  0
    2.6892    4.3330   -5.3255 H   0  0  0  1  0  0  0  0  0  0  0  0
    2.6571    4.2954   -2.5540 H   0  0  0  1  0  0  0  0  0  0  0  0
    1.9902    3.0333   -3.5621 H   0  0  0  1  0  0  0  0  0  0  0  0
    6.1224    4.2768   -3.9344 H   0  0  0  1  0  0  0  0  0  0  0  0
    5.8352    5.0637   -5.2979 H   0  0  0  1  0  0  0  0  0  0  0  0
  1  2  4  0  0  0  0
  1  6  4  0  0  0  0
  2  3  4  0  0  0  0
  2 18  1  0  0  0  0
  3  4  4  0  0  0  0
  4  5  4  0  0  0  0
  4  7  4  0  0  0  0
  5  6  4  0  0  0  0
  5  9  4  0  0  0  0
  6 25  1  0  0  0  0
  7  8  4  0  0  0  0
  7 26  1  0  0  0  0
  8  9  4  0  0  0  0
  9 10  1  0  0  0  0
 10 11  4  0  0  0  0
 10 15  4  0  0  0  0
 11 12  4  0  0  0  0
 11 27  1  0  0  0  0
 12 13  4  0  0  0  0
 12 28  1  0  0  0  0
 13 14  4  0  0  0  0
 13 16  1  0  0  0  0
 14 15  4  0  0  0  0
 14 29  1  0  0  0  0
 15 30  1  0  0  0  0
 16 17  1  0  0  0  0
 17 31  1  0  0  0  0
 17 32  1  0  0  0  0
 17 33  1  0  0  0  0
 18 19  1  0  0  0  0
 18 34  1  0  0  0  0
 19 20  1  0  0  0  0
 19 23  1  0  0  0  0
 19 35  1  0  0  0  0
 20 21  1  0  0  0  0
 20 36  1  0  0  0  0
 20 37  1  0  0  0  0
 21 22  1  0  0  0  0
 21 24  1  0  0  0  0
 21 38  1  0  0  0  0
 22 23  1  0  0  0  0
 22 39  1  0  0  0  0
 22 40  1  0  0  0  0
 23 41  1  0  0  0  0
 23 42  1  0  0  0  0
 24 43  1  0  0  0  0
 24 44  1  0  0  0  0
M  END
> <ConfClashScore>
0 

> <ConfOneFourInteractionScore>
-0.980204 

> <ConfScore>
0.0751496 

> <ConfScorePBest>
0.00174062 

> <ConfTolerance>
0.384731 

$$$$
c13.sdf
 OpenBabel04162418043D

 44 47  0  0  0  0  0  0  0  0999 V2000
    2.1079   -0.3773   -1.8533 N   0  0  0  1  0  0  0  0  0  0  0  0
    2.5363    0.5907   -2.6455 C   0  0  0  1  0  0  0  0  0  0  0  0
    2.1526    0.6997   -3.8968 N   0  0  0  1  0  0  0  0  0  0  0  0
    1.2985   -0.1838   -4.4201 C   0  0  0  1  0  0  0  0  0  0  0  0
    0.8204   -1.2305   -3.6033 C   0  0  0  1  0  0  0  0  0  0  0  0
    1.2614   -1.2960   -2.2849 C   0  0  0  1  0  0  0  0  0  0  0  0
    0.7019   -0.3512   -5.6890 C   0  0  0  1  0  0  0  0  0  0  0  0
   -0.0689   -1.4009   -5.6538 N   0  0  0  1  0  0  0  0  0  0  0  0
   -0.0256   -1.9781   -4.3778 N   0  0  0  1  0  0  0  0  0  0  0  0
   -0.7743   -3.1272   -4.0836 C   0  0  0  1  0  0  0  0  0  0  0  0
   -1.9414   -3.2764   -4.8088 C   0  0  0  1  0  0  0  0  0  0  0  0
   -2.7516   -4.3813   -4.5982 C   0  0  0  1  0  0  0  0  0  0  0  0
   -2.3952   -5.3308   -3.6593 C   0  0  0  1  0  0  0  0  0  0  0  0
   -1.2247   -5.1811   -2.9321 C   0  0  0  1  0  0  0  0  0  0  0  0
   -0.4167   -4.0795   -3.1420 C   0  0  0  1  0  0  0  0  0  0  0  0
   -3.1044   -6.4688   -3.4951 O   0  0  0  1  0  0  0  0  0  0  0  0
   -4.4344   -6.5564   -4.0298 C   0  0  0  1  0  0  0  0  0  0  0  0
    3.4098    1.5117   -2.1456 N   0  0  0  1  0  0  0  0  0  0  0  0
    3.8258    1.4948   -0.7424 C   0  0  0  1  0  0  0  0  0  0  0  0
    4.5775    2.8203   -0.3710 C   0  0  0  1  0  0  0  0  0  0  0  0
    3.8652    3.4197    0.8556 C   0  0  0  1  0  0  0  0  0  0  0  0
    2.3960    2.9051    0.6883 C   0  0  0  1  0  0  0  0  0  0  0  0
    2.6110    1.4743    0.1799 C   0  0  0  1  0  0  0  0  0  0  0  0
    4.4646    2.9227    2.1169 N   0  0  0  1  0  0  0  0  0  0  0  0
    0.9317   -2.0526   -1.6523 H   0  0  0  1  0  0  0  0  0  0  0  0
    0.8529    0.2621   -6.5152 H   0  0  0  1  0  0  0  0  0  0  0  0
   -2.2117   -2.5599   -5.5125 H   0  0  0  1  0  0  0  0  0  0  0  0
   -3.6278   -4.4956   -5.1467 H   0  0  0  1  0  0  0  0  0  0  0  0
   -0.9544   -5.8976   -2.2284 H   0  0  0  1  0  0  0  0  0  0  0  0
    0.4594   -3.9651   -2.5935 H   0  0  0  1  0  0  0  0  0  0  0  0
   -4.4671   -7.3153   -4.7834 H   0  0  0  1  0  0  0  0  0  0  0  0
   -4.7087   -5.6156   -4.4593 H   0  0  0  1  0  0  0  0  0  0  0  0
   -5.1185   -6.8038   -3.2451 H   0  0  0  1  0  0  0  0  0  0  0  0
    3.7680    2.2025   -2.7414 H   0  0  0  1  0  0  0  0  0  0  0  0
    4.4497    0.6438   -0.5650 H   0  0  0  1  0  0  0  0  0  0  0  0
    5.5991    2.6081   -0.1340 H   0  0  0  1  0  0  0  0  0  0  0  0
    4.5363    3.5069   -1.1905 H   0  0  0  1  0  0  0  0  0  0  0  0
    3.9032    4.4889    0.8390 H   0  0  0  1  0  0  0  0  0  0  0  0
    1.8577    3.4936   -0.0251 H   0  0  0  1  0  0  0  0  0  0  0  0
    1.8743    2.9107    1.6224 H   0  0  0  1  0  0  0  0  0  0  0  0
    1.7479    1.1447   -0.3599 H   0  0  0  1  0  0  0  0  0  0  0  0
    2.7894    0.8164    1.0046 H   0  0  0  1  0  0  0  0  0  0  0  0
    5.4060    3.1915    2.1600 H   0  0  0  1  0  0  0  0  0  0  0  0
    4.4026    1.9450    2.1448 H   0  0  0  1  0  0  0  0  0  0  0  0
  1  2  4  0  0  0  0
  1  6  4  0  0  0  0
  2  3  4  0  0  0  0
  2 18  1  0  0  0  0
  3  4  4  0  0  0  0
  4  5  4  0  0  0  0
  4  7  4  0  0  0  0
  5  6  4  0  0  0  0
  5  9  4  0  0  0  0
  6 25  1  0  0  0  0
  7  8  4  0  0  0  0
  7 26  1  0  0  0  0
  8  9  4  0  0  0  0
  9 10  1  0  0  0  0
 10 11  4  0  0  0  0
 10 15  4  0  0  0  0
 11 12  4  0  0  0  0
 11 27  1  0  0  0  0
 12 13  4  0  0  0  0
 12 28  1  0  0  0  0
 13 14  4  0  0  0  0
 13 16  1  0  0  0  0
 14 15  4  0  0  0  0
 14 29  1  0  0  0  0
 15 30  1  0  0  0  0
 16 17  1  0  0  0  0
 17 31  1  0  0  0  0
 17 32  1  0  0  0  0
 17 33  1  0  0  0  0
 18 19  1  0  0  0  0
 18 34  1  0  0  0  0
 19 20  1  0  0  0  0
 19 23  1  0  0  0  0
 19 35  1  0  0  0  0
 20 21  1  0  0  0  0
 20 36  1  0  0  0  0
 20 37  1  0  0  0  0
 21 22  1  0  0  0  0
 21 24  1  0  0  0  0
 21 38  1  0  0  0  0
 22 23  1  0  0  0  0
 22 39  1  0  0  0  0
 22 40  1  0  0  0  0
 23 41  1  0  0  0  0
 23 42  1  0  0  0  0
 24 43  1  0  0  0  0
 24 44  1  0  0  0  0
M  END
> <ConfClashScore>
0 

> <ConfOneFourInteractionScore>
-0.985399 

> <ConfScore>
0.0771799 

> <ConfScorePBest>
0.00172729 

> <ConfTolerance>
0.5575 

$$$$
c13.sdf
 OpenBabel04162418043D

 44 47  0  0  0  0  0  0  0  0999 V2000
    2.1080   -0.3774   -1.8533 N   0  0  0  1  0  0  0  0  0  0  0  0
    2.5363    0.5907   -2.6455 C   0  0  0  1  0  0  0  0  0  0  0  0
    2.1526    0.6996   -3.8968 N   0  0  0  1  0  0  0  0  0  0  0  0
    1.2986   -0.1837   -4.4201 C   0  0  0  1  0  0  0  0  0  0  0  0
    0.8204   -1.2304   -3.6034 C   0  0  0  1  0  0  0  0  0  0  0  0
    1.2616   -1.2960   -2.2850 C   0  0  0  1  0  0  0  0  0  0  0  0
    0.7019   -0.3512   -5.6890 C   0  0  0  1  0  0  0  0  0  0  0  0
   -0.0690   -1.4010   -5.6537 N   0  0  0  1  0  0  0  0  0  0  0  0
   -0.0256   -1.9781   -4.3778 N   0  0  0  1  0  0  0  0  0  0  0  0
   -0.7852   -3.1441   -4.0793 C   0  0  0  1  0  0  0  0  0  0  0  0
   -2.1649   -3.0765   -4.0320 C   0  0  0  1  0  0  0  0  0  0  0  0
   -2.9049   -4.2133   -3.7466 C   0  0  0  1  0  0  0  0  0  0  0  0
   -2.2630   -5.4131   -3.5040 C   0  0  0  1  0  0  0  0  0  0  0  0
   -0.8792   -5.4806   -3.5515 C   0  0  0  1  0  0  0  0  0  0  0  0
   -0.1412   -4.3472   -3.8360 C   0  0  0  1  0  0  0  0  0  0  0  0
   -2.8771   -6.5839   -3.2109 O   0  0  0  1  0  0  0  0  0  0  0  0
   -4.2681   -6.5251   -2.8584 C   0  0  0  1  0  0  0  0  0  0  0  0
    3.4220    1.5245   -2.1388 N   0  0  0  1  0  0  0  0  0  0  0  0
    3.9172    2.5605   -3.0464 C   0  0  0  1  0  0  0  0  0  0  0  0
    4.5659    1.9343   -4.2767 C   0  0  0  1  0  0  0  0  0  0  0  0
    4.1154    2.7463   -5.4971 C   0  0  0  1  0  0  0  0  0  0  0  0
    2.6377    3.1066   -5.1260 C   0  0  0  1  0  0  0  0  0  0  0  0
    2.7295    3.4098   -3.6191 C   0  0  0  1  0  0  0  0  0  0  0  0
    4.9395    3.9655   -5.6651 N   0  0  0  1  0  0  0  0  0  0  0  0
    0.9318   -2.0527   -1.6523 H   0  0  0  1  0  0  0  0  0  0  0  0
    0.8528    0.2621   -6.5152 H   0  0  0  1  0  0  0  0  0  0  0  0
   -2.6477   -2.1729   -4.2106 H   0  0  0  1  0  0  0  0  0  0  0  0
   -3.9432   -4.1635   -3.7149 H   0  0  0  1  0  0  0  0  0  0  0  0
   -0.3963   -6.3843   -3.3729 H   0  0  0  1  0  0  0  0  0  0  0  0
    0.8971   -4.3971   -3.8677 H   0  0  0  1  0  0  0  0  0  0  0  0
   -4.3807   -5.9934   -1.9366 H   0  0  0  1  0  0  0  0  0  0  0  0
   -4.6496   -7.5184   -2.7459 H   0  0  0  1  0  0  0  0  0  0  0  0
   -4.8103   -6.0194   -3.6300 H   0  0  0  1  0  0  0  0  0  0  0  0
    3.7087    1.4933   -1.2021 H   0  0  0  1  0  0  0  0  0  0  0  0
    4.6140    3.1858   -2.5283 H   0  0  0  1  0  0  0  0  0  0  0  0
    5.6315    1.9710   -4.1865 H   0  0  0  1  0  0  0  0  0  0  0  0
    4.2508    0.9168   -4.3780 H   0  0  0  1  0  0  0  0  0  0  0  0
    4.1590    2.1598   -6.3910 H   0  0  0  1  0  0  0  0  0  0  0  0
    1.9813    2.2828   -5.3142 H   0  0  0  1  0  0  0  0  0  0  0  0
    2.3012    3.9633   -5.6717 H   0  0  0  1  0  0  0  0  0  0  0  0
    1.8158    3.1359   -3.1339 H   0  0  0  1  0  0  0  0  0  0  0  0
    2.9168    4.4521   -3.4657 H   0  0  0  1  0  0  0  0  0  0  0  0
    5.8628    3.7103   -5.8718 H   0  0  0  1  0  0  0  0  0  0  0  0
    4.9229    4.4876   -4.8359 H   0  0  0  1  0  0  0  0  0  0  0  0
  1  2  4  0  0  0  0
  1  6  4  0  0  0  0
  2  3  4  0  0  0  0
  2 18  1  0  0  0  0
  3  4  4  0  0  0  0
  4  5  4  0  0  0  0
  4  7  4  0  0  0  0
  5  6  4  0  0  0  0
  5  9  4  0  0  0  0
  6 25  1  0  0  0  0
  7  8  4  0  0  0  0
  7 26  1  0  0  0  0
  8  9  4  0  0  0  0
  9 10  1  0  0  0  0
 10 11  4  0  0  0  0
 10 15  4  0  0  0  0
 11 12  4  0  0  0  0
 11 27  1  0  0  0  0
 12 13  4  0  0  0  0
 12 28  1  0  0  0  0
 13 14  4  0  0  0  0
 13 16  1  0  0  0  0
 14 15  4  0  0  0  0
 14 29  1  0  0  0  0
 15 30  1  0  0  0  0
 16 17  1  0  0  0  0
 17 31  1  0  0  0  0
 17 32  1  0  0  0  0
 17 33  1  0  0  0  0
 18 19  1  0  0  0  0
 18 34  1  0  0  0  0
 19 20  1  0  0  0  0
 19 23  1  0  0  0  0
 19 35  1  0  0  0  0
 20 21  1  0  0  0  0
 20 36  1  0  0  0  0
 20 37  1  0  0  0  0
 21 22  1  0  0  0  0
 21 24  1  0  0  0  0
 21 38  1  0  0  0  0
 22 23  1  0  0  0  0
 22 39  1  0  0  0  0
 22 40  1  0  0  0  0
 23 41  1  0  0  0  0
 23 42  1  0  0  0  0
 24 43  1  0  0  0  0
 24 44  1  0  0  0  0
M  END
> <ConfClashScore>
0.000639123 

> <ConfOneFourInteractionScore>
-0.980204 

> <ConfScore>
0.0840221 

> <ConfScorePBest>
0.00171396 

> <ConfTolerance>
0.443128 

$$$$
c13.sdf
 OpenBabel04162418043D

 44 47  0  0  0  0  0  0  0  0999 V2000
    2.1080   -0.3773   -1.8532 N   0  0  0  1  0  0  0  0  0  0  0  0
    2.5363    0.5907   -2.6455 C   0  0  0  1  0  0  0  0  0  0  0  0
    2.1525    0.6997   -3.8968 N   0  0  0  1  0  0  0  0  0  0  0  0
    1.2985   -0.1837   -4.4201 C   0  0  0  1  0  0  0  0  0  0  0  0
    0.8205   -1.2305   -3.6033 C   0  0  0  1  0  0  0  0  0  0  0  0
    1.2616   -1.2960   -2.2850 C   0  0  0  1  0  0  0  0  0  0  0  0
    0.7018   -0.3512   -5.6890 C   0  0  0  1  0  0  0  0  0  0  0  0
   -0.0689   -1.4009   -5.6537 N   0  0  0  1  0  0  0  0  0  0  0  0
   -0.0256   -1.9781   -4.3778 N   0  0  0  1  0  0  0  0  0  0  0  0
   -0.8649   -3.0822   -4.0676 C   0  0  0  1  0  0  0  0  0  0  0  0
   -0.4961   -3.9757   -3.0797 C   0  0  0  1  0  0  0  0  0  0  0  0
   -1.2704   -5.0995   -2.8376 C   0  0  0  1  0  0  0  0  0  0  0  0
   -2.4084   -5.3296   -3.5876 C   0  0  0  1  0  0  0  0  0  0  0  0
   -2.7782   -4.4334   -4.5784 C   0  0  0  1  0  0  0  0  0  0  0  0
   -2.0062   -3.3127   -4.8199 C   0  0  0  1  0  0  0  0  0  0  0  0
   -3.0802   -6.4602   -3.2647 O   0  0  0  1  0  0  0  0  0  0  0  0
   -4.2374   -6.7833   -4.0516 C   0  0  0  1  0  0  0  0  0  0  0  0
    3.3977    1.4989   -2.1527 N   0  0  0  1  0  0  0  0  0  0  0  0
    3.7844    1.5763   -0.7408 C   0  0  0  1  0  0  0  0  0  0  0  0
    2.5534    1.4263    0.1621 C   0  0  0  1  0  0  0  0  0  0  0  0
    2.8569    0.2751    1.1237 C   0  0  0  1  0  0  0  0  0  0  0  0
    4.3771    0.0992    1.0904 C   0  0  0  1  0  0  0  0  0  0  0  0
    4.7030    0.4064   -0.3714 C   0  0  0  1  0  0  0  0  0  0  0  0
    2.4043    0.6149    2.4989 N   0  0  0  1  0  0  0  0  0  0  0  0
    0.9318   -2.0527   -1.6523 H   0  0  0  1  0  0  0  0  0  0  0  0
    0.8528    0.2622   -6.5152 H   0  0  0  1  0  0  0  0  0  0  0  0
    0.3624   -3.8047   -2.5180 H   0  0  0  1  0  0  0  0  0  0  0  0
   -0.9952   -5.7697   -2.0916 H   0  0  0  1  0  0  0  0  0  0  0  0
   -3.6367   -4.6042   -5.1401 H   0  0  0  1  0  0  0  0  0  0  0  0
   -2.2814   -2.6424   -5.5659 H   0  0  0  1  0  0  0  0  0  0  0  0
   -4.7067   -7.6587   -3.6538 H   0  0  0  1  0  0  0  0  0  0  0  0
   -3.9408   -6.9663   -5.0632 H   0  0  0  1  0  0  0  0  0  0  0  0
   -4.9268   -5.9655   -4.0238 H   0  0  0  1  0  0  0  0  0  0  0  0
    3.7899    2.1471   -2.7742 H   0  0  0  1  0  0  0  0  0  0  0  0
    4.2737    2.5096   -0.5551 H   0  0  0  1  0  0  0  0  0  0  0  0
    2.3845    2.3301    0.7094 H   0  0  0  1  0  0  0  0  0  0  0  0
    1.6893    1.1982   -0.4264 H   0  0  0  1  0  0  0  0  0  0  0  0
    2.3704   -0.6208    0.7987 H   0  0  0  1  0  0  0  0  0  0  0  0
    4.6580   -0.9003    1.3490 H   0  0  0  1  0  0  0  0  0  0  0  0
    4.8622    0.7885    1.7494 H   0  0  0  1  0  0  0  0  0  0  0  0
    4.4983   -0.4428   -0.9893 H   0  0  0  1  0  0  0  0  0  0  0  0
    5.7303    0.6861   -0.4775 H   0  0  0  1  0  0  0  0  0  0  0  0
    2.4417   -0.1857    3.0628 H   0  0  0  1  0  0  0  0  0  0  0  0
    1.4833    0.9485    2.4662 H   0  0  0  1  0  0  0  0  0  0  0  0
  1  2  4  0  0  0  0
  1  6  4  0  0  0  0
  2  3  4  0  0  0  0
  2 18  1  0  0  0  0
  3  4  4  0  0  0  0
  4  5  4  0  0  0  0
  4  7  4  0  0  0  0
  5  6  4  0  0  0  0
  5  9  4  0  0  0  0
  6 25  1  0  0  0  0
  7  8  4  0  0  0  0
  7 26  1  0  0  0  0
  8  9  4  0  0  0  0
  9 10  1  0  0  0  0
 10 11  4  0  0  0  0
 10 15  4  0  0  0  0
 11 12  4  0  0  0  0
 11 27  1  0  0  0  0
 12 13  4  0  0  0  0
 12 28  1  0  0  0  0
 13 14  4  0  0  0  0
 13 16  1  0  0  0  0
 14 15  4  0  0  0  0
 14 29  1  0  0  0  0
 15 30  1  0  0  0  0
 16 17  1  0  0  0  0
 17 31  1  0  0  0  0
 17 32  1  0  0  0  0
 17 33  1  0  0  0  0
 18 19  1  0  0  0  0
 18 34  1  0  0  0  0
 19 20  1  0  0  0  0
 19 23  1  0  0  0  0
 19 35  1  0  0  0  0
 20 21  1  0  0  0  0
 20 36  1  0  0  0  0
 20 37  1  0  0  0  0
 21 22  1  0  0  0  0
 21 24  1  0  0  0  0
 21 38  1  0  0  0  0
 22 23  1  0  0  0  0
 22 39  1  0  0  0  0
 22 40  1  0  0  0  0
 23 41  1  0  0  0  0
 23 42  1  0  0  0  0
 24 43  1  0  0  0  0
 24 44  1  0  0  0  0
M  END
> <ConfClashScore>
0 

> <ConfOneFourInteractionScore>
-0.982693 

> <ConfScore>
0.0879121 

> <ConfScorePBest>
0.00170063 

> <ConfTolerance>
0.366355 

$$$$
c13.sdf
 OpenBabel04162418043D

 44 47  0  0  0  0  0  0  0  0999 V2000
    2.1080   -0.3773   -1.8532 N   0  0  0  1  0  0  0  0  0  0  0  0
    2.5364    0.5908   -2.6455 C   0  0  0  1  0  0  0  0  0  0  0  0
    2.1526    0.6996   -3.8969 N   0  0  0  1  0  0  0  0  0  0  0  0
    1.2986   -0.1837   -4.4201 C   0  0  0  1  0  0  0  0  0  0  0  0
    0.8205   -1.2305   -3.6034 C   0  0  0  1  0  0  0  0  0  0  0  0
    1.2615   -1.2960   -2.2850 C   0  0  0  1  0  0  0  0  0  0  0  0
    0.7020   -0.3513   -5.6890 C   0  0  0  1  0  0  0  0  0  0  0  0
   -0.0689   -1.4010   -5.6538 N   0  0  0  1  0  0  0  0  0  0  0  0
   -0.0256   -1.9781   -4.3778 N   0  0  0  1  0  0  0  0  0  0  0  0
   -0.7583   -3.1315   -4.0321 C   0  0  0  1  0  0  0  0  0  0  0  0
   -0.2388   -4.1233   -3.2217 C   0  0  0  1  0  0  0  0  0  0  0  0
   -1.0055   -5.2348   -2.9088 C   0  0  0  1  0  0  0  0  0  0  0  0
   -2.2875   -5.3541   -3.4115 C   0  0  0  1  0  0  0  0  0  0  0  0
   -2.8084   -4.3594   -4.2243 C   0  0  0  1  0  0  0  0  0  0  0  0
   -2.0441   -3.2509   -4.5363 C   0  0  0  1  0  0  0  0  0  0  0  0
   -3.0345   -6.4426   -3.1100 O   0  0  0  1  0  0  0  0  0  0  0  0
   -2.3829   -7.5111   -2.4055 C   0  0  0  1  0  0  0  0  0  0  0  0
    3.4084    1.4870   -2.1000 N   0  0  0  1  0  0  0  0  0  0  0  0
    4.1175    2.4702   -2.9235 C   0  0  0  1  0  0  0  0  0  0  0  0
    3.1315    3.3027   -3.7595 C   0  0  0  1  0  0  0  0  0  0  0  0
    3.5583    4.7599   -3.6760 C   0  0  0  1  0  0  0  0  0  0  0  0
    4.9038    4.7638   -2.9254 C   0  0  0  1  0  0  0  0  0  0  0  0
    4.8034    3.5122   -2.0574 C   0  0  0  1  0  0  0  0  0  0  0  0
    3.7265    5.3318   -5.0473 N   0  0  0  1  0  0  0  0  0  0  0  0
    0.9317   -2.0526   -1.6522 H   0  0  0  1  0  0  0  0  0  0  0  0
    0.8529    0.2620   -6.5153 H   0  0  0  1  0  0  0  0  0  0  0  0
    0.7273   -4.0355   -2.8467 H   0  0  0  1  0  0  0  0  0  0  0  0
   -0.6160   -5.9792   -2.2957 H   0  0  0  1  0  0  0  0  0  0  0  0
   -3.7744   -4.4471   -4.5992 H   0  0  0  1  0  0  0  0  0  0  0  0
   -2.4335   -2.5065   -5.1494 H   0  0  0  1  0  0  0  0  0  0  0  0
   -1.4744   -7.7689   -2.9086 H   0  0  0  1  0  0  0  0  0  0  0  0
   -3.0282   -8.3641   -2.3756 H   0  0  0  1  0  0  0  0  0  0  0  0
   -2.1605   -7.1964   -1.4073 H   0  0  0  1  0  0  0  0  0  0  0  0
    3.5645    1.4728   -1.1327 H   0  0  0  1  0  0  0  0  0  0  0  0
    4.8237    1.9679   -3.5511 H   0  0  0  1  0  0  0  0  0  0  0  0
    2.1412    3.1916   -3.3698 H   0  0  0  1  0  0  0  0  0  0  0  0
    3.1533    2.9759   -4.7781 H   0  0  0  1  0  0  0  0  0  0  0  0
    2.8304    5.3304   -3.1378 H   0  0  0  1  0  0  0  0  0  0  0  0
    5.0083    5.6431   -2.3246 H   0  0  0  1  0  0  0  0  0  0  0  0
    5.7262    4.6966   -3.6065 H   0  0  0  1  0  0  0  0  0  0  0  0
    5.7784    3.1770   -1.7712 H   0  0  0  1  0  0  0  0  0  0  0  0
    4.2225    3.7110   -1.1811 H   0  0  0  1  0  0  0  0  0  0  0  0
    3.3904    4.6939   -5.7111 H   0  0  0  1  0  0  0  0  0  0  0  0
    4.6763    5.5063   -5.2139 H   0  0  0  1  0  0  0  0  0  0  0  0
  1  2  4  0  0  0  0
  1  6  4  0  0  0  0
  2  3  4  0  0  0  0
  2 18  1  0  0  0  0
  3  4  4  0  0  0  0
  4  5  4  0  0  0  0
  4  7  4  0  0  0  0
  5  6  4  0  0  0  0
  5  9  4  0  0  0  0
  6 25  1  0  0  0  0
  7  8  4  0  0  0  0
  7 26  1  0  0  0  0
  8  9  4  0  0  0  0
  9 10  1  0  0  0  0
 10 11  4  0  0  0  0
 10 15  4  0  0  0  0
 11 12  4  0  0  0  0
 11 27  1  0  0  0  0
 12 13  4  0  0  0  0
 12 28  1  0  0  0  0
 13 14  4  0  0  0  0
 13 16  1  0  0  0  0
 14 15  4  0  0  0  0
 14 29  1  0  0  0  0
 15 30  1  0  0  0  0
 16 17  1  0  0  0  0
 17 31  1  0  0  0  0
 17 32  1  0  0  0  0
 17 33  1  0  0  0  0
 18 19  1  0  0  0  0
 18 34  1  0  0  0  0
 19 20  1  0  0  0  0
 19 23  1  0  0  0  0
 19 35  1  0  0  0  0
 20 21  1  0  0  0  0
 20 36  1  0  0  0  0
 20 37  1  0  0  0  0
 21 22  1  0  0  0  0
 21 24  1  0  0  0  0
 21 38  1  0  0  0  0
 22 23  1  0  0  0  0
 22 39  1  0  0  0  0
 22 40  1  0  0  0  0
 23 41  1  0  0  0  0
 23 42  1  0  0  0  0
 24 43  1  0  0  0  0
 24 44  1  0  0  0  0
M  END
> <ConfClashScore>
0 

> <ConfOneFourInteractionScore>
-0.985399 

> <ConfScore>
0.0898254 

> <ConfScorePBest>
0.0016873 

> <ConfTolerance>
0.53685 

$$$$
c13.sdf
 OpenBabel04162418043D

 44 47  0  0  0  0  0  0  0  0999 V2000
    2.1079   -0.3774   -1.8532 N   0  0  0  1  0  0  0  0  0  0  0  0
    2.5363    0.5907   -2.6455 C   0  0  0  1  0  0  0  0  0  0  0  0
    2.1526    0.6996   -3.8968 N   0  0  0  1  0  0  0  0  0  0  0  0
    1.2986   -0.1837   -4.4201 C   0  0  0  1  0  0  0  0  0  0  0  0
    0.8204   -1.2305   -3.6034 C   0  0  0  1  0  0  0  0  0  0  0  0
    1.2615   -1.2960   -2.2850 C   0  0  0  1  0  0  0  0  0  0  0  0
    0.7019   -0.3513   -5.6890 C   0  0  0  1  0  0  0  0  0  0  0  0
   -0.0690   -1.4010   -5.6538 N   0  0  0  1  0  0  0  0  0  0  0  0
   -0.0256   -1.9781   -4.3778 N   0  0  0  1  0  0  0  0  0  0  0  0
   -0.7779   -3.1329   -4.0822 C   0  0  0  1  0  0  0  0  0  0  0  0
   -0.4032   -4.3911   -4.5142 C   0  0  0  1  0  0  0  0  0  0  0  0
   -1.1777   -5.4941   -4.1901 C   0  0  0  1  0  0  0  0  0  0  0  0
   -2.3274   -5.3351   -3.4396 C   0  0  0  1  0  0  0  0  0  0  0  0
   -2.7031   -4.0730   -3.0064 C   0  0  0  1  0  0  0  0  0  0  0  0
   -1.9310   -2.9731   -3.3296 C   0  0  0  1  0  0  0  0  0  0  0  0
   -3.0828   -6.4064   -3.1291 O   0  0  0  1  0  0  0  0  0  0  0  0
   -2.5799   -7.6721   -3.6168 C   0  0  0  1  0  0  0  0  0  0  0  0
    3.3977    1.4988   -2.1527 N   0  0  0  1  0  0  0  0  0  0  0  0
    3.8898    1.4907   -0.7821 C   0  0  0  1  0  0  0  0  0  0  0  0
    2.7377    1.5431    0.2214 C   0  0  0  1  0  0  0  0  0  0  0  0
    3.3225    0.9779    1.5205 C   0  0  0  1  0  0  0  0  0  0  0  0
    4.4287    0.0106    1.0802 C   0  0  0  1  0  0  0  0  0  0  0  0
    4.5538    0.1551   -0.4384 C   0  0  0  1  0  0  0  0  0  0  0  0
    3.8938    2.0806    2.3628 N   0  0  0  1  0  0  0  0  0  0  0  0
    0.9317   -2.0527   -1.6523 H   0  0  0  1  0  0  0  0  0  0  0  0
    0.8529    0.2621   -6.5152 H   0  0  0  1  0  0  0  0  0  0  0  0
    0.4597   -4.5103   -5.0823 H   0  0  0  1  0  0  0  0  0  0  0  0
   -0.8936   -6.4415   -4.5116 H   0  0  0  1  0  0  0  0  0  0  0  0
   -3.5660   -3.9538   -2.4384 H   0  0  0  1  0  0  0  0  0  0  0  0
   -2.2150   -2.0257   -3.0080 H   0  0  0  1  0  0  0  0  0  0  0  0
   -2.9995   -8.4694   -3.0397 H   0  0  0  1  0  0  0  0  0  0  0  0
   -1.5139   -7.6903   -3.5276 H   0  0  0  1  0  0  0  0  0  0  0  0
   -2.8545   -7.7927   -4.6439 H   0  0  0  1  0  0  0  0  0  0  0  0
    3.7125    2.2079   -2.7513 H   0  0  0  1  0  0  0  0  0  0  0  0
    4.5656    2.3081   -0.6404 H   0  0  0  1  0  0  0  0  0  0  0  0
    2.4082    2.5511    0.3641 H   0  0  0  1  0  0  0  0  0  0  0  0
    1.9179    0.9433   -0.1148 H   0  0  0  1  0  0  0  0  0  0  0  0
    2.5695    0.4582    2.0753 H   0  0  0  1  0  0  0  0  0  0  0  0
    4.1638   -0.9942    1.3351 H   0  0  0  1  0  0  0  0  0  0  0  0
    5.3535    0.2671    1.5532 H   0  0  0  1  0  0  0  0  0  0  0  0
    5.5837    0.1646   -0.7286 H   0  0  0  1  0  0  0  0  0  0  0  0
    4.0509   -0.6498   -0.9324 H   0  0  0  1  0  0  0  0  0  0  0  0
    4.5528    2.5835    1.8402 H   0  0  0  1  0  0  0  0  0  0  0  0
    4.3281    1.6964    3.1528 H   0  0  0  1  0  0  0  0  0  0  0  0
  1  2  4  0  0  0  0
  1  6  4  0  0  0  0
  2  3  4  0  0  0  0
  2 18  1  0  0  0  0
  3  4  4  0  0  0  0
  4  5  4  0  0  0  0
  4  7  4  0  0  0  0
  5  6  4  0  0  0  0
  5  9  4  0  0  0  0
  6 25  1  0  0  0  0
  7  8  4  0  0  0  0
  7 26  1  0  0  0  0
  8  9  4  0  0  0  0
  9 10  1  0  0  0  0
 10 11  4  0  0  0  0
 10 15  4  0  0  0  0
 11 12  4  0  0  0  0
 11 27  1  0  0  0  0
 12 13  4  0  0  0  0
 12 28  1  0  0  0  0
 13 14  4  0  0  0  0
 13 16  1  0  0  0  0
 14 15  4  0  0  0  0
 14 29  1  0  0  0  0
 15 30  1  0  0  0  0
 16 17  1  0  0  0  0
 17 31  1  0  0  0  0
 17 32  1  0  0  0  0
 17 33  1  0  0  0  0
 18 19  1  0  0  0  0
 18 34  1  0  0  0  0
 19 20  1  0  0  0  0
 19 23  1  0  0  0  0
 19 35  1  0  0  0  0
 20 21  1  0  0  0  0
 20 36  1  0  0  0  0
 20 37  1  0  0  0  0
 21 22  1  0  0  0  0
 21 24  1  0  0  0  0
 21 38  1  0  0  0  0
 22 23  1  0  0  0  0
 22 39  1  0  0  0  0
 22 40  1  0  0  0  0
 23 41  1  0  0  0  0
 23 42  1  0  0  0  0
 24 43  1  0  0  0  0
 24 44  1  0  0  0  0
M  END
> <ConfClashScore>
0 

> <ConfOneFourInteractionScore>
-0.980204 

> <ConfScore>
0.0900121 

> <ConfScorePBest>
0.00167397 

> <ConfTolerance>
0.484304 

$$$$
c13.sdf
 OpenBabel04162418043D

 44 47  0  0  0  0  0  0  0  0999 V2000
    2.1080   -0.3773   -1.8533 N   0  0  0  1  0  0  0  0  0  0  0  0
    2.5363    0.5907   -2.6455 C   0  0  0  1  0  0  0  0  0  0  0  0
    2.1526    0.6997   -3.8968 N   0  0  0  1  0  0  0  0  0  0  0  0
    1.2986   -0.1837   -4.4201 C   0  0  0  1  0  0  0  0  0  0  0  0
    0.8204   -1.2304   -3.6033 C   0  0  0  1  0  0  0  0  0  0  0  0
    1.2616   -1.2960   -2.2849 C   0  0  0  1  0  0  0  0  0  0  0  0
    0.7018   -0.3512   -5.6889 C   0  0  0  1  0  0  0  0  0  0  0  0
   -0.0689   -1.4010   -5.6537 N   0  0  0  1  0  0  0  0  0  0  0  0
   -0.0256   -1.9781   -4.3778 N   0  0  0  1  0  0  0  0  0  0  0  0
   -0.6684   -3.2199   -4.1238 C   0  0  0  1  0  0  0  0  0  0  0  0
   -0.3886   -4.3175   -4.9156 C   0  0  0  1  0  0  0  0  0  0  0  0
   -1.0117   -5.5301   -4.6644 C   0  0  0  1  0  0  0  0  0  0  0  0
   -1.9166   -5.6401   -3.6256 C   0  0  0  1  0  0  0  0  0  0  0  0
   -2.1971   -4.5391   -2.8313 C   0  0  0  1  0  0  0  0  0  0  0  0
   -1.5760   -3.3300   -3.0817 C   0  0  0  1  0  0  0  0  0  0  0  0
   -2.4049   -6.8723   -3.3481 O   0  0  0  1  0  0  0  0  0  0  0  0
   -3.2753   -6.9927   -2.2121 C   0  0  0  1  0  0  0  0  0  0  0  0
    3.3929    1.5242   -2.2161 N   0  0  0  1  0  0  0  0  0  0  0  0
    3.9879    1.6098   -0.8829 C   0  0  0  1  0  0  0  0  0  0  0  0
    2.9023    1.6025    0.1819 C   0  0  0  1  0  0  0  0  0  0  0  0
    3.2230    0.4775    1.1796 C   0  0  0  1  0  0  0  0  0  0  0  0
    4.6831    0.1698    0.8974 C   0  0  0  1  0  0  0  0  0  0  0  0
    4.8604    0.3708   -0.6052 C   0  0  0  1  0  0  0  0  0  0  0  0
    3.0384    0.9343    2.5675 N   0  0  0  1  0  0  0  0  0  0  0  0
    0.9318   -2.0526   -1.6522 H   0  0  0  1  0  0  0  0  0  0  0  0
    0.8528    0.2621   -6.5152 H   0  0  0  1  0  0  0  0  0  0  0  0
    0.2892   -4.2337   -5.6999 H   0  0  0  1  0  0  0  0  0  0  0  0
   -0.7982   -6.3570   -5.2578 H   0  0  0  1  0  0  0  0  0  0  0  0
   -2.8750   -4.6228   -2.0471 H   0  0  0  1  0  0  0  0  0  0  0  0
   -1.7895   -2.5030   -2.4884 H   0  0  0  1  0  0  0  0  0  0  0  0
   -3.0451   -6.2254   -1.5028 H   0  0  0  1  0  0  0  0  0  0  0  0
   -3.1374   -7.9515   -1.7575 H   0  0  0  1  0  0  0  0  0  0  0  0
   -4.2921   -6.8910   -2.5297 H   0  0  0  1  0  0  0  0  0  0  0  0
    3.6469    2.2194   -2.8584 H   0  0  0  1  0  0  0  0  0  0  0  0
    4.5744    2.5018   -0.8100 H   0  0  0  1  0  0  0  0  0  0  0  0
    1.9499    1.4245   -0.2720 H   0  0  0  1  0  0  0  0  0  0  0  0
    2.8856    2.5442    0.6897 H   0  0  0  1  0  0  0  0  0  0  0  0
    2.6086   -0.3801    1.0012 H   0  0  0  1  0  0  0  0  0  0  0  0
    5.3177    0.8379    1.4412 H   0  0  0  1  0  0  0  0  0  0  0  0
    4.9113   -0.8399    1.1687 H   0  0  0  1  0  0  0  0  0  0  0  0
    4.5099   -0.4791   -1.1527 H   0  0  0  1  0  0  0  0  0  0  0  0
    5.8849    0.5568   -0.8518 H   0  0  0  1  0  0  0  0  0  0  0  0
    2.0823    0.9518    2.7818 H   0  0  0  1  0  0  0  0  0  0  0  0
    3.4118    1.8349    2.6673 H   0  0  0  1  0  0  0  0  0  0  0  0
  1  2  4  0  0  0  0
  1  6  4  0  0  0  0
  2  3  4  0  0  0  0
  2 18  1  0  0  0  0
  3  4  4  0  0  0  0
  4  5  4  0  0  0  0
  4  7  4  0  0  0  0
  5  6  4  0  0  0  0
  5  9  4  0  0  0  0
  6 25  1  0  0  0  0
  7  8  4  0  0  0  0
  7 26  1  0  0  0  0
  8  9  4  0  0  0  0
  9 10  1  0  0  0  0
 10 11  4  0  0  0  0
 10 15  4  0  0  0  0
 11 12  4  0  0  0  0
 11 27  1  0  0  0  0
 12 13  4  0  0  0  0
 12 28  1  0  0  0  0
 13 14  4  0  0  0  0
 13 16  1  0  0  0  0
 14 15  4  0  0  0  0
 14 29  1  0  0  0  0
 15 30  1  0  0  0  0
 16 17  1  0  0  0  0
 17 31  1  0  0  0  0
 17 32  1  0  0  0  0
 17 33  1  0  0  0  0
 18 19  1  0  0  0  0
 18 34  1  0  0  0  0
 19 20  1  0  0  0  0
 19 23  1  0  0  0  0
 19 35  1  0  0  0  0
 20 21  1  0  0  0  0
 20 36  1  0  0  0  0
 20 37  1  0  0  0  0
 21 22  1  0  0  0  0
 21 24  1  0  0  0  0
 21 38  1  0  0  0  0
 22 23  1  0  0  0  0
 22 39  1  0  0  0  0
 22 40  1  0  0  0  0
 23 41  1  0  0  0  0
 23 42  1  0  0  0  0
 24 43  1  0  0  0  0
 24 44  1  0  0  0  0
M  END
> <ConfClashScore>
0 

> <ConfOneFourInteractionScore>
-0.980204 

> <ConfScore>
0.091607 

> <ConfScorePBest>
0.00166065 

> <ConfTolerance>
0.35192 

$$$$
c13.sdf
 OpenBabel04162418043D

 44 47  0  0  0  0  0  0  0  0999 V2000
    2.1079   -0.3773   -1.8532 N   0  0  0  1  0  0  0  0  0  0  0  0
    2.5364    0.5907   -2.6455 C   0  0  0  1  0  0  0  0  0  0  0  0
    2.1526    0.6996   -3.8968 N   0  0  0  1  0  0  0  0  0  0  0  0
    1.2985   -0.1838   -4.4201 C   0  0  0  1  0  0  0  0  0  0  0  0
    0.8204   -1.2304   -3.6033 C   0  0  0  1  0  0  0  0  0  0  0  0
    1.2616   -1.2960   -2.2849 C   0  0  0  1  0  0  0  0  0  0  0  0
    0.7020   -0.3513   -5.6890 C   0  0  0  1  0  0  0  0  0  0  0  0
   -0.0689   -1.4010   -5.6537 N   0  0  0  1  0  0  0  0  0  0  0  0
   -0.0256   -1.9781   -4.3778 N   0  0  0  1  0  0  0  0  0  0  0  0
   -0.8670   -3.0578   -4.0211 C   0  0  0  1  0  0  0  0  0  0  0  0
   -0.3171   -4.2795   -3.6822 C   0  0  0  1  0  0  0  0  0  0  0  0
   -1.1415   -5.3360   -3.3275 C   0  0  0  1  0  0  0  0  0  0  0  0
   -2.5135   -5.1691   -3.3178 C   0  0  0  1  0  0  0  0  0  0  0  0
   -3.0649   -3.9435   -3.6578 C   0  0  0  1  0  0  0  0  0  0  0  0
   -2.2430   -2.8901   -4.0115 C   0  0  0  1  0  0  0  0  0  0  0  0
   -3.2658   -6.1930   -2.8493 O   0  0  0  1  0  0  0  0  0  0  0  0
   -4.6783   -5.9660   -2.7246 C   0  0  0  1  0  0  0  0  0  0  0  0
    3.3976    1.4989   -2.1526 N   0  0  0  1  0  0  0  0  0  0  0  0
    4.0318    2.5886   -2.8961 C   0  0  0  1  0  0  0  0  0  0  0  0
    4.3179    3.7734   -1.9692 C   0  0  0  1  0  0  0  0  0  0  0  0
    5.6383    4.3556   -2.4854 C   0  0  0  1  0  0  0  0  0  0  0  0
    6.4300    3.1001   -2.8124 C   0  0  0  1  0  0  0  0  0  0  0  0
    5.4010    2.1476   -3.4306 C   0  0  0  1  0  0  0  0  0  0  0  0
    5.4221    5.1961   -3.7060 N   0  0  0  1  0  0  0  0  0  0  0  0
    0.9317   -2.0527   -1.6522 H   0  0  0  1  0  0  0  0  0  0  0  0
    0.8529    0.2620   -6.5152 H   0  0  0  1  0  0  0  0  0  0  0  0
    0.7151   -4.4064   -3.6934 H   0  0  0  1  0  0  0  0  0  0  0  0
   -0.7276   -6.2543   -3.0686 H   0  0  0  1  0  0  0  0  0  0  0  0
   -4.0970   -3.8167   -3.6466 H   0  0  0  1  0  0  0  0  0  0  0  0
   -2.6568   -1.9718   -4.2704 H   0  0  0  1  0  0  0  0  0  0  0  0
   -5.1749   -6.3114   -3.6073 H   0  0  0  1  0  0  0  0  0  0  0  0
   -4.8615   -4.9192   -2.5993 H   0  0  0  1  0  0  0  0  0  0  0  0
   -5.0512   -6.4980   -1.8746 H   0  0  0  1  0  0  0  0  0  0  0  0
    3.6228    1.4235   -1.2018 H   0  0  0  1  0  0  0  0  0  0  0  0
    3.3950    2.8893   -3.7017 H   0  0  0  1  0  0  0  0  0  0  0  0
    3.5347    4.4997   -2.0315 H   0  0  0  1  0  0  0  0  0  0  0  0
    4.4203    3.4445   -0.9562 H   0  0  0  1  0  0  0  0  0  0  0  0
    6.1269    4.9382   -1.7325 H   0  0  0  1  0  0  0  0  0  0  0  0
    7.2114    3.3171   -3.5103 H   0  0  0  1  0  0  0  0  0  0  0  0
    6.8513    2.6770   -1.9246 H   0  0  0  1  0  0  0  0  0  0  0  0
    5.4231    2.2204   -4.4979 H   0  0  0  1  0  0  0  0  0  0  0  0
    5.6061    1.1394   -3.1369 H   0  0  0  1  0  0  0  0  0  0  0  0
    4.5433    5.6268   -3.6553 H   0  0  0  1  0  0  0  0  0  0  0  0
    5.4620    4.6288   -4.5041 H   0  0  0  1  0  0  0  0  0  0  0  0
  1  2  4  0  0  0  0
  1  6  4  0  0  0  0
  2  3  4  0  0  0  0
  2 18  1  0  0  0  0
  3  4  4  0  0  0  0
  4  5  4  0  0  0  0
  4  7  4  0  0  0  0
  5  6  4  0  0  0  0
  5  9  4  0  0  0  0
  6 25  1  0  0  0  0
  7  8  4  0  0  0  0
  7 26  1  0  0  0  0
  8  9  4  0  0  0  0
  9 10  1  0  0  0  0
 10 11  4  0  0  0  0
 10 15  4  0  0  0  0
 11 12  4  0  0  0  0
 11 27  1  0  0  0  0
 12 13  4  0  0  0  0
 12 28  1  0  0  0  0
 13 14  4  0  0  0  0
 13 16  1  0  0  0  0
 14 15  4  0  0  0  0
 14 29  1  0  0  0  0
 15 30  1  0  0  0  0
 16 17  1  0  0  0  0
 17 31  1  0  0  0  0
 17 32  1  0  0  0  0
 17 33  1  0  0  0  0
 18 19  1  0  0  0  0
 18 34  1  0  0  0  0
 19 20  1  0  0  0  0
 19 23  1  0  0  0  0
 19 35  1  0  0  0  0
 20 21  1  0  0  0  0
 20 36  1  0  0  0  0
 20 37  1  0  0  0  0
 21 22  1  0  0  0  0
 21 24  1  0  0  0  0
 21 38  1  0  0  0  0
 22 23  1  0  0  0  0
 22 39  1  0  0  0  0
 22 40  1  0  0  0  0
 23 41  1  0  0  0  0
 23 42  1  0  0  0  0
 24 43  1  0  0  0  0
 24 44  1  0  0  0  0
M  END
> <ConfClashScore>
0 

> <ConfOneFourInteractionScore>
-0.984337 

> <ConfScore>
0.0970472 

> <ConfScorePBest>
0.00164732 

> <ConfTolerance>
0.607569 

$$$$
c13.sdf
 OpenBabel04162418043D

 44 47  0  0  0  0  0  0  0  0999 V2000
    2.1080   -0.3774   -1.8532 N   0  0  0  1  0  0  0  0  0  0  0  0
    2.5363    0.5907   -2.6455 C   0  0  0  1  0  0  0  0  0  0  0  0
    2.1526    0.6996   -3.8968 N   0  0  0  1  0  0  0  0  0  0  0  0
    1.2986   -0.1837   -4.4201 C   0  0  0  1  0  0  0  0  0  0  0  0
    0.8204   -1.2305   -3.6033 C   0  0  0  1  0  0  0  0  0  0  0  0
    1.2615   -1.2960   -2.2850 C   0  0  0  1  0  0  0  0  0  0  0  0
    0.7019   -0.3513   -5.6890 C   0  0  0  1  0  0  0  0  0  0  0  0
   -0.0689   -1.4010   -5.6537 N   0  0  0  1  0  0  0  0  0  0  0  0
   -0.0256   -1.9781   -4.3778 N   0  0  0  1  0  0  0  0  0  0  0  0
   -0.7857   -3.1447   -4.0791 C   0  0  0  1  0  0  0  0  0  0  0  0
   -1.7504   -3.1065   -3.0902 C   0  0  0  1  0  0  0  0  0  0  0  0
   -2.4939   -4.2406   -2.8031 C   0  0  0  1  0  0  0  0  0  0  0  0
   -2.2670   -5.4111   -3.5021 C   0  0  0  1  0  0  0  0  0  0  0  0
   -1.2993   -5.4494   -4.4939 C   0  0  0  1  0  0  0  0  0  0  0  0
   -0.5578   -4.3187   -4.7802 C   0  0  0  1  0  0  0  0  0  0  0  0
   -2.9244   -6.5789   -3.3074 O   0  0  0  1  0  0  0  0  0  0  0  0
   -3.9544   -6.5931   -2.3067 C   0  0  0  1  0  0  0  0  0  0  0  0
    3.3977    1.4989   -2.1527 N   0  0  0  1  0  0  0  0  0  0  0  0
    4.0651    2.6029   -2.8481 C   0  0  0  1  0  0  0  0  0  0  0  0
    3.1285    3.7993   -3.0167 C   0  0  0  1  0  0  0  0  0  0  0  0
    4.0585    5.0010   -3.2160 C   0  0  0  1  0  0  0  0  0  0  0  0
    5.3513    4.6410   -2.4729 C   0  0  0  1  0  0  0  0  0  0  0  0
    5.1914    3.1950   -1.9974 C   0  0  0  1  0  0  0  0  0  0  0  0
    4.3280    5.2109   -4.6435 N   0  0  0  1  0  0  0  0  0  0  0  0
    0.9318   -2.0527   -1.6522 H   0  0  0  1  0  0  0  0  0  0  0  0
    0.8529    0.2621   -6.5152 H   0  0  0  1  0  0  0  0  0  0  0  0
   -1.9185   -2.2268   -2.5614 H   0  0  0  1  0  0  0  0  0  0  0  0
   -3.2226   -4.2107   -2.0617 H   0  0  0  1  0  0  0  0  0  0  0  0
   -1.1312   -6.3290   -5.0227 H   0  0  0  1  0  0  0  0  0  0  0  0
    0.1708   -4.3485   -5.5216 H   0  0  0  1  0  0  0  0  0  0  0  0
   -4.9129   -6.5424   -2.7799 H   0  0  0  1  0  0  0  0  0  0  0  0
   -3.8325   -5.7512   -1.6577 H   0  0  0  1  0  0  0  0  0  0  0  0
   -3.8855   -7.4962   -1.7370 H   0  0  0  1  0  0  0  0  0  0  0  0
    3.6072    1.4103   -1.1994 H   0  0  0  1  0  0  0  0  0  0  0  0
    4.4314    2.2602   -3.7932 H   0  0  0  1  0  0  0  0  0  0  0  0
    2.4972    3.6659   -3.8703 H   0  0  0  1  0  0  0  0  0  0  0  0
    2.5248    3.9312   -2.1432 H   0  0  0  1  0  0  0  0  0  0  0  0
    3.6219    5.8854   -2.8011 H   0  0  0  1  0  0  0  0  0  0  0  0
    5.4895    5.2922   -1.6353 H   0  0  0  1  0  0  0  0  0  0  0  0
    6.1909    4.7228   -3.1312 H   0  0  0  1  0  0  0  0  0  0  0  0
    4.9286    3.1701   -0.9605 H   0  0  0  1  0  0  0  0  0  0  0  0
    6.0996    2.6499   -2.1490 H   0  0  0  1  0  0  0  0  0  0  0  0
    4.4343    6.1692   -4.8188 H   0  0  0  1  0  0  0  0  0  0  0  0
    3.5791    4.8636   -5.1716 H   0  0  0  1  0  0  0  0  0  0  0  0
  1  2  4  0  0  0  0
  1  6  4  0  0  0  0
  2  3  4  0  0  0  0
  2 18  1  0  0  0  0
  3  4  4  0  0  0  0
  4  5  4  0  0  0  0
  4  7  4  0  0  0  0
  5  6  4  0  0  0  0
  5  9  4  0  0  0  0
  6 25  1  0  0  0  0
  7  8  4  0  0  0  0
  7 26  1  0  0  0  0
  8  9  4  0  0  0  0
  9 10  1  0  0  0  0
 10 11  4  0  0  0  0
 10 15  4  0  0  0  0
 11 12  4  0  0  0  0
 11 27  1  0  0  0  0
 12 13  4  0  0  0  0
 12 28  1  0  0  0  0
 13 14  4  0  0  0  0
 13 16  1  0  0  0  0
 14 15  4  0  0  0  0
 14 29  1  0  0  0  0
 15 30  1  0  0  0  0
 16 17  1  0  0  0  0
 17 31  1  0  0  0  0
 17 32  1  0  0  0  0
 17 33  1  0  0  0  0
 18 19  1  0  0  0  0
 18 34  1  0  0  0  0
 19 20  1  0  0  0  0
 19 23  1  0  0  0  0
 19 35  1  0  0  0  0
 20 21  1  0  0  0  0
 20 36  1  0  0  0  0
 20 37  1  0  0  0  0
 21 22  1  0  0  0  0
 21 24  1  0  0  0  0
 21 38  1  0  0  0  0
 22 23  1  0  0  0  0
 22 39  1  0  0  0  0
 22 40  1  0  0  0  0
 23 41  1  0  0  0  0
 23 42  1  0  0  0  0
 24 43  1  0  0  0  0
 24 44  1  0  0  0  0
M  END
> <ConfClashScore>
0 

> <ConfOneFourInteractionScore>
-0.984337 

> <ConfScore>
0.100903 

> <ConfScorePBest>
0.00163399 

> <ConfTolerance>
0.674436 

$$$$
c13.sdf
 OpenBabel04162418043D

 44 47  0  0  0  0  0  0  0  0999 V2000
    2.1079   -0.3774   -1.8532 N   0  0  0  1  0  0  0  0  0  0  0  0
    2.5364    0.5907   -2.6455 C   0  0  0  1  0  0  0  0  0  0  0  0
    2.1525    0.6997   -3.8968 N   0  0  0  1  0  0  0  0  0  0  0  0
    1.2985   -0.1838   -4.4201 C   0  0  0  1  0  0  0  0  0  0  0  0
    0.8204   -1.2304   -3.6034 C   0  0  0  1  0  0  0  0  0  0  0  0
    1.2615   -1.2959   -2.2850 C   0  0  0  1  0  0  0  0  0  0  0  0
    0.7019   -0.3512   -5.6890 C   0  0  0  1  0  0  0  0  0  0  0  0
   -0.0689   -1.4010   -5.6538 N   0  0  0  1  0  0  0  0  0  0  0  0
   -0.0256   -1.9781   -4.3778 N   0  0  0  1  0  0  0  0  0  0  0  0
   -0.8676   -3.0764   -4.1101 C   0  0  0  1  0  0  0  0  0  0  0  0
   -1.8893   -3.3331   -5.0047 C   0  0  0  1  0  0  0  0  0  0  0  0
   -2.7434   -4.4041   -4.7924 C   0  0  0  1  0  0  0  0  0  0  0  0
   -2.5766   -5.2119   -3.6834 C   0  0  0  1  0  0  0  0  0  0  0  0
   -1.5518   -4.9542   -2.7862 C   0  0  0  1  0  0  0  0  0  0  0  0
   -0.7001   -3.8864   -2.9978 C   0  0  0  1  0  0  0  0  0  0  0  0
   -3.4100   -6.2496   -3.4743 O   0  0  0  1  0  0  0  0  0  0  0  0
   -4.5446   -6.3134   -4.3694 C   0  0  0  1  0  0  0  0  0  0  0  0
    3.3977    1.4989   -2.1526 N   0  0  0  1  0  0  0  0  0  0  0  0
    3.8925    2.6424   -2.9077 C   0  0  0  1  0  0  0  0  0  0  0  0
    3.6995    3.9364   -2.1095 C   0  0  0  1  0  0  0  0  0  0  0  0
    4.9966    4.1057   -1.3183 C   0  0  0  1  0  0  0  0  0  0  0  0
    6.0519    3.6610   -2.3339 C   0  0  0  1  0  0  0  0  0  0  0  0
    5.4056    2.5249   -3.1301 C   0  0  0  1  0  0  0  0  0  0  0  0
    5.2001    5.5175   -0.9143 N   0  0  0  1  0  0  0  0  0  0  0  0
    0.9317   -2.0527   -1.6523 H   0  0  0  1  0  0  0  0  0  0  0  0
    0.8529    0.2621   -6.5152 H   0  0  0  1  0  0  0  0  0  0  0  0
   -2.0173   -2.7229   -5.8371 H   0  0  0  1  0  0  0  0  0  0  0  0
   -3.5097   -4.5997   -5.4676 H   0  0  0  1  0  0  0  0  0  0  0  0
   -1.4237   -5.5644   -1.9538 H   0  0  0  1  0  0  0  0  0  0  0  0
    0.0664   -3.6908   -2.3225 H   0  0  0  1  0  0  0  0  0  0  0  0
   -4.2031   -6.4992   -5.3663 H   0  0  0  1  0  0  0  0  0  0  0  0
   -5.0735   -5.3838   -4.3413 H   0  0  0  1  0  0  0  0  0  0  0  0
   -5.1964   -7.1046   -4.0627 H   0  0  0  1  0  0  0  0  0  0  0  0
    3.7109    1.3846   -1.2311 H   0  0  0  1  0  0  0  0  0  0  0  0
    3.3796    2.7005   -3.8450 H   0  0  0  1  0  0  0  0  0  0  0  0
    2.8633    3.8496   -1.4477 H   0  0  0  1  0  0  0  0  0  0  0  0
    3.5490    4.7663   -2.7681 H   0  0  0  1  0  0  0  0  0  0  0  0
    5.0060    3.4807   -0.4499 H   0  0  0  1  0  0  0  0  0  0  0  0
    6.3101    4.4716   -2.9829 H   0  0  0  1  0  0  0  0  0  0  0  0
    6.9298    3.3123   -1.8314 H   0  0  0  1  0  0  0  0  0  0  0  0
    5.7586    1.5787   -2.7765 H   0  0  0  1  0  0  0  0  0  0  0  0
    5.6351    2.6257   -4.1704 H   0  0  0  1  0  0  0  0  0  0  0  0
    4.3357    5.9213   -0.6898 H   0  0  0  1  0  0  0  0  0  0  0  0
    5.6095    6.0130   -1.6541 H   0  0  0  1  0  0  0  0  0  0  0  0
  1  2  4  0  0  0  0
  1  6  4  0  0  0  0
  2  3  4  0  0  0  0
  2 18  1  0  0  0  0
  3  4  4  0  0  0  0
  4  5  4  0  0  0  0
  4  7  4  0  0  0  0
  5  6  4  0  0  0  0
  5  9  4  0  0  0  0
  6 25  1  0  0  0  0
  7  8  4  0  0  0  0
  7 26  1  0  0  0  0
  8  9  4  0  0  0  0
  9 10  1  0  0  0  0
 10 11  4  0  0  0  0
 10 15  4  0  0  0  0
 11 12  4  0  0  0  0
 11 27  1  0  0  0  0
 12 13  4  0  0  0  0
 12 28  1  0  0  0  0
 13 14  4  0  0  0  0
 13 16  1  0  0  0  0
 14 15  4  0  0  0  0
 14 29  1  0  0  0  0
 15 30  1  0  0  0  0
 16 17  1  0  0  0  0
 17 31  1  0  0  0  0
 17 32  1  0  0  0  0
 17 33  1  0  0  0  0
 18 19  1  0  0  0  0
 18 34  1  0  0  0  0
 19 20  1  0  0  0  0
 19 23  1  0  0  0  0
 19 35  1  0  0  0  0
 20 21  1  0  0  0  0
 20 36  1  0  0  0  0
 20 37  1  0  0  0  0
 21 22  1  0  0  0  0
 21 24  1  0  0  0  0
 21 38  1  0  0  0  0
 22 23  1  0  0  0  0
 22 39  1  0  0  0  0
 22 40  1  0  0  0  0
 23 41  1  0  0  0  0
 23 42  1  0  0  0  0
 24 43  1  0  0  0  0
 24 44  1  0  0  0  0
M  END
> <ConfClashScore>
0 

> <ConfOneFourInteractionScore>
-0.984337 

> <ConfScore>
0.10572 

> <ConfScorePBest>
0.00162066 

> <ConfTolerance>
0.77167 

$$$$
c13.sdf
 OpenBabel04162418043D

 44 47  0  0  0  0  0  0  0  0999 V2000
    2.1080   -0.3773   -1.8533 N   0  0  0  1  0  0  0  0  0  0  0  0
    2.5363    0.5907   -2.6455 C   0  0  0  1  0  0  0  0  0  0  0  0
    2.1525    0.6997   -3.8968 N   0  0  0  1  0  0  0  0  0  0  0  0
    1.2985   -0.1838   -4.4201 C   0  0  0  1  0  0  0  0  0  0  0  0
    0.8205   -1.2305   -3.6033 C   0  0  0  1  0  0  0  0  0  0  0  0
    1.2616   -1.2960   -2.2849 C   0  0  0  1  0  0  0  0  0  0  0  0
    0.7018   -0.3512   -5.6889 C   0  0  0  1  0  0  0  0  0  0  0  0
   -0.0690   -1.4010   -5.6537 N   0  0  0  1  0  0  0  0  0  0  0  0
   -0.0255   -1.9780   -4.3778 N   0  0  0  1  0  0  0  0  0  0  0  0
   -0.6900   -3.1979   -4.0697 C   0  0  0  1  0  0  0  0  0  0  0  0
   -1.2457   -3.3851   -2.8182 C   0  0  0  1  0  0  0  0  0  0  0  0
   -1.8976   -4.5715   -2.5199 C   0  0  0  1  0  0  0  0  0  0  0  0
   -1.9873   -5.5693   -3.4720 C   0  0  0  1  0  0  0  0  0  0  0  0
   -1.4299   -5.3813   -4.7273 C   0  0  0  1  0  0  0  0  0  0  0  0
   -0.7799   -4.1985   -5.0249 C   0  0  0  1  0  0  0  0  0  0  0  0
   -2.6054   -6.7522   -3.2430 O   0  0  0  1  0  0  0  0  0  0  0  0
   -3.0604   -7.0065   -1.9048 C   0  0  0  1  0  0  0  0  0  0  0  0
    3.3977    1.4989   -2.1526 N   0  0  0  1  0  0  0  0  0  0  0  0
    3.9123    1.4765   -0.7796 C   0  0  0  1  0  0  0  0  0  0  0  0
    5.3240    2.0710   -0.7261 C   0  0  0  1  0  0  0  0  0  0  0  0
    5.1120    3.5592   -0.4480 C   0  0  0  1  0  0  0  0  0  0  0  0
    3.9575    3.5364    0.5565 C   0  0  0  1  0  0  0  0  0  0  0  0
    3.0602    2.3729    0.1279 C   0  0  0  1  0  0  0  0  0  0  0  0
    6.3145    4.1690    0.1355 N   0  0  0  1  0  0  0  0  0  0  0  0
    0.9318   -2.0527   -1.6523 H   0  0  0  1  0  0  0  0  0  0  0  0
    0.8527    0.2622   -6.5151 H   0  0  0  1  0  0  0  0  0  0  0  0
   -1.1747   -2.6359   -2.1003 H   0  0  0  1  0  0  0  0  0  0  0  0
   -2.3192   -4.7108   -1.5794 H   0  0  0  1  0  0  0  0  0  0  0  0
   -1.5009   -6.1305   -5.4452 H   0  0  0  1  0  0  0  0  0  0  0  0
   -0.3582   -4.0591   -5.9653 H   0  0  0  1  0  0  0  0  0  0  0  0
   -2.2341   -6.9414   -1.2282 H   0  0  0  1  0  0  0  0  0  0  0  0
   -3.4866   -7.9866   -1.8535 H   0  0  0  1  0  0  0  0  0  0  0  0
   -3.7994   -6.2810   -1.6358 H   0  0  0  1  0  0  0  0  0  0  0  0
    3.6990    2.2180   -2.7463 H   0  0  0  1  0  0  0  0  0  0  0  0
    3.9156    0.4704   -0.4157 H   0  0  0  1  0  0  0  0  0  0  0  0
    5.8936    1.6186    0.0587 H   0  0  0  1  0  0  0  0  0  0  0  0
    5.8275    1.9302   -1.6597 H   0  0  0  1  0  0  0  0  0  0  0  0
    4.8410    4.0859   -1.3392 H   0  0  0  1  0  0  0  0  0  0  0  0
    4.3281    3.3763    1.5474 H   0  0  0  1  0  0  0  0  0  0  0  0
    3.4151    4.4581    0.5227 H   0  0  0  1  0  0  0  0  0  0  0  0
    2.2102    2.7401   -0.4085 H   0  0  0  1  0  0  0  0  0  0  0  0
    2.7315    1.8243    0.9857 H   0  0  0  1  0  0  0  0  0  0  0  0
    6.1629    4.3448    1.0876 H   0  0  0  1  0  0  0  0  0  0  0  0
    6.5095    5.0118   -0.3251 H   0  0  0  1  0  0  0  0  0  0  0  0
  1  2  4  0  0  0  0
  1  6  4  0  0  0  0
  2  3  4  0  0  0  0
  2 18  1  0  0  0  0
  3  4  4  0  0  0  0
  4  5  4  0  0  0  0
  4  7  4  0  0  0  0
  5  6  4  0  0  0  0
  5  9  4  0  0  0  0
  6 25  1  0  0  0  0
  7  8  4  0  0  0  0
  7 26  1  0  0  0  0
  8  9  4  0  0  0  0
  9 10  1  0  0  0  0
 10 11  4  0  0  0  0
 10 15  4  0  0  0  0
 11 12  4  0  0  0  0
 11 27  1  0  0  0  0
 12 13  4  0  0  0  0
 12 28  1  0  0  0  0
 13 14  4  0  0  0  0
 13 16  1  0  0  0  0
 14 15  4  0  0  0  0
 14 29  1  0  0  0  0
 15 30  1  0  0  0  0
 16 17  1  0  0  0  0
 17 31  1  0  0  0  0
 17 32  1  0  0  0  0
 17 33  1  0  0  0  0
 18 19  1  0  0  0  0
 18 34  1  0  0  0  0
 19 20  1  0  0  0  0
 19 23  1  0  0  0  0
 19 35  1  0  0  0  0
 20 21  1  0  0  0  0
 20 36  1  0  0  0  0
 20 37  1  0  0  0  0
 21 22  1  0  0  0  0
 21 24  1  0  0  0  0
 21 38  1  0  0  0  0
 22 23  1  0  0  0  0
 22 39  1  0  0  0  0
 22 40  1  0  0  0  0
 23 41  1  0  0  0  0
 23 42  1  0  0  0  0
 24 43  1  0  0  0  0
 24 44  1  0  0  0  0
M  END
> <ConfClashScore>
0 

> <ConfOneFourInteractionScore>
-0.984337 

> <ConfScore>
0.107939 

> <ConfScorePBest>
0.00160733 

> <ConfTolerance>
0.702323 

$$$$
c13.sdf
 OpenBabel04162418043D

 44 47  0  0  0  0  0  0  0  0999 V2000
    2.1079   -0.3773   -1.8532 N   0  0  0  1  0  0  0  0  0  0  0  0
    2.5364    0.5907   -2.6455 C   0  0  0  1  0  0  0  0  0  0  0  0
    2.1526    0.6996   -3.8968 N   0  0  0  1  0  0  0  0  0  0  0  0
    1.2985   -0.1838   -4.4201 C   0  0  0  1  0  0  0  0  0  0  0  0
    0.8204   -1.2304   -3.6033 C   0  0  0  1  0  0  0  0  0  0  0  0
    1.2616   -1.2959   -2.2849 C   0  0  0  1  0  0  0  0  0  0  0  0
    0.7019   -0.3514   -5.6890 C   0  0  0  1  0  0  0  0  0  0  0  0
   -0.0689   -1.4010   -5.6537 N   0  0  0  1  0  0  0  0  0  0  0  0
   -0.0256   -1.9781   -4.3778 N   0  0  0  1  0  0  0  0  0  0  0  0
   -0.9195   -3.0135   -4.0179 C   0  0  0  1  0  0  0  0  0  0  0  0
   -0.8200   -4.2529   -4.6212 C   0  0  0  1  0  0  0  0  0  0  0  0
   -1.6927   -5.2692   -4.2646 C   0  0  0  1  0  0  0  0  0  0  0  0
   -2.6657   -5.0416   -3.3097 C   0  0  0  1  0  0  0  0  0  0  0  0
   -2.7652   -3.7983   -2.7046 C   0  0  0  1  0  0  0  0  0  0  0  0
   -1.8952   -2.7849   -3.0601 C   0  0  0  1  0  0  0  0  0  0  0  0
   -3.4618   -6.1052   -3.0479 O   0  0  0  1  0  0  0  0  0  0  0  0
   -4.5075   -5.9201   -2.0811 C   0  0  0  1  0  0  0  0  0  0  0  0
    3.3929    1.4940   -2.1554 N   0  0  0  1  0  0  0  0  0  0  0  0
    4.0095    2.6371   -2.8342 C   0  0  0  1  0  0  0  0  0  0  0  0
    4.5378    2.2106   -4.1797 C   0  0  0  1  0  0  0  0  0  0  0  0
    4.0196    3.2289   -5.1835 C   0  0  0  1  0  0  0  0  0  0  0  0
    2.7026    3.7239   -4.5605 C   0  0  0  1  0  0  0  0  0  0  0  0
    2.9796    3.7128   -3.0653 C   0  0  0  1  0  0  0  0  0  0  0  0
    4.9793    4.3461   -5.3443 N   0  0  0  1  0  0  0  0  0  0  0  0
    0.9317   -2.0526   -1.6522 H   0  0  0  1  0  0  0  0  0  0  0  0
    0.8529    0.2619   -6.5152 H   0  0  0  1  0  0  0  0  0  0  0  0
   -0.0906   -4.4231   -5.3427 H   0  0  0  1  0  0  0  0  0  0  0  0
   -1.6154   -6.2031   -4.7156 H   0  0  0  1  0  0  0  0  0  0  0  0
   -3.4948   -3.6281   -1.9832 H   0  0  0  1  0  0  0  0  0  0  0  0
   -1.9726   -1.8510   -2.6091 H   0  0  0  1  0  0  0  0  0  0  0  0
   -4.1892   -6.3013   -1.1334 H   0  0  0  1  0  0  0  0  0  0  0  0
   -5.3844   -6.4439   -2.3997 H   0  0  0  1  0  0  0  0  0  0  0  0
   -4.7280   -4.8770   -1.9899 H   0  0  0  1  0  0  0  0  0  0  0  0
    3.6418    1.3750   -1.2150 H   0  0  0  1  0  0  0  0  0  0  0  0
    4.8081    3.0205   -2.2343 H   0  0  0  1  0  0  0  0  0  0  0  0
    4.1795    1.2329   -4.4254 H   0  0  0  1  0  0  0  0  0  0  0  0
    5.6077    2.2079   -4.1735 H   0  0  0  1  0  0  0  0  0  0  0  0
    3.8426    2.7704   -6.1339 H   0  0  0  1  0  0  0  0  0  0  0  0
    2.4699    4.7124   -4.8973 H   0  0  0  1  0  0  0  0  0  0  0  0
    1.8953    3.0647   -4.8030 H   0  0  0  1  0  0  0  0  0  0  0  0
    3.3596    4.6627   -2.7520 H   0  0  0  1  0  0  0  0  0  0  0  0
    2.0837    3.4903   -2.5242 H   0  0  0  1  0  0  0  0  0  0  0  0
    4.5869    5.0340   -5.9215 H   0  0  0  1  0  0  0  0  0  0  0  0
    5.8053    4.0108   -5.7513 H   0  0  0  1  0  0  0  0  0  0  0  0
  1  2  4  0  0  0  0
  1  6  4  0  0  0  0
  2  3  4  0  0  0  0
  2 18  1  0  0  0  0
  3  4  4  0  0  0  0
  4  5  4  0  0  0  0
  4  7  4  0  0  0  0
  5  6  4  0  0  0  0
  5  9  4  0  0  0  0
  6 25  1  0  0  0  0
  7  8  4  0  0  0  0
  7 26  1  0  0  0  0
  8  9  4  0  0  0  0
  9 10  1  0  0  0  0
 10 11  4  0  0  0  0
 10 15  4  0  0  0  0
 11 12  4  0  0  0  0
 11 27  1  0  0  0  0
 12 13  4  0  0  0  0
 12 28  1  0  0  0  0
 13 14  4  0  0  0  0
 13 16  1  0  0  0  0
 14 15  4  0  0  0  0
 14 29  1  0  0  0  0
 15 30  1  0  0  0  0
 16 17  1  0  0  0  0
 17 31  1  0  0  0  0
 17 32  1  0  0  0  0
 17 33  1  0  0  0  0
 18 19  1  0  0  0  0
 18 34  1  0  0  0  0
 19 20  1  0  0  0  0
 19 23  1  0  0  0  0
 19 35  1  0  0  0  0
 20 21  1  0  0  0  0
 20 36  1  0  0  0  0
 20 37  1  0  0  0  0
 21 22  1  0  0  0  0
 21 24  1  0  0  0  0
 21 38  1  0  0  0  0
 22 23  1  0  0  0  0
 22 39  1  0  0  0  0
 22 40  1  0  0  0  0
 23 41  1  0  0  0  0
 23 42  1  0  0  0  0
 24 43  1  0  0  0  0
 24 44  1  0  0  0  0
M  END
> <ConfClashScore>
0 

> <ConfOneFourInteractionScore>
-0.982693 

> <ConfScore>
0.109774 

> <ConfScorePBest>
0.00159401 

> <ConfTolerance>
0.617809 

$$$$
c13.sdf
 OpenBabel04162418043D

 44 47  0  0  0  0  0  0  0  0999 V2000
    2.1079   -0.3774   -1.8532 N   0  0  0  1  0  0  0  0  0  0  0  0
    2.5364    0.5907   -2.6455 C   0  0  0  1  0  0  0  0  0  0  0  0
    2.1525    0.6996   -3.8968 N   0  0  0  1  0  0  0  0  0  0  0  0
    1.2985   -0.1838   -4.4201 C   0  0  0  1  0  0  0  0  0  0  0  0
    0.8205   -1.2304   -3.6033 C   0  0  0  1  0  0  0  0  0  0  0  0
    1.2615   -1.2960   -2.2849 C   0  0  0  1  0  0  0  0  0  0  0  0
    0.7019   -0.3513   -5.6890 C   0  0  0  1  0  0  0  0  0  0  0  0
   -0.0690   -1.4010   -5.6538 N   0  0  0  1  0  0  0  0  0  0  0  0
   -0.0256   -1.9781   -4.3778 N   0  0  0  1  0  0  0  0  0  0  0  0
   -0.8658   -3.0835   -4.0673 C   0  0  0  1  0  0  0  0  0  0  0  0
   -2.2318   -2.9867   -4.2535 C   0  0  0  1  0  0  0  0  0  0  0  0
   -3.0498   -4.0656   -3.9560 C   0  0  0  1  0  0  0  0  0  0  0  0
   -2.5000   -5.2360   -3.4681 C   0  0  0  1  0  0  0  0  0  0  0  0
   -1.1300   -5.3329   -3.2813 C   0  0  0  1  0  0  0  0  0  0  0  0
   -0.3142   -4.2572   -3.5779 C   0  0  0  1  0  0  0  0  0  0  0  0
   -3.2037   -6.3615   -3.1351 O   0  0  0  1  0  0  0  0  0  0  0  0
   -4.5891   -6.2823   -3.5049 C   0  0  0  1  0  0  0  0  0  0  0  0
    3.3976    1.4989   -2.1526 N   0  0  0  1  0  0  0  0  0  0  0  0
    3.9736    2.6722   -2.8157 C   0  0  0  1  0  0  0  0  0  0  0  0
    5.1605    3.2183   -2.0146 C   0  0  0  1  0  0  0  0  0  0  0  0
    6.2732    2.2605   -2.4072 C   0  0  0  1  0  0  0  0  0  0  0  0
    6.0548    2.0106   -3.9031 C   0  0  0  1  0  0  0  0  0  0  0  0
    4.5698    2.2880   -4.1727 C   0  0  0  1  0  0  0  0  0  0  0  0
    7.6175    2.8813   -2.1641 N   0  0  0  1  0  0  0  0  0  0  0  0
    0.9317   -2.0526   -1.6523 H   0  0  0  1  0  0  0  0  0  0  0  0
    0.8529    0.2621   -6.5151 H   0  0  0  1  0  0  0  0  0  0  0  0
   -2.6460   -2.1047   -4.6170 H   0  0  0  1  0  0  0  0  0  0  0  0
   -4.0774   -3.9943   -4.1000 H   0  0  0  1  0  0  0  0  0  0  0  0
   -0.7157   -6.2148   -2.9179 H   0  0  0  1  0  0  0  0  0  0  0  0
    0.7133   -4.3285   -3.4340 H   0  0  0  1  0  0  0  0  0  0  0  0
   -5.0823   -7.1941   -3.2398 H   0  0  0  1  0  0  0  0  0  0  0  0
   -4.6680   -6.1284   -4.5608 H   0  0  0  1  0  0  0  0  0  0  0  0
   -5.0495   -5.4654   -2.9895 H   0  0  0  1  0  0  0  0  0  0  0  0
    3.6780    1.3568   -1.2243 H   0  0  0  1  0  0  0  0  0  0  0  0
    3.2195    3.4222   -2.9329 H   0  0  0  1  0  0  0  0  0  0  0  0
    5.3932    4.2228   -2.3006 H   0  0  0  1  0  0  0  0  0  0  0  0
    4.9692    3.1818   -0.9625 H   0  0  0  1  0  0  0  0  0  0  0  0
    6.1970    1.3464   -1.8561 H   0  0  0  1  0  0  0  0  0  0  0  0
    6.6662    2.6708   -4.4822 H   0  0  0  1  0  0  0  0  0  0  0  0
    6.2927    0.9965   -4.1480 H   0  0  0  1  0  0  0  0  0  0  0  0
    4.4602    3.0919   -4.8704 H   0  0  0  1  0  0  0  0  0  0  0  0
    4.0897    1.4128   -4.5580 H   0  0  0  1  0  0  0  0  0  0  0  0
    7.5040    3.8262   -1.9302 H   0  0  0  1  0  0  0  0  0  0  0  0
    8.1620    2.8091   -2.9757 H   0  0  0  1  0  0  0  0  0  0  0  0
  1  2  4  0  0  0  0
  1  6  4  0  0  0  0
  2  3  4  0  0  0  0
  2 18  1  0  0  0  0
  3  4  4  0  0  0  0
  4  5  4  0  0  0  0
  4  7  4  0  0  0  0
  5  6  4  0  0  0  0
  5  9  4  0  0  0  0
  6 25  1  0  0  0  0
  7  8  4  0  0  0  0
  7 26  1  0  0  0  0
  8  9  4  0  0  0  0
  9 10  1  0  0  0  0
 10 11  4  0  0  0  0
 10 15  4  0  0  0  0
 11 12  4  0  0  0  0
 11 27  1  0  0  0  0
 12 13  4  0  0  0  0
 12 28  1  0  0  0  0
 13 14  4  0  0  0  0
 13 16  1  0  0  0  0
 14 15  4  0  0  0  0
 14 29  1  0  0  0  0
 15 30  1  0  0  0  0
 16 17  1  0  0  0  0
 17 31  1  0  0  0  0
 17 32  1  0  0  0  0
 17 33  1  0  0  0  0
 18 19  1  0  0  0  0
 18 34  1  0  0  0  0
 19 20  1  0  0  0  0
 19 23  1  0  0  0  0
 19 35  1  0  0  0  0
 20 21  1  0  0  0  0
 20 36  1  0  0  0  0
 20 37  1  0  0  0  0
 21 22  1  0  0  0  0
 21 24  1  0  0  0  0
 21 38  1  0  0  0  0
 22 23  1  0  0  0  0
 22 39  1  0  0  0  0
 22 40  1  0  0  0  0
 23 41  1  0  0  0  0
 23 42  1  0  0  0  0
 24 43  1  0  0  0  0
 24 44  1  0  0  0  0
M  END
> <ConfClashScore>
0 

> <ConfOneFourInteractionScore>
-0.985399 

> <ConfScore>
0.112002 

> <ConfScorePBest>
0.00158068 

> <ConfTolerance>
0.852606 

$$$$
c13.sdf
 OpenBabel04162418043D

 44 47  0  0  0  0  0  0  0  0999 V2000
    2.1080   -0.3774   -1.8533 N   0  0  0  1  0  0  0  0  0  0  0  0
    2.5364    0.5908   -2.6455 C   0  0  0  1  0  0  0  0  0  0  0  0
    2.1525    0.6997   -3.8968 N   0  0  0  1  0  0  0  0  0  0  0  0
    1.2985   -0.1838   -4.4201 C   0  0  0  1  0  0  0  0  0  0  0  0
    0.8204   -1.2305   -3.6033 C   0  0  0  1  0  0  0  0  0  0  0  0
    1.2616   -1.2960   -2.2850 C   0  0  0  1  0  0  0  0  0  0  0  0
    0.7019   -0.3512   -5.6890 C   0  0  0  1  0  0  0  0  0  0  0  0
   -0.0689   -1.4010   -5.6538 N   0  0  0  1  0  0  0  0  0  0  0  0
   -0.0256   -1.9781   -4.3778 N   0  0  0  1  0  0  0  0  0  0  0  0
   -0.7583   -3.1315   -4.0321 C   0  0  0  1  0  0  0  0  0  0  0  0
   -0.3445   -3.8446   -2.9228 C   0  0  0  1  0  0  0  0  0  0  0  0
   -1.0325   -4.9838   -2.5351 C   0  0  0  1  0  0  0  0  0  0  0  0
   -2.1289   -5.4098   -3.2609 C   0  0  0  1  0  0  0  0  0  0  0  0
   -2.5437   -4.6945   -4.3735 C   0  0  0  1  0  0  0  0  0  0  0  0
   -1.8578   -3.5586   -4.7602 C   0  0  0  1  0  0  0  0  0  0  0  0
   -2.8737   -6.5060   -2.9825 O   0  0  0  1  0  0  0  0  0  0  0  0
   -2.6192   -7.1731   -1.7364 C   0  0  0  1  0  0  0  0  0  0  0  0
    3.3914    1.4695   -2.1106 N   0  0  0  1  0  0  0  0  0  0  0  0
    4.0137    2.6085   -2.7963 C   0  0  0  1  0  0  0  0  0  0  0  0
    4.8842    2.1448   -3.9643 C   0  0  0  1  0  0  0  0  0  0  0  0
    4.9927    3.3670   -4.8826 C   0  0  0  1  0  0  0  0  0  0  0  0
    3.7053    4.1670   -4.6470 C   0  0  0  1  0  0  0  0  0  0  0  0
    2.9652    3.4727   -3.5012 C   0  0  0  1  0  0  0  0  0  0  0  0
    6.1910    4.1863   -4.5239 N   0  0  0  1  0  0  0  0  0  0  0  0
    0.9318   -2.0528   -1.6523 H   0  0  0  1  0  0  0  0  0  0  0  0
    0.8528    0.2621   -6.5152 H   0  0  0  1  0  0  0  0  0  0  0  0
    0.4829   -3.5263   -2.3790 H   0  0  0  1  0  0  0  0  0  0  0  0
   -0.7236   -5.5180   -1.6979 H   0  0  0  1  0  0  0  0  0  0  0  0
   -3.3711   -5.0128   -4.9173 H   0  0  0  1  0  0  0  0  0  0  0  0
   -2.1667   -3.0243   -5.5973 H   0  0  0  1  0  0  0  0  0  0  0  0
   -2.9744   -6.5682   -0.9284 H   0  0  0  1  0  0  0  0  0  0  0  0
   -1.5670   -7.3331   -1.6262 H   0  0  0  1  0  0  0  0  0  0  0  0
   -3.1268   -8.1150   -1.7263 H   0  0  0  1  0  0  0  0  0  0  0  0
    3.6255    1.3401   -1.1678 H   0  0  0  1  0  0  0  0  0  0  0  0
    4.5807    3.1823   -2.0933 H   0  0  0  1  0  0  0  0  0  0  0  0
    4.4215    1.3279   -4.4777 H   0  0  0  1  0  0  0  0  0  0  0  0
    5.8517    1.8469   -3.6179 H   0  0  0  1  0  0  0  0  0  0  0  0
    5.0621    3.0618   -5.9058 H   0  0  0  1  0  0  0  0  0  0  0  0
    3.1024    4.1653   -5.5309 H   0  0  0  1  0  0  0  0  0  0  0  0
    3.9409    5.1753   -4.3773 H   0  0  0  1  0  0  0  0  0  0  0  0
    2.5621    4.1968   -2.8244 H   0  0  0  1  0  0  0  0  0  0  0  0
    2.1742    2.8620   -3.8837 H   0  0  0  1  0  0  0  0  0  0  0  0
    6.9575    3.8982   -5.0624 H   0  0  0  1  0  0  0  0  0  0  0  0
    6.3962    4.0658   -3.5732 H   0  0  0  1  0  0  0  0  0  0  0  0
  1  2  4  0  0  0  0
  1  6  4  0  0  0  0
  2  3  4  0  0  0  0
  2 18  1  0  0  0  0
  3  4  4  0  0  0  0
  4  5  4  0  0  0  0
  4  7  4  0  0  0  0
  5  6  4  0  0  0  0
  5  9  4  0  0  0  0
  6 25  1  0  0  0  0
  7  8  4  0  0  0  0
  7 26  1  0  0  0  0
  8  9  4  0  0  0  0
  9 10  1  0  0  0  0
 10 11  4  0  0  0  0
 10 15  4  0  0  0  0
 11 12  4  0  0  0  0
 11 27  1  0  0  0  0
 12 13  4  0  0  0  0
 12 28  1  0  0  0  0
 13 14  4  0  0  0  0
 13 16  1  0  0  0  0
 14 15  4  0  0  0  0
 14 29  1  0  0  0  0
 15 30  1  0  0  0  0
 16 17  1  0  0  0  0
 17 31  1  0  0  0  0
 17 32  1  0  0  0  0
 17 33  1  0  0  0  0
 18 19  1  0  0  0  0
 18 34  1  0  0  0  0
 19 20  1  0  0  0  0
 19 23  1  0  0  0  0
 19 35  1  0  0  0  0
 20 21  1  0  0  0  0
 20 36  1  0  0  0  0
 20 37  1  0  0  0  0
 21 22  1  0  0  0  0
 21 24  1  0  0  0  0
 21 38  1  0  0  0  0
 22 23  1  0  0  0  0
 22 39  1  0  0  0  0
 22 40  1  0  0  0  0
 23 41  1  0  0  0  0
 23 42  1  0  0  0  0
 24 43  1  0  0  0  0
 24 44  1  0  0  0  0
M  END
> <ConfClashScore>
0 

> <ConfOneFourInteractionScore>
-0.980204 

> <ConfScore>
0.118748 

> <ConfScorePBest>
0.00156735 

> <ConfTolerance>
0.544869 

$$$$
c13.sdf
 OpenBabel04162418043D

 44 47  0  0  0  0  0  0  0  0999 V2000
    2.1079   -0.3773   -1.8532 N   0  0  0  1  0  0  0  0  0  0  0  0
    2.5364    0.5907   -2.6455 C   0  0  0  1  0  0  0  0  0  0  0  0
    2.1526    0.6996   -3.8968 N   0  0  0  1  0  0  0  0  0  0  0  0
    1.2985   -0.1838   -4.4201 C   0  0  0  1  0  0  0  0  0  0  0  0
    0.8204   -1.2305   -3.6033 C   0  0  0  1  0  0  0  0  0  0  0  0
    1.2615   -1.2960   -2.2849 C   0  0  0  1  0  0  0  0  0  0  0  0
    0.7020   -0.3513   -5.6890 C   0  0  0  1  0  0  0  0  0  0  0  0
   -0.0688   -1.4010   -5.6537 N   0  0  0  1  0  0  0  0  0  0  0  0
   -0.0256   -1.9781   -4.3778 N   0  0  0  1  0  0  0  0  0  0  0  0
   -0.7805   -3.1369   -4.0812 C   0  0  0  1  0  0  0  0  0  0  0  0
   -0.9969   -4.0398   -5.1049 C   0  0  0  1  0  0  0  0  0  0  0  0
   -1.7256   -5.1949   -4.8677 C   0  0  0  1  0  0  0  0  0  0  0  0
   -2.2405   -5.4411   -3.6089 C   0  0  0  1  0  0  0  0  0  0  0  0
   -2.0234   -4.5353   -2.5822 C   0  0  0  1  0  0  0  0  0  0  0  0
   -1.2968   -3.3836   -2.8185 C   0  0  0  1  0  0  0  0  0  0  0  0
   -3.0662   -6.4848   -3.3592 O   0  0  0  1  0  0  0  0  0  0  0  0
   -3.4372   -6.7155   -1.9911 C   0  0  0  1  0  0  0  0  0  0  0  0
    3.4099    1.5117   -2.1456 N   0  0  0  1  0  0  0  0  0  0  0  0
    3.9762    1.3843   -0.8033 C   0  0  0  1  0  0  0  0  0  0  0  0
    5.2009    0.4143   -0.8264 C   0  0  0  1  0  0  0  0  0  0  0  0
    6.3799    1.4153   -1.1215 C   0  0  0  1  0  0  0  0  0  0  0  0
    6.0104    2.6110   -0.2544 C   0  0  0  1  0  0  0  0  0  0  0  0
    4.4947    2.7402   -0.3198 C   0  0  0  1  0  0  0  0  0  0  0  0
    7.6495    0.8576   -0.7289 N   0  0  0  1  0  0  0  0  0  0  0  0
    0.9317   -2.0527   -1.6523 H   0  0  0  1  0  0  0  0  0  0  0  0
    0.8530    0.2620   -6.5153 H   0  0  0  1  0  0  0  0  0  0  0  0
   -0.6129   -3.8526   -6.0532 H   0  0  0  1  0  0  0  0  0  0  0  0
   -1.8850   -5.8762   -5.6370 H   0  0  0  1  0  0  0  0  0  0  0  0
   -2.4073   -4.7223   -1.6339 H   0  0  0  1  0  0  0  0  0  0  0  0
   -1.1374   -2.7021   -2.0493 H   0  0  0  1  0  0  0  0  0  0  0  0
   -4.0770   -7.5711   -1.9340 H   0  0  0  1  0  0  0  0  0  0  0  0
   -3.9537   -5.8583   -1.6126 H   0  0  0  1  0  0  0  0  0  0  0  0
   -2.5572   -6.8888   -1.4077 H   0  0  0  1  0  0  0  0  0  0  0  0
    3.6644    2.2784   -2.7004 H   0  0  0  1  0  0  0  0  0  0  0  0
    3.2275    1.0163   -0.1334 H   0  0  0  1  0  0  0  0  0  0  0  0
    5.1060   -0.3183   -1.6004 H   0  0  0  1  0  0  0  0  0  0  0  0
    5.3301   -0.0761    0.1158 H   0  0  0  1  0  0  0  0  0  0  0  0
    6.4120    1.6823   -2.1572 H   0  0  0  1  0  0  0  0  0  0  0  0
    6.3239    2.4463    0.7553 H   0  0  0  1  0  0  0  0  0  0  0  0
    6.4736    3.4986   -0.6319 H   0  0  0  1  0  0  0  0  0  0  0  0
    4.2169    3.5112   -1.0078 H   0  0  0  1  0  0  0  0  0  0  0  0
    4.0988    2.9658    0.6483 H   0  0  0  1  0  0  0  0  0  0  0  0
    7.7766    0.9801    0.2351 H   0  0  0  1  0  0  0  0  0  0  0  0
    8.3697    1.3124   -1.2136 H   0  0  0  1  0  0  0  0  0  0  0  0
  1  2  4  0  0  0  0
  1  6  4  0  0  0  0
  2  3  4  0  0  0  0
  2 18  1  0  0  0  0
  3  4  4  0  0  0  0
  4  5  4  0  0  0  0
  4  7  4  0  0  0  0
  5  6  4  0  0  0  0
  5  9  4  0  0  0  0
  6 25  1  0  0  0  0
  7  8  4  0  0  0  0
  7 26  1  0  0  0  0
  8  9  4  0  0  0  0
  9 10  1  0  0  0  0
 10 11  4  0  0  0  0
 10 15  4  0  0  0  0
 11 12  4  0  0  0  0
 11 27  1  0  0  0  0
 12 13  4  0  0  0  0
 12 28  1  0  0  0  0
 13 14  4  0  0  0  0
 13 16  1  0  0  0  0
 14 15  4  0  0  0  0
 14 29  1  0  0  0  0
 15 30  1  0  0  0  0
 16 17  1  0  0  0  0
 17 31  1  0  0  0  0
 17 32  1  0  0  0  0
 17 33  1  0  0  0  0
 18 19  1  0  0  0  0
 18 34  1  0  0  0  0
 19 20  1  0  0  0  0
 19 23  1  0  0  0  0
 19 35  1  0  0  0  0
 20 21  1  0  0  0  0
 20 36  1  0  0  0  0
 20 37  1  0  0  0  0
 21 22  1  0  0  0  0
 21 24  1  0  0  0  0
 21 38  1  0  0  0  0
 22 23  1  0  0  0  0
 22 39  1  0  0  0  0
 22 40  1  0  0  0  0
 23 41  1  0  0  0  0
 23 42  1  0  0  0  0
 24 43  1  0  0  0  0
 24 44  1  0  0  0  0
M  END
> <ConfClashScore>
0 

> <ConfOneFourInteractionScore>
-0.984337 

> <ConfScore>
0.120087 

> <ConfScorePBest>
0.00155402 

> <ConfTolerance>
0.719537 

$$$$
c13.sdf
 OpenBabel04162418043D

 44 47  0  0  0  0  0  0  0  0999 V2000
    2.1079   -0.3773   -1.8533 N   0  0  0  1  0  0  0  0  0  0  0  0
    2.5364    0.5907   -2.6454 C   0  0  0  1  0  0  0  0  0  0  0  0
    2.1526    0.6996   -3.8969 N   0  0  0  1  0  0  0  0  0  0  0  0
    1.2985   -0.1837   -4.4202 C   0  0  0  1  0  0  0  0  0  0  0  0
    0.8204   -1.2305   -3.6033 C   0  0  0  1  0  0  0  0  0  0  0  0
    1.2615   -1.2960   -2.2850 C   0  0  0  1  0  0  0  0  0  0  0  0
    0.7020   -0.3513   -5.6890 C   0  0  0  1  0  0  0  0  0  0  0  0
   -0.0689   -1.4010   -5.6537 N   0  0  0  1  0  0  0  0  0  0  0  0
   -0.0256   -1.9781   -4.3778 N   0  0  0  1  0  0  0  0  0  0  0  0
   -0.7157   -3.1985   -4.1124 C   0  0  0  1  0  0  0  0  0  0  0  0
   -0.8243   -3.6641   -2.8156 C   0  0  0  1  0  0  0  0  0  0  0  0
   -1.4178   -4.8921   -2.5677 C   0  0  0  1  0  0  0  0  0  0  0  0
   -1.8960   -5.6533   -3.6176 C   0  0  0  1  0  0  0  0  0  0  0  0
   -1.7869   -5.1861   -4.9182 C   0  0  0  1  0  0  0  0  0  0  0  0
   -1.1952   -3.9617   -5.1655 C   0  0  0  1  0  0  0  0  0  0  0  0
   -2.4492   -6.8346   -3.2543 O   0  0  0  1  0  0  0  0  0  0  0  0
   -2.7647   -7.7621   -4.3043 C   0  0  0  1  0  0  0  0  0  0  0  0
    3.3976    1.4989   -2.1526 N   0  0  0  1  0  0  0  0  0  0  0  0
    3.9162    1.5531   -0.7830 C   0  0  0  1  0  0  0  0  0  0  0  0
    2.7645    1.4504    0.2258 C   0  0  0  1  0  0  0  0  0  0  0  0
    3.0424    0.1801    1.0346 C   0  0  0  1  0  0  0  0  0  0  0  0
    4.5594   -0.0148    0.9356 C   0  0  0  1  0  0  0  0  0  0  0  0
    4.8305    0.3530   -0.5139 C   0  0  0  1  0  0  0  0  0  0  0  0
    2.6211    0.3608    2.4719 N   0  0  0  1  0  0  0  0  0  0  0  0
    0.9316   -2.0526   -1.6522 H   0  0  0  1  0  0  0  0  0  0  0  0
    0.8530    0.2620   -6.5152 H   0  0  0  1  0  0  0  0  0  0  0  0
   -0.4608   -3.0933   -2.0259 H   0  0  0  1  0  0  0  0  0  0  0  0
   -1.5031   -5.2406   -1.5916 H   0  0  0  1  0  0  0  0  0  0  0  0
   -2.1504   -5.7569   -5.7079 H   0  0  0  1  0  0  0  0  0  0  0  0
   -1.1099   -3.6131   -6.1416 H   0  0  0  1  0  0  0  0  0  0  0  0
   -2.1710   -7.5407   -5.1666 H   0  0  0  1  0  0  0  0  0  0  0  0
   -3.8016   -7.6780   -4.5545 H   0  0  0  1  0  0  0  0  0  0  0  0
   -2.5564   -8.7584   -3.9744 H   0  0  0  1  0  0  0  0  0  0  0  0
    3.7092    2.1928   -2.7705 H   0  0  0  1  0  0  0  0  0  0  0  0
    4.4534    2.4674   -0.6403 H   0  0  0  1  0  0  0  0  0  0  0  0
    1.8269    1.3717   -0.2837 H   0  0  0  1  0  0  0  0  0  0  0  0
    2.7516    2.3067    0.8672 H   0  0  0  1  0  0  0  0  0  0  0  0
    2.5256   -0.6567    0.6132 H   0  0  0  1  0  0  0  0  0  0  0  0
    4.8349   -1.0288    1.1375 H   0  0  0  1  0  0  0  0  0  0  0  0
    5.0796    0.6370    1.6060 H   0  0  0  1  0  0  0  0  0  0  0  0
    5.8571    0.6221   -0.6499 H   0  0  0  1  0  0  0  0  0  0  0  0
    4.5857   -0.4617   -1.1628 H   0  0  0  1  0  0  0  0  0  0  0  0
    2.6327   -0.5068    2.9278 H   0  0  0  1  0  0  0  0  0  0  0  0
    1.7151    0.7331    2.5021 H   0  0  0  1  0  0  0  0  0  0  0  0
  1  2  4  0  0  0  0
  1  6  4  0  0  0  0
  2  3  4  0  0  0  0
  2 18  1  0  0  0  0
  3  4  4  0  0  0  0
  4  5  4  0  0  0  0
  4  7  4  0  0  0  0
  5  6  4  0  0  0  0
  5  9  4  0  0  0  0
  6 25  1  0  0  0  0
  7  8  4  0  0  0  0
  7 26  1  0  0  0  0
  8  9  4  0  0  0  0
  9 10  1  0  0  0  0
 10 11  4  0  0  0  0
 10 15  4  0  0  0  0
 11 12  4  0  0  0  0
 11 27  1  0  0  0  0
 12 13  4  0  0  0  0
 12 28  1  0  0  0  0
 13 14  4  0  0  0  0
 13 16  1  0  0  0  0
 14 15  4  0  0  0  0
 14 29  1  0  0  0  0
 15 30  1  0  0  0  0
 16 17  1  0  0  0  0
 17 31  1  0  0  0  0
 17 32  1  0  0  0  0
 17 33  1  0  0  0  0
 18 19  1  0  0  0  0
 18 34  1  0  0  0  0
 19 20  1  0  0  0  0
 19 23  1  0  0  0  0
 19 35  1  0  0  0  0
 20 21  1  0  0  0  0
 20 36  1  0  0  0  0
 20 37  1  0  0  0  0
 21 22  1  0  0  0  0
 21 24  1  0  0  0  0
 21 38  1  0  0  0  0
 22 23  1  0  0  0  0
 22 39  1  0  0  0  0
 22 40  1  0  0  0  0
 23 41  1  0  0  0  0
 23 42  1  0  0  0  0
 24 43  1  0  0  0  0
 24 44  1  0  0  0  0
M  END
> <ConfClashScore>
0 

> <ConfOneFourInteractionScore>
-0.982693 

> <ConfScore>
0.130215 

> <ConfScorePBest>
0.00154069 

> <ConfTolerance>
0.428333 

$$$$
c13.sdf
 OpenBabel04162418043D

 44 47  0  0  0  0  0  0  0  0999 V2000
    2.1080   -0.3774   -1.8533 N   0  0  0  1  0  0  0  0  0  0  0  0
    2.5363    0.5907   -2.6455 C   0  0  0  1  0  0  0  0  0  0  0  0
    2.1525    0.6996   -3.8968 N   0  0  0  1  0  0  0  0  0  0  0  0
    1.2986   -0.1837   -4.4201 C   0  0  0  1  0  0  0  0  0  0  0  0
    0.8205   -1.2305   -3.6033 C   0  0  0  1  0  0  0  0  0  0  0  0
    1.2616   -1.2960   -2.2850 C   0  0  0  1  0  0  0  0  0  0  0  0
    0.7019   -0.3512   -5.6890 C   0  0  0  1  0  0  0  0  0  0  0  0
   -0.0690   -1.4010   -5.6537 N   0  0  0  1  0  0  0  0  0  0  0  0
   -0.0256   -1.9781   -4.3778 N   0  0  0  1  0  0  0  0  0  0  0  0
   -0.8666   -3.0846   -4.0669 C   0  0  0  1  0  0  0  0  0  0  0  0
   -1.1599   -3.3806   -2.7492 C   0  0  0  1  0  0  0  0  0  0  0  0
   -1.9829   -4.4544   -2.4469 C   0  0  0  1  0  0  0  0  0  0  0  0
   -2.5056   -5.2321   -3.4629 C   0  0  0  1  0  0  0  0  0  0  0  0
   -2.2113   -4.9350   -4.7845 C   0  0  0  1  0  0  0  0  0  0  0  0
   -1.3908   -3.8644   -5.0861 C   0  0  0  1  0  0  0  0  0  0  0  0
   -3.2807   -6.2423   -3.0516 O   0  0  0  1  0  0  0  0  0  0  0  0
   -4.0593   -7.0507   -3.9966 C   0  0  0  1  0  0  0  0  0  0  0  0
    3.3924    1.4706   -2.1099 N   0  0  0  1  0  0  0  0  0  0  0  0
    4.0698    2.6001   -2.7528 C   0  0  0  1  0  0  0  0  0  0  0  0
    5.2696    2.1107   -3.5713 C   0  0  0  1  0  0  0  0  0  0  0  0
    4.7117    1.8596   -4.9723 C   0  0  0  1  0  0  0  0  0  0  0  0
    3.7460    3.0340   -5.1480 C   0  0  0  1  0  0  0  0  0  0  0  0
    3.1384    3.2792   -3.7649 C   0  0  0  1  0  0  0  0  0  0  0  0
    5.7948    1.8902   -6.0003 N   0  0  0  1  0  0  0  0  0  0  0  0
    0.9318   -2.0527   -1.6522 H   0  0  0  1  0  0  0  0  0  0  0  0
    0.8528    0.2621   -6.5152 H   0  0  0  1  0  0  0  0  0  0  0  0
   -0.7633   -2.7980   -1.9845 H   0  0  0  1  0  0  0  0  0  0  0  0
   -2.2069   -4.6748   -1.4556 H   0  0  0  1  0  0  0  0  0  0  0  0
   -2.6079   -5.5176   -5.5492 H   0  0  0  1  0  0  0  0  0  0  0  0
   -1.1667   -3.6439   -6.0774 H   0  0  0  1  0  0  0  0  0  0  0  0
   -3.4962   -7.9173   -4.2740 H   0  0  0  1  0  0  0  0  0  0  0  0
   -4.2738   -6.4705   -4.8696 H   0  0  0  1  0  0  0  0  0  0  0  0
   -4.9759   -7.3540   -3.5353 H   0  0  0  1  0  0  0  0  0  0  0  0
    3.5930    1.3417   -1.1594 H   0  0  0  1  0  0  0  0  0  0  0  0
    4.3855    3.2990   -2.0066 H   0  0  0  1  0  0  0  0  0  0  0  0
    6.0360    2.8569   -3.5992 H   0  0  0  1  0  0  0  0  0  0  0  0
    5.6656    1.2076   -3.1561 H   0  0  0  1  0  0  0  0  0  0  0  0
    4.1972    0.9228   -5.0232 H   0  0  0  1  0  0  0  0  0  0  0  0
    2.9805    2.7854   -5.8532 H   0  0  0  1  0  0  0  0  0  0  0  0
    4.2724    3.9030   -5.4837 H   0  0  0  1  0  0  0  0  0  0  0  0
    3.0811    4.3294   -3.5674 H   0  0  0  1  0  0  0  0  0  0  0  0
    2.1591    2.8516   -3.7105 H   0  0  0  1  0  0  0  0  0  0  0  0
    6.2978    2.7273   -5.9208 H   0  0  0  1  0  0  0  0  0  0  0  0
    5.3979    1.8315   -6.8945 H   0  0  0  1  0  0  0  0  0  0  0  0
  1  2  4  0  0  0  0
  1  6  4  0  0  0  0
  2  3  4  0  0  0  0
  2 18  1  0  0  0  0
  3  4  4  0  0  0  0
  4  5  4  0  0  0  0
  4  7  4  0  0  0  0
  5  6  4  0  0  0  0
  5  9  4  0  0  0  0
  6 25  1  0  0  0  0
  7  8  4  0  0  0  0
  7 26  1  0  0  0  0
  8  9  4  0  0  0  0
  9 10  1  0  0  0  0
 10 11  4  0  0  0  0
 10 15  4  0  0  0  0
 11 12  4  0  0  0  0
 11 27  1  0  0  0  0
 12 13  4  0  0  0  0
 12 28  1  0  0  0  0
 13 14  4  0  0  0  0
 13 16  1  0  0  0  0
 14 15  4  0  0  0  0
 14 29  1  0  0  0  0
 15 30  1  0  0  0  0
 16 17  1  0  0  0  0
 17 31  1  0  0  0  0
 17 32  1  0  0  0  0
 17 33  1  0  0  0  0
 18 19  1  0  0  0  0
 18 34  1  0  0  0  0
 19 20  1  0  0  0  0
 19 23  1  0  0  0  0
 19 35  1  0  0  0  0
 20 21  1  0  0  0  0
 20 36  1  0  0  0  0
 20 37  1  0  0  0  0
 21 22  1  0  0  0  0
 21 24  1  0  0  0  0
 21 38  1  0  0  0  0
 22 23  1  0  0  0  0
 22 39  1  0  0  0  0
 22 40  1  0  0  0  0
 23 41  1  0  0  0  0
 23 42  1  0  0  0  0
 24 43  1  0  0  0  0
 24 44  1  0  0  0  0
M  END
> <ConfClashScore>
0 

> <ConfOneFourInteractionScore>
-0.982693 

> <ConfScore>
0.149915 

> <ConfScorePBest>
0.00152736 

> <ConfTolerance>
0.509193 

$$$$
c13.sdf
 OpenBabel04162418043D

 44 47  0  0  0  0  0  0  0  0999 V2000
    2.1079   -0.3774   -1.8533 N   0  0  0  1  0  0  0  0  0  0  0  0
    2.5364    0.5907   -2.6455 C   0  0  0  1  0  0  0  0  0  0  0  0
    2.1526    0.6995   -3.8968 N   0  0  0  1  0  0  0  0  0  0  0  0
    1.2985   -0.1838   -4.4201 C   0  0  0  1  0  0  0  0  0  0  0  0
    0.8204   -1.2305   -3.6033 C   0  0  0  1  0  0  0  0  0  0  0  0
    1.2615   -1.2961   -2.2850 C   0  0  0  1  0  0  0  0  0  0  0  0
    0.7019   -0.3513   -5.6890 C   0  0  0  1  0  0  0  0  0  0  0  0
   -0.0689   -1.4010   -5.6537 N   0  0  0  1  0  0  0  0  0  0  0  0
   -0.0256   -1.9781   -4.3778 N   0  0  0  1  0  0  0  0  0  0  0  0
   -0.8610   -3.0770   -4.0690 C   0  0  0  1  0  0  0  0  0  0  0  0
   -2.2126   -2.8798   -3.8588 C   0  0  0  1  0  0  0  0  0  0  0  0
   -3.0322   -3.9575   -3.5615 C   0  0  0  1  0  0  0  0  0  0  0  0
   -2.4968   -5.2284   -3.4700 C   0  0  0  1  0  0  0  0  0  0  0  0
   -1.1411   -5.4260   -3.6809 C   0  0  0  1  0  0  0  0  0  0  0  0
   -0.3238   -4.3515   -3.9774 C   0  0  0  1  0  0  0  0  0  0  0  0
   -3.3917   -6.1994   -3.1695 O   0  0  0  1  0  0  0  0  0  0  0  0
   -2.9355   -7.5589   -3.2468 C   0  0  0  1  0  0  0  0  0  0  0  0
    3.4099    1.5117   -2.1457 N   0  0  0  1  0  0  0  0  0  0  0  0
    3.8977    1.4380   -0.7797 C   0  0  0  1  0  0  0  0  0  0  0  0
    4.7677    2.6780   -0.4906 C   0  0  0  1  0  0  0  0  0  0  0  0
    4.1941    3.2273    0.8142 C   0  0  0  1  0  0  0  0  0  0  0  0
    3.4687    1.9700    1.3568 C   0  0  0  1  0  0  0  0  0  0  0  0
    2.6937    1.3585    0.1784 C   0  0  0  1  0  0  0  0  0  0  0  0
    5.2738    3.6845    1.7420 N   0  0  0  1  0  0  0  0  0  0  0  0
    0.9317   -2.0527   -1.6522 H   0  0  0  1  0  0  0  0  0  0  0  0
    0.8529    0.2620   -6.5152 H   0  0  0  1  0  0  0  0  0  0  0  0
   -2.6149   -1.9229   -3.9237 H   0  0  0  1  0  0  0  0  0  0  0  0
   -4.0499   -3.8097   -3.4073 H   0  0  0  1  0  0  0  0  0  0  0  0
   -0.7388   -6.3830   -3.6161 H   0  0  0  1  0  0  0  0  0  0  0  0
    0.6940   -4.4993   -4.1317 H   0  0  0  1  0  0  0  0  0  0  0  0
   -2.5408   -7.8577   -2.2982 H   0  0  0  1  0  0  0  0  0  0  0  0
   -2.1711   -7.6367   -3.9915 H   0  0  0  1  0  0  0  0  0  0  0  0
   -3.7549   -8.1954   -3.5083 H   0  0  0  1  0  0  0  0  0  0  0  0
    3.7161    2.2418   -2.7232 H   0  0  0  1  0  0  0  0  0  0  0  0
    4.4954    0.5585   -0.6608 H   0  0  0  1  0  0  0  0  0  0  0  0
    4.6803    3.3970   -1.2782 H   0  0  0  1  0  0  0  0  0  0  0  0
    5.7948    2.4035   -0.3700 H   0  0  0  1  0  0  0  0  0  0  0  0
    3.5109    4.0316    0.6373 H   0  0  0  1  0  0  0  0  0  0  0  0
    2.7923    2.2444    2.1391 H   0  0  0  1  0  0  0  0  0  0  0  0
    4.1825    1.2668    1.7321 H   0  0  0  1  0  0  0  0  0  0  0  0
    1.8628    1.9548   -0.1362 H   0  0  0  1  0  0  0  0  0  0  0  0
    2.3653    0.3570    0.3626 H   0  0  0  1  0  0  0  0  0  0  0  0
    5.5898    4.5699    1.4652 H   0  0  0  1  0  0  0  0  0  0  0  0
    6.0190    3.0487    1.7144 H   0  0  0  1  0  0  0  0  0  0  0  0
  1  2  4  0  0  0  0
  1  6  4  0  0  0  0
  2  3  4  0  0  0  0
  2 18  1  0  0  0  0
  3  4  4  0  0  0  0
  4  5  4  0  0  0  0
  4  7  4  0  0  0  0
  5  6  4  0  0  0  0
  5  9  4  0  0  0  0
  6 25  1  0  0  0  0
  7  8  4  0  0  0  0
  7 26  1  0  0  0  0
  8  9  4  0  0  0  0
  9 10  1  0  0  0  0
 10 11  4  0  0  0  0
 10 15  4  0  0  0  0
 11 12  4  0  0  0  0
 11 27  1  0  0  0  0
 12 13  4  0  0  0  0
 12 28  1  0  0  0  0
 13 14  4  0  0  0  0
 13 16  1  0  0  0  0
 14 15  4  0  0  0  0
 14 29  1  0  0  0  0
 15 30  1  0  0  0  0
 16 17  1  0  0  0  0
 17 31  1  0  0  0  0
 17 32  1  0  0  0  0
 17 33  1  0  0  0  0
 18 19  1  0  0  0  0
 18 34  1  0  0  0  0
 19 20  1  0  0  0  0
 19 23  1  0  0  0  0
 19 35  1  0  0  0  0
 20 21  1  0  0  0  0
 20 36  1  0  0  0  0
 20 37  1  0  0  0  0
 21 22  1  0  0  0  0
 21 24  1  0  0  0  0
 21 38  1  0  0  0  0
 22 23  1  0  0  0  0
 22 39  1  0  0  0  0
 22 40  1  0  0  0  0
 23 41  1  0  0  0  0
 23 42  1  0  0  0  0
 24 43  1  0  0  0  0
 24 44  1  0  0  0  0
M  END
> <ConfClashScore>
0 

> <ConfOneFourInteractionScore>
-0.985399 

> <ConfScore>
0.171681 

> <ConfScorePBest>
0.00151404 

> <ConfTolerance>
0.888677 

$$$$
c13.sdf
 OpenBabel04162418043D

 44 47  0  0  0  0  0  0  0  0999 V2000
    2.1079   -0.3774   -1.8532 N   0  0  0  1  0  0  0  0  0  0  0  0
    2.5364    0.5907   -2.6455 C   0  0  0  1  0  0  0  0  0  0  0  0
    2.1526    0.6996   -3.8968 N   0  0  0  1  0  0  0  0  0  0  0  0
    1.2985   -0.1837   -4.4201 C   0  0  0  1  0  0  0  0  0  0  0  0
    0.8205   -1.2304   -3.6033 C   0  0  0  1  0  0  0  0  0  0  0  0
    1.2615   -1.2960   -2.2849 C   0  0  0  1  0  0  0  0  0  0  0  0
    0.7020   -0.3513   -5.6890 C   0  0  0  1  0  0  0  0  0  0  0  0
   -0.0688   -1.4010   -5.6538 N   0  0  0  1  0  0  0  0  0  0  0  0
   -0.0256   -1.9781   -4.3778 N   0  0  0  1  0  0  0  0  0  0  0  0
   -0.7942   -3.1327   -4.1266 C   0  0  0  1  0  0  0  0  0  0  0  0
   -0.3532   -3.9933   -3.1393 C   0  0  0  1  0  0  0  0  0  0  0  0
   -1.0741   -5.1408   -2.8477 C   0  0  0  1  0  0  0  0  0  0  0  0
   -2.2309   -5.4270   -3.5478 C   0  0  0  1  0  0  0  0  0  0  0  0
   -2.6731   -4.5637   -4.5381 C   0  0  0  1  0  0  0  0  0  0  0  0
   -1.9544   -3.4195   -4.8290 C   0  0  0  1  0  0  0  0  0  0  0  0
   -2.8458   -6.5760   -3.1795 O   0  0  0  1  0  0  0  0  0  0  0  0
   -4.0453   -6.9332   -3.8839 C   0  0  0  1  0  0  0  0  0  0  0  0
    3.3976    1.4990   -2.1525 N   0  0  0  1  0  0  0  0  0  0  0  0
    3.8884    1.5744   -0.7740 C   0  0  0  1  0  0  0  0  0  0  0  0
    2.7177    1.4964    0.2087 C   0  0  0  1  0  0  0  0  0  0  0  0
    3.1869    0.5753    1.3375 C   0  0  0  1  0  0  0  0  0  0  0  0
    4.0410   -0.4447    0.5843 C   0  0  0  1  0  0  0  0  0  0  0  0
    4.7949    0.3754   -0.4682 C   0  0  0  1  0  0  0  0  0  0  0  0
    3.9903    1.3157    2.3359 N   0  0  0  1  0  0  0  0  0  0  0  0
    0.9317   -2.0526   -1.6523 H   0  0  0  1  0  0  0  0  0  0  0  0
    0.8530    0.2621   -6.5152 H   0  0  0  1  0  0  0  0  0  0  0  0
    0.5194   -3.7800   -2.6152 H   0  0  0  1  0  0  0  0  0  0  0  0
   -0.7444   -5.7865   -2.1020 H   0  0  0  1  0  0  0  0  0  0  0  0
   -3.5456   -4.7769   -5.0622 H   0  0  0  1  0  0  0  0  0  0  0  0
   -2.2840   -2.7738   -5.5747 H   0  0  0  1  0  0  0  0  0  0  0  0
   -4.8565   -6.3273   -3.5380 H   0  0  0  1  0  0  0  0  0  0  0  0
   -4.2694   -7.9642   -3.7060 H   0  0  0  1  0  0  0  0  0  0  0  0
   -3.9036   -6.7743   -4.9325 H   0  0  0  1  0  0  0  0  0  0  0  0
    3.7297    2.1771   -2.7772 H   0  0  0  1  0  0  0  0  0  0  0  0
    4.4264    2.4889   -0.6359 H   0  0  0  1  0  0  0  0  0  0  0  0
    1.8537    1.0872   -0.2719 H   0  0  0  1  0  0  0  0  0  0  0  0
    2.4867    2.4683    0.5918 H   0  0  0  1  0  0  0  0  0  0  0  0
    2.3585    0.1042    1.8241 H   0  0  0  1  0  0  0  0  0  0  0  0
    4.7272   -0.9258    1.2495 H   0  0  0  1  0  0  0  0  0  0  0  0
    3.4222   -1.1812    0.1157 H   0  0  0  1  0  0  0  0  0  0  0  0
    4.9566   -0.2068   -1.3513 H   0  0  0  1  0  0  0  0  0  0  0  0
    5.7361    0.7064   -0.0814 H   0  0  0  1  0  0  0  0  0  0  0  0
    3.8812    0.9002    3.2168 H   0  0  0  1  0  0  0  0  0  0  0  0
    3.6863    2.2465    2.3740 H   0  0  0  1  0  0  0  0  0  0  0  0
  1  2  4  0  0  0  0
  1  6  4  0  0  0  0
  2  3  4  0  0  0  0
  2 18  1  0  0  0  0
  3  4  4  0  0  0  0
  4  5  4  0  0  0  0
  4  7  4  0  0  0  0
  5  6  4  0  0  0  0
  5  9  4  0  0  0  0
  6 25  1  0  0  0  0
  7  8  4  0  0  0  0
  7 26  1  0  0  0  0
  8  9  4  0  0  0  0
  9 10  1  0  0  0  0
 10 11  4  0  0  0  0
 10 15  4  0  0  0  0
 11 12  4  0  0  0  0
 11 27  1  0  0  0  0
 12 13  4  0  0  0  0
 12 28  1  0  0  0  0
 13 14  4  0  0  0  0
 13 16  1  0  0  0  0
 14 15  4  0  0  0  0
 14 29  1  0  0  0  0
 15 30  1  0  0  0  0
 16 17  1  0  0  0  0
 17 31  1  0  0  0  0
 17 32  1  0  0  0  0
 17 33  1  0  0  0  0
 18 19  1  0  0  0  0
 18 34  1  0  0  0  0
 19 20  1  0  0  0  0
 19 23  1  0  0  0  0
 19 35  1  0  0  0  0
 20 21  1  0  0  0  0
 20 36  1  0  0  0  0
 20 37  1  0  0  0  0
 21 22  1  0  0  0  0
 21 24  1  0  0  0  0
 21 38  1  0  0  0  0
 22 23  1  0  0  0  0
 22 39  1  0  0  0  0
 22 40  1  0  0  0  0
 23 41  1  0  0  0  0
 23 42  1  0  0  0  0
 24 43  1  0  0  0  0
 24 44  1  0  0  0  0
M  END
> <ConfClashScore>
0 

> <ConfOneFourInteractionScore>
-0.982693 

> <ConfScore>
0.194767 

> <ConfScorePBest>
0.00150071 

> <ConfTolerance>
0.522806 

$$$$
c13.sdf
 OpenBabel04162418043D

 44 47  0  0  0  0  0  0  0  0999 V2000
    2.1080   -0.3774   -1.8532 N   0  0  0  1  0  0  0  0  0  0  0  0
    2.5363    0.5907   -2.6455 C   0  0  0  1  0  0  0  0  0  0  0  0
    2.1525    0.6996   -3.8967 N   0  0  0  1  0  0  0  0  0  0  0  0
    1.2985   -0.1838   -4.4201 C   0  0  0  1  0  0  0  0  0  0  0  0
    0.8205   -1.2304   -3.6033 C   0  0  0  1  0  0  0  0  0  0  0  0
    1.2616   -1.2961   -2.2849 C   0  0  0  1  0  0  0  0  0  0  0  0
    0.7019   -0.3513   -5.6889 C   0  0  0  1  0  0  0  0  0  0  0  0
   -0.0690   -1.4010   -5.6537 N   0  0  0  1  0  0  0  0  0  0  0  0
   -0.0256   -1.9781   -4.3778 N   0  0  0  1  0  0  0  0  0  0  0  0
   -0.7187   -3.1774   -4.1555 C   0  0  0  1  0  0  0  0  0  0  0  0
   -1.2315   -3.5721   -2.9343 C   0  0  0  1  0  0  0  0  0  0  0  0
   -1.9066   -4.7776   -2.8231 C   0  0  0  1  0  0  0  0  0  0  0  0
   -2.0624   -5.5874   -3.9323 C   0  0  0  1  0  0  0  0  0  0  0  0
   -1.5481   -5.1914   -5.1572 C   0  0  0  1  0  0  0  0  0  0  0  0
   -0.8749   -3.9894   -5.2681 C   0  0  0  1  0  0  0  0  0  0  0  0
   -2.7269   -6.7540   -3.7552 O   0  0  0  1  0  0  0  0  0  0  0  0
   -3.1722   -7.4412   -4.9351 C   0  0  0  1  0  0  0  0  0  0  0  0
    3.4009    1.5022   -2.1508 N   0  0  0  1  0  0  0  0  0  0  0  0
    3.9556    2.6023   -2.9297 C   0  0  0  1  0  0  0  0  0  0  0  0
    2.8239    3.4390   -3.5564 C   0  0  0  1  0  0  0  0  0  0  0  0
    2.5872    4.5188   -2.5041 C   0  0  0  1  0  0  0  0  0  0  0  0
    3.9650    4.8881   -1.9828 C   0  0  0  1  0  0  0  0  0  0  0  0
    4.7265    3.5531   -2.0273 C   0  0  0  1  0  0  0  0  0  0  0  0
    1.9249    5.7103   -3.1184 N   0  0  0  1  0  0  0  0  0  0  0  0
    0.9317   -2.0526   -1.6522 H   0  0  0  1  0  0  0  0  0  0  0  0
    0.8528    0.2621   -6.5151 H   0  0  0  1  0  0  0  0  0  0  0  0
   -1.1108   -2.9647   -2.0987 H   0  0  0  1  0  0  0  0  0  0  0  0
   -2.2960   -5.0728   -1.9051 H   0  0  0  1  0  0  0  0  0  0  0  0
   -1.6687   -5.7988   -5.9927 H   0  0  0  1  0  0  0  0  0  0  0  0
   -0.4855   -3.6941   -6.1861 H   0  0  0  1  0  0  0  0  0  0  0  0
   -3.2807   -8.4840   -4.7214 H   0  0  0  1  0  0  0  0  0  0  0  0
   -2.4529   -7.3104   -5.7164 H   0  0  0  1  0  0  0  0  0  0  0  0
   -4.1144   -7.0412   -5.2464 H   0  0  0  1  0  0  0  0  0  0  0  0
    3.6714    1.4194   -1.2125 H   0  0  0  1  0  0  0  0  0  0  0  0
    4.5963    2.2122   -3.6927 H   0  0  0  1  0  0  0  0  0  0  0  0
    1.9450    2.8478   -3.7078 H   0  0  0  1  0  0  0  0  0  0  0  0
    3.1307    3.8677   -4.4876 H   0  0  0  1  0  0  0  0  0  0  0  0
    1.9769    4.1402   -1.7110 H   0  0  0  1  0  0  0  0  0  0  0  0
    3.9087    5.2646   -0.9829 H   0  0  0  1  0  0  0  0  0  0  0  0
    4.4310    5.6166   -2.6130 H   0  0  0  1  0  0  0  0  0  0  0  0
    5.7097    3.7088   -2.4195 H   0  0  0  1  0  0  0  0  0  0  0  0
    4.7960    3.1420   -1.0419 H   0  0  0  1  0  0  0  0  0  0  0  0
    0.9982    5.7675   -2.8046 H   0  0  0  1  0  0  0  0  0  0  0  0
    1.9341    5.6219   -4.0944 H   0  0  0  1  0  0  0  0  0  0  0  0
  1  2  4  0  0  0  0
  1  6  4  0  0  0  0
  2  3  4  0  0  0  0
  2 18  1  0  0  0  0
  3  4  4  0  0  0  0
  4  5  4  0  0  0  0
  4  7  4  0  0  0  0
  5  6  4  0  0  0  0
  5  9  4  0  0  0  0
  6 25  1  0  0  0  0
  7  8  4  0  0  0  0
  7 26  1  0  0  0  0
  8  9  4  0  0  0  0
  9 10  1  0  0  0  0
 10 11  4  0  0  0  0
 10 15  4  0  0  0  0
 11 12  4  0  0  0  0
 11 27  1  0  0  0  0
 12 13  4  0  0  0  0
 12 28  1  0  0  0  0
 13 14  4  0  0  0  0
 13 16  1  0  0  0  0
 14 15  4  0  0  0  0
 14 29  1  0  0  0  0
 15 30  1  0  0  0  0
 16 17  1  0  0  0  0
 17 31  1  0  0  0  0
 17 32  1  0  0  0  0
 17 33  1  0  0  0  0
 18 19  1  0  0  0  0
 18 34  1  0  0  0  0
 19 20  1  0  0  0  0
 19 23  1  0  0  0  0
 19 35  1  0  0  0  0
 20 21  1  0  0  0  0
 20 36  1  0  0  0  0
 20 37  1  0  0  0  0
 21 22  1  0  0  0  0
 21 24  1  0  0  0  0
 21 38  1  0  0  0  0
 22 23  1  0  0  0  0
 22 39  1  0  0  0  0
 22 40  1  0  0  0  0
 23 41  1  0  0  0  0
 23 42  1  0  0  0  0
 24 43  1  0  0  0  0
 24 44  1  0  0  0  0
M  END
> <ConfClashScore>
0 

> <ConfOneFourInteractionScore>
-0.985399 

> <ConfScore>
0.224039 

> <ConfScorePBest>
0.00148738 

> <ConfTolerance>
0.84109 

$$$$
c13.sdf
 OpenBabel04162418043D

 44 47  0  0  0  0  0  0  0  0999 V2000
    2.1079   -0.3773   -1.8533 N   0  0  0  1  0  0  0  0  0  0  0  0
    2.5363    0.5907   -2.6455 C   0  0  0  1  0  0  0  0  0  0  0  0
    2.1525    0.6997   -3.8968 N   0  0  0  1  0  0  0  0  0  0  0  0
    1.2985   -0.1838   -4.4201 C   0  0  0  1  0  0  0  0  0  0  0  0
    0.8204   -1.2305   -3.6033 C   0  0  0  1  0  0  0  0  0  0  0  0
    1.2615   -1.2960   -2.2850 C   0  0  0  1  0  0  0  0  0  0  0  0
    0.7019   -0.3513   -5.6890 C   0  0  0  1  0  0  0  0  0  0  0  0
   -0.0689   -1.4010   -5.6537 N   0  0  0  1  0  0  0  0  0  0  0  0
   -0.0256   -1.9781   -4.3778 N   0  0  0  1  0  0  0  0  0  0  0  0
   -0.8023   -3.1445   -4.1240 C   0  0  0  1  0  0  0  0  0  0  0  0
   -0.2135   -4.2550   -3.5494 C   0  0  0  1  0  0  0  0  0  0  0  0
   -0.9706   -5.3885   -3.2975 C   0  0  0  1  0  0  0  0  0  0  0  0
   -2.3130   -5.4100   -3.6258 C   0  0  0  1  0  0  0  0  0  0  0  0
   -2.9035   -4.2961   -4.2021 C   0  0  0  1  0  0  0  0  0  0  0  0
   -2.1485   -3.1658   -4.4534 C   0  0  0  1  0  0  0  0  0  0  0  0
   -2.9476   -6.5713   -3.3383 O   0  0  0  1  0  0  0  0  0  0  0  0
   -4.2925   -6.7208   -3.8194 C   0  0  0  1  0  0  0  0  0  0  0  0
    3.3939    1.4950   -2.1547 N   0  0  0  1  0  0  0  0  0  0  0  0
    4.0357    2.6098   -2.8396 C   0  0  0  1  0  0  0  0  0  0  0  0
    5.1904    2.1021   -3.7242 C   0  0  0  1  0  0  0  0  0  0  0  0
    4.5053    1.8822   -5.0703 C   0  0  0  1  0  0  0  0  0  0  0  0
    3.5293    3.0354   -5.2235 C   0  0  0  1  0  0  0  0  0  0  0  0
    3.0538    3.2866   -3.7831 C   0  0  0  1  0  0  0  0  0  0  0  0
    5.5010    1.8986   -6.1657 N   0  0  0  1  0  0  0  0  0  0  0  0
    0.9317   -2.0527   -1.6523 H   0  0  0  1  0  0  0  0  0  0  0  0
    0.8529    0.2621   -6.5152 H   0  0  0  1  0  0  0  0  0  0  0  0
    0.7976   -4.2403   -3.3061 H   0  0  0  1  0  0  0  0  0  0  0  0
   -0.5286   -6.2227   -2.8614 H   0  0  0  1  0  0  0  0  0  0  0  0
   -3.9144   -4.3107   -4.4455 H   0  0  0  1  0  0  0  0  0  0  0  0
   -2.5906   -2.3315   -4.8894 H   0  0  0  1  0  0  0  0  0  0  0  0
   -4.4135   -6.1587   -4.7217 H   0  0  0  1  0  0  0  0  0  0  0  0
   -4.9774   -6.3606   -3.0804 H   0  0  0  1  0  0  0  0  0  0  0  0
   -4.4884   -7.7545   -4.0143 H   0  0  0  1  0  0  0  0  0  0  0  0
    3.6206    1.3930   -1.2068 H   0  0  0  1  0  0  0  0  0  0  0  0
    4.4005    3.3102   -2.1175 H   0  0  0  1  0  0  0  0  0  0  0  0
    5.9680    2.8330   -3.8014 H   0  0  0  1  0  0  0  0  0  0  0  0
    5.5958    1.1881   -3.3431 H   0  0  0  1  0  0  0  0  0  0  0  0
    3.9837    0.9480   -5.0758 H   0  0  0  1  0  0  0  0  0  0  0  0
    2.7101    2.7634   -5.8560 H   0  0  0  1  0  0  0  0  0  0  0  0
    4.0169    3.9002   -5.6228 H   0  0  0  1  0  0  0  0  0  0  0  0
    3.0283    4.3382   -3.5874 H   0  0  0  1  0  0  0  0  0  0  0  0
    2.0760    2.8740   -3.6465 H   0  0  0  1  0  0  0  0  0  0  0  0
    5.0884    2.2611   -6.9773 H   0  0  0  1  0  0  0  0  0  0  0  0
    5.8122    0.9853   -6.3376 H   0  0  0  1  0  0  0  0  0  0  0  0
  1  2  4  0  0  0  0
  1  6  4  0  0  0  0
  2  3  4  0  0  0  0
  2 18  1  0  0  0  0
  3  4  4  0  0  0  0
  4  5  4  0  0  0  0
  4  7  4  0  0  0  0
  5  6  4  0  0  0  0
  5  9  4  0  0  0  0
  6 25  1  0  0  0  0
  7  8  4  0  0  0  0
  7 26  1  0  0  0  0
  8  9  4  0  0  0  0
  9 10  1  0  0  0  0
 10 11  4  0  0  0  0
 10 15  4  0  0  0  0
 11 12  4  0  0  0  0
 11 27  1  0  0  0  0
 12 13  4  0  0  0  0
 12 28  1  0  0  0  0
 13 14  4  0  0  0  0
 13 16  1  0  0  0  0
 14 15  4  0  0  0  0
 14 29  1  0  0  0  0
 15 30  1  0  0  0  0
 16 17  1  0  0  0  0
 17 31  1  0  0  0  0
 17 32  1  0  0  0  0
 17 33  1  0  0  0  0
 18 19  1  0  0  0  0
 18 34  1  0  0  0  0
 19 20  1  0  0  0  0
 19 23  1  0  0  0  0
 19 35  1  0  0  0  0
 20 21  1  0  0  0  0
 20 36  1  0  0  0  0
 20 37  1  0  0  0  0
 21 22  1  0  0  0  0
 21 24  1  0  0  0  0
 21 38  1  0  0  0  0
 22 23  1  0  0  0  0
 22 39  1  0  0  0  0
 22 40  1  0  0  0  0
 23 41  1  0  0  0  0
 23 42  1  0  0  0  0
 24 43  1  0  0  0  0
 24 44  1  0  0  0  0
M  END
> <ConfClashScore>
0 

> <ConfOneFourInteractionScore>
-0.982693 

> <ConfScore>
0.227606 

> <ConfScorePBest>
0.00147405 

> <ConfTolerance>
0.7158 

$$$$
c13.sdf
 OpenBabel04162418043D

 44 47  0  0  0  0  0  0  0  0999 V2000
    2.1079   -0.3773   -1.8532 N   0  0  0  1  0  0  0  0  0  0  0  0
    2.5363    0.5907   -2.6455 C   0  0  0  1  0  0  0  0  0  0  0  0
    2.1526    0.6997   -3.8969 N   0  0  0  1  0  0  0  0  0  0  0  0
    1.2986   -0.1837   -4.4201 C   0  0  0  1  0  0  0  0  0  0  0  0
    0.8203   -1.2304   -3.6033 C   0  0  0  1  0  0  0  0  0  0  0  0
    1.2615   -1.2959   -2.2849 C   0  0  0  1  0  0  0  0  0  0  0  0
    0.7019   -0.3513   -5.6891 C   0  0  0  1  0  0  0  0  0  0  0  0
   -0.0689   -1.4011   -5.6538 N   0  0  0  1  0  0  0  0  0  0  0  0
   -0.0256   -1.9781   -4.3778 N   0  0  0  1  0  0  0  0  0  0  0  0
   -0.7858   -3.1447   -4.0791 C   0  0  0  1  0  0  0  0  0  0  0  0
   -1.2405   -3.3623   -2.7923 C   0  0  0  1  0  0  0  0  0  0  0  0
   -1.9850   -4.4952   -2.5028 C   0  0  0  1  0  0  0  0  0  0  0  0
   -2.2679   -5.4099   -3.4996 C   0  0  0  1  0  0  0  0  0  0  0  0
   -1.8117   -5.1915   -4.7902 C   0  0  0  1  0  0  0  0  0  0  0  0
   -1.0693   -4.0619   -5.0791 C   0  0  0  1  0  0  0  0  0  0  0  0
   -2.9770   -6.5481   -3.3364 O   0  0  0  1  0  0  0  0  0  0  0  0
   -3.1010   -7.4672   -4.4328 C   0  0  0  1  0  0  0  0  0  0  0  0
    3.4009    1.5329   -2.2121 N   0  0  0  1  0  0  0  0  0  0  0  0
    3.9740    1.5575   -0.8634 C   0  0  0  1  0  0  0  0  0  0  0  0
    2.9238    2.0219    0.1484 C   0  0  0  1  0  0  0  0  0  0  0  0
    3.0928    1.1107    1.3666 C   0  0  0  1  0  0  0  0  0  0  0  0
    3.4592   -0.2248    0.7189 C   0  0  0  1  0  0  0  0  0  0  0  0
    4.3922    0.1438   -0.4399 C   0  0  0  1  0  0  0  0  0  0  0  0
    4.1779    1.5941    2.2536 N   0  0  0  1  0  0  0  0  0  0  0  0
    0.9316   -2.0525   -1.6522 H   0  0  0  1  0  0  0  0  0  0  0  0
    0.8530    0.2620   -6.5152 H   0  0  0  1  0  0  0  0  0  0  0  0
   -1.0243   -2.6762   -2.0413 H   0  0  0  1  0  0  0  0  0  0  0  0
   -2.3306   -4.6569   -1.5353 H   0  0  0  1  0  0  0  0  0  0  0  0
   -2.0279   -5.8776   -5.5413 H   0  0  0  1  0  0  0  0  0  0  0  0
   -0.7236   -3.9000   -6.0465 H   0  0  0  1  0  0  0  0  0  0  0  0
   -3.6797   -8.3133   -4.1260 H   0  0  0  1  0  0  0  0  0  0  0  0
   -2.1281   -7.7924   -4.7371 H   0  0  0  1  0  0  0  0  0  0  0  0
   -3.5876   -6.9809   -5.2524 H   0  0  0  1  0  0  0  0  0  0  0  0
    3.6607    2.2423   -2.8363 H   0  0  0  1  0  0  0  0  0  0  0  0
    4.8191    2.2134   -0.8463 H   0  0  0  1  0  0  0  0  0  0  0  0
    1.9405    1.9196   -0.2606 H   0  0  0  1  0  0  0  0  0  0  0  0
    3.0932    3.0430    0.4200 H   0  0  0  1  0  0  0  0  0  0  0  0
    2.1827    1.0351    1.9241 H   0  0  0  1  0  0  0  0  0  0  0  0
    2.5833   -0.7195    0.3545 H   0  0  0  1  0  0  0  0  0  0  0  0
    3.9616   -0.8581    1.4200 H   0  0  0  1  0  0  0  0  0  0  0  0
    4.2697   -0.5422   -1.2519 H   0  0  0  1  0  0  0  0  0  0  0  0
    5.4121    0.1360   -0.1165 H   0  0  0  1  0  0  0  0  0  0  0  0
    3.9141    2.4467    2.6584 H   0  0  0  1  0  0  0  0  0  0  0  0
    4.9960    1.7209    1.7292 H   0  0  0  1  0  0  0  0  0  0  0  0
  1  2  4  0  0  0  0
  1  6  4  0  0  0  0
  2  3  4  0  0  0  0
  2 18  1  0  0  0  0
  3  4  4  0  0  0  0
  4  5  4  0  0  0  0
  4  7  4  0  0  0  0
  5  6  4  0  0  0  0
  5  9  4  0  0  0  0
  6 25  1  0  0  0  0
  7  8  4  0  0  0  0
  7 26  1  0  0  0  0
  8  9  4  0  0  0  0
  9 10  1  0  0  0  0
 10 11  4  0  0  0  0
 10 15  4  0  0  0  0
 11 12  4  0  0  0  0
 11 27  1  0  0  0  0
 12 13  4  0  0  0  0
 12 28  1  0  0  0  0
 13 14  4  0  0  0  0
 13 16  1  0  0  0  0
 14 15  4  0  0  0  0
 14 29  1  0  0  0  0
 15 30  1  0  0  0  0
 16 17  1  0  0  0  0
 17 31  1  0  0  0  0
 17 32  1  0  0  0  0
 17 33  1  0  0  0  0
 18 19  1  0  0  0  0
 18 34  1  0  0  0  0
 19 20  1  0  0  0  0
 19 23  1  0  0  0  0
 19 35  1  0  0  0  0
 20 21  1  0  0  0  0
 20 36  1  0  0  0  0
 20 37  1  0  0  0  0
 21 22  1  0  0  0  0
 21 24  1  0  0  0  0
 21 38  1  0  0  0  0
 22 23  1  0  0  0  0
 22 39  1  0  0  0  0
 22 40  1  0  0  0  0
 23 41  1  0  0  0  0
 23 42  1  0  0  0  0
 24 43  1  0  0  0  0
 24 44  1  0  0  0  0
M  END
> <ConfClashScore>
0.0012448 

> <ConfOneFourInteractionScore>
-0.982693 

> <ConfScore>
0.237186 

> <ConfScorePBest>
0.00146072 

> <ConfTolerance>
0.680062 

$$$$
c13.sdf
 OpenBabel04162418043D

 44 47  0  0  0  0  0  0  0  0999 V2000
    2.1080   -0.3774   -1.8532 N   0  0  0  1  0  0  0  0  0  0  0  0
    2.5364    0.5907   -2.6455 C   0  0  0  1  0  0  0  0  0  0  0  0
    2.1525    0.6996   -3.8968 N   0  0  0  1  0  0  0  0  0  0  0  0
    1.2985   -0.1838   -4.4201 C   0  0  0  1  0  0  0  0  0  0  0  0
    0.8205   -1.2305   -3.6033 C   0  0  0  1  0  0  0  0  0  0  0  0
    1.2616   -1.2960   -2.2850 C   0  0  0  1  0  0  0  0  0  0  0  0
    0.7019   -0.3512   -5.6890 C   0  0  0  1  0  0  0  0  0  0  0  0
   -0.0689   -1.4010   -5.6537 N   0  0  0  1  0  0  0  0  0  0  0  0
   -0.0256   -1.9781   -4.3778 N   0  0  0  1  0  0  0  0  0  0  0  0
   -0.7857   -3.1448   -4.0791 C   0  0  0  1  0  0  0  0  0  0  0  0
   -1.6653   -3.1435   -3.0131 C   0  0  0  1  0  0  0  0  0  0  0  0
   -2.3392   -4.3049   -2.6694 C   0  0  0  1  0  0  0  0  0  0  0  0
   -2.1277   -5.4656   -3.3893 C   0  0  0  1  0  0  0  0  0  0  0  0
   -1.2454   -5.4669   -4.4584 C   0  0  0  1  0  0  0  0  0  0  0  0
   -0.5733   -4.3087   -4.8012 C   0  0  0  1  0  0  0  0  0  0  0  0
   -2.7072   -6.6240   -2.9941 O   0  0  0  1  0  0  0  0  0  0  0  0
   -3.5263   -6.5792   -1.8153 C   0  0  0  1  0  0  0  0  0  0  0  0
    3.3977    1.4989   -2.1526 N   0  0  0  1  0  0  0  0  0  0  0  0
    4.0109    1.6594   -0.8333 C   0  0  0  1  0  0  0  0  0  0  0  0
    4.0600    0.3307   -0.0790 C   0  0  0  1  0  0  0  0  0  0  0  0
    5.1700    0.5111    0.9623 C   0  0  0  1  0  0  0  0  0  0  0  0
    6.1404    1.5282    0.3486 C   0  0  0  1  0  0  0  0  0  0  0  0
    5.4947    2.0168   -0.9502 C   0  0  0  1  0  0  0  0  0  0  0  0
    4.6136    1.0264    2.2251 N   0  0  0  1  0  0  0  0  0  0  0  0
    0.9318   -2.0527   -1.6522 H   0  0  0  1  0  0  0  0  0  0  0  0
    0.8529    0.2620   -6.5152 H   0  0  0  1  0  0  0  0  0  0  0  0
   -1.8215   -2.2710   -2.4688 H   0  0  0  1  0  0  0  0  0  0  0  0
   -3.0042   -4.3029   -1.8697 H   0  0  0  1  0  0  0  0  0  0  0  0
   -1.0892   -6.3391   -5.0027 H   0  0  0  1  0  0  0  0  0  0  0  0
    0.0917   -4.3107   -5.6009 H   0  0  0  1  0  0  0  0  0  0  0  0
   -4.1531   -5.7126   -1.8487 H   0  0  0  1  0  0  0  0  0  0  0  0
   -2.9010   -6.5335   -0.9483 H   0  0  0  1  0  0  0  0  0  0  0  0
   -4.1353   -7.4580   -1.7708 H   0  0  0  1  0  0  0  0  0  0  0  0
    3.6657    2.1836   -2.8005 H   0  0  0  1  0  0  0  0  0  0  0  0
    3.4755    2.4013   -0.2785 H   0  0  0  1  0  0  0  0  0  0  0  0
    4.2960   -0.4723   -0.7456 H   0  0  0  1  0  0  0  0  0  0  0  0
    3.1233    0.1343    0.3994 H   0  0  0  1  0  0  0  0  0  0  0  0
    5.6676   -0.4185    1.1442 H   0  0  0  1  0  0  0  0  0  0  0  0
    6.2882    2.3490    1.0190 H   0  0  0  1  0  0  0  0  0  0  0  0
    7.0812    1.0627    0.1410 H   0  0  0  1  0  0  0  0  0  0  0  0
    5.9320    1.5234   -1.7930 H   0  0  0  1  0  0  0  0  0  0  0  0
    5.6168    3.0747   -1.0528 H   0  0  0  1  0  0  0  0  0  0  0  0
    3.9315    1.7025    2.0302 H   0  0  0  1  0  0  0  0  0  0  0  0
    5.3307    1.4301    2.7572 H   0  0  0  1  0  0  0  0  0  0  0  0
  1  2  4  0  0  0  0
  1  6  4  0  0  0  0
  2  3  4  0  0  0  0
  2 18  1  0  0  0  0
  3  4  4  0  0  0  0
  4  5  4  0  0  0  0
  4  7  4  0  0  0  0
  5  6  4  0  0  0  0
  5  9  4  0  0  0  0
  6 25  1  0  0  0  0
  7  8  4  0  0  0  0
  7 26  1  0  0  0  0
  8  9  4  0  0  0  0
  9 10  1  0  0  0  0
 10 11  4  0  0  0  0
 10 15  4  0  0  0  0
 11 12  4  0  0  0  0
 11 27  1  0  0  0  0
 12 13  4  0  0  0  0
 12 28  1  0  0  0  0
 13 14  4  0  0  0  0
 13 16  1  0  0  0  0
 14 15  4  0  0  0  0
 14 29  1  0  0  0  0
 15 30  1  0  0  0  0
 16 17  1  0  0  0  0
 17 31  1  0  0  0  0
 17 32  1  0  0  0  0
 17 33  1  0  0  0  0
 18 19  1  0  0  0  0
 18 34  1  0  0  0  0
 19 20  1  0  0  0  0
 19 23  1  0  0  0  0
 19 35  1  0  0  0  0
 20 21  1  0  0  0  0
 20 36  1  0  0  0  0
 20 37  1  0  0  0  0
 21 22  1  0  0  0  0
 21 24  1  0  0  0  0
 21 38  1  0  0  0  0
 22 23  1  0  0  0  0
 22 39  1  0  0  0  0
 22 40  1  0  0  0  0
 23 41  1  0  0  0  0
 23 42  1  0  0  0  0
 24 43  1  0  0  0  0
 24 44  1  0  0  0  0
M  END
> <ConfClashScore>
0 

> <ConfOneFourInteractionScore>
-0.978454 

> <ConfScore>
0.249353 

> <ConfScorePBest>
0.0014474 

> <ConfTolerance>
0.819785 

$$$$
c13.sdf
 OpenBabel04162418043D

 44 47  0  0  0  0  0  0  0  0999 V2000
    2.1081   -0.3774   -1.8532 N   0  0  0  1  0  0  0  0  0  0  0  0
    2.5364    0.5907   -2.6455 C   0  0  0  1  0  0  0  0  0  0  0  0
    2.1526    0.6996   -3.8969 N   0  0  0  1  0  0  0  0  0  0  0  0
    1.2985   -0.1838   -4.4201 C   0  0  0  1  0  0  0  0  0  0  0  0
    0.8205   -1.2305   -3.6034 C   0  0  0  1  0  0  0  0  0  0  0  0
    1.2616   -1.2961   -2.2850 C   0  0  0  1  0  0  0  0  0  0  0  0
    0.7018   -0.3513   -5.6890 C   0  0  0  1  0  0  0  0  0  0  0  0
   -0.0690   -1.4010   -5.6537 N   0  0  0  1  0  0  0  0  0  0  0  0
   -0.0256   -1.9781   -4.3778 N   0  0  0  1  0  0  0  0  0  0  0  0
   -0.7805   -3.1369   -4.0811 C   0  0  0  1  0  0  0  0  0  0  0  0
   -0.5604   -4.2603   -4.8555 C   0  0  0  1  0  0  0  0  0  0  0  0
   -1.2692   -5.4248   -4.6044 C   0  0  0  1  0  0  0  0  0  0  0  0
   -2.1999   -5.4609   -3.5833 C   0  0  0  1  0  0  0  0  0  0  0  0
   -2.4205   -4.3341   -2.8067 C   0  0  0  1  0  0  0  0  0  0  0  0
   -1.7138   -3.1730   -3.0569 C   0  0  0  1  0  0  0  0  0  0  0  0
   -2.8617   -6.6270   -3.3937 O   0  0  0  1  0  0  0  0  0  0  0  0
   -3.8435   -6.6615   -2.3461 C   0  0  0  1  0  0  0  0  0  0  0  0
    3.3977    1.4989   -2.1527 N   0  0  0  1  0  0  0  0  0  0  0  0
    3.8838    1.6510   -0.7805 C   0  0  0  1  0  0  0  0  0  0  0  0
    2.7751    2.2003    0.1238 C   0  0  0  1  0  0  0  0  0  0  0  0
    2.0759    0.9611    0.6830 C   0  0  0  1  0  0  0  0  0  0  0  0
    3.2534    0.0182    0.9418 C   0  0  0  1  0  0  0  0  0  0  0  0
    4.2521    0.2854   -0.1868 C   0  0  0  1  0  0  0  0  0  0  0  0
    1.3510    1.2728    1.9370 N   0  0  0  1  0  0  0  0  0  0  0  0
    0.9318   -2.0528   -1.6523 H   0  0  0  1  0  0  0  0  0  0  0  0
    0.8527    0.2621   -6.5152 H   0  0  0  1  0  0  0  0  0  0  0  0
    0.1370   -4.2320   -5.6265 H   0  0  0  1  0  0  0  0  0  0  0  0
   -1.1007   -6.2713   -5.1847 H   0  0  0  1  0  0  0  0  0  0  0  0
   -3.1178   -4.3625   -2.0356 H   0  0  0  1  0  0  0  0  0  0  0  0
   -1.8823   -2.3263   -2.4768 H   0  0  0  1  0  0  0  0  0  0  0  0
   -4.5815   -7.4025   -2.5724 H   0  0  0  1  0  0  0  0  0  0  0  0
   -4.3131   -5.7034   -2.2661 H   0  0  0  1  0  0  0  0  0  0  0  0
   -3.3673   -6.9044   -1.4192 H   0  0  0  1  0  0  0  0  0  0  0  0
    3.7470    2.1464   -2.8001 H   0  0  0  1  0  0  0  0  0  0  0  0
    4.7316    2.3038   -0.7722 H   0  0  0  1  0  0  0  0  0  0  0  0
    3.1911    2.7876    0.9156 H   0  0  0  1  0  0  0  0  0  0  0  0
    2.0894    2.7968   -0.4410 H   0  0  0  1  0  0  0  0  0  0  0  0
    1.3946    0.5450   -0.0294 H   0  0  0  1  0  0  0  0  0  0  0  0
    2.9277   -1.0008    0.9184 H   0  0  0  1  0  0  0  0  0  0  0  0
    3.6987    0.2291    1.8917 H   0  0  0  1  0  0  0  0  0  0  0  0
    5.2495    0.3075    0.2000 H   0  0  0  1  0  0  0  0  0  0  0  0
    4.1760   -0.4755   -0.9353 H   0  0  0  1  0  0  0  0  0  0  0  0
    1.6139    0.6357    2.6337 H   0  0  0  1  0  0  0  0  0  0  0  0
    0.3858    1.2062    1.7813 H   0  0  0  1  0  0  0  0  0  0  0  0
  1  2  4  0  0  0  0
  1  6  4  0  0  0  0
  2  3  4  0  0  0  0
  2 18  1  0  0  0  0
  3  4  4  0  0  0  0
  4  5  4  0  0  0  0
  4  7  4  0  0  0  0
  5  6  4  0  0  0  0
  5  9  4  0  0  0  0
  6 25  1  0  0  0  0
  7  8  4  0  0  0  0
  7 26  1  0  0  0  0
  8  9  4  0  0  0  0
  9 10  1  0  0  0  0
 10 11  4  0  0  0  0
 10 15  4  0  0  0  0
 11 12  4  0  0  0  0
 11 27  1  0  0  0  0
 12 13  4  0  0  0  0
 12 28  1  0  0  0  0
 13 14  4  0  0  0  0
 13 16  1  0  0  0  0
 14 15  4  0  0  0  0
 14 29  1  0  0  0  0
 15 30  1  0  0  0  0
 16 17  1  0  0  0  0
 17 31  1  0  0  0  0
 17 32  1  0  0  0  0
 17 33  1  0  0  0  0
 18 19  1  0  0  0  0
 18 34  1  0  0  0  0
 19 20  1  0  0  0  0
 19 23  1  0  0  0  0
 19 35  1  0  0  0  0
 20 21  1  0  0  0  0
 20 36  1  0  0  0  0
 20 37  1  0  0  0  0
 21 22  1  0  0  0  0
 21 24  1  0  0  0  0
 21 38  1  0  0  0  0
 22 23  1  0  0  0  0
 22 39  1  0  0  0  0
 22 40  1  0  0  0  0
 23 41  1  0  0  0  0
 23 42  1  0  0  0  0
 24 43  1  0  0  0  0
 24 44  1  0  0  0  0
M  END
> <ConfClashScore>
0 

> <ConfOneFourInteractionScore>
-0.982693 

> <ConfScore>
0.267187 

> <ConfScorePBest>
0.00143407 

> <ConfTolerance>
0.52263 

$$$$
c13.sdf
 OpenBabel04162418043D

 44 47  0  0  0  0  0  0  0  0999 V2000
    2.1079   -0.3773   -1.8532 N   0  0  0  1  0  0  0  0  0  0  0  0
    2.5364    0.5907   -2.6455 C   0  0  0  1  0  0  0  0  0  0  0  0
    2.1525    0.6996   -3.8968 N   0  0  0  1  0  0  0  0  0  0  0  0
    1.2985   -0.1838   -4.4201 C   0  0  0  1  0  0  0  0  0  0  0  0
    0.8204   -1.2305   -3.6033 C   0  0  0  1  0  0  0  0  0  0  0  0
    1.2615   -1.2960   -2.2849 C   0  0  0  1  0  0  0  0  0  0  0  0
    0.7018   -0.3513   -5.6890 C   0  0  0  1  0  0  0  0  0  0  0  0
   -0.0690   -1.4010   -5.6537 N   0  0  0  1  0  0  0  0  0  0  0  0
   -0.0256   -1.9781   -4.3778 N   0  0  0  1  0  0  0  0  0  0  0  0
   -0.7779   -3.1329   -4.0822 C   0  0  0  1  0  0  0  0  0  0  0  0
   -1.3462   -3.9184   -5.0672 C   0  0  0  1  0  0  0  0  0  0  0  0
   -2.0723   -5.0470   -4.7205 C   0  0  0  1  0  0  0  0  0  0  0  0
   -2.2325   -5.3841   -3.3897 C   0  0  0  1  0  0  0  0  0  0  0  0
   -1.6624   -4.5961   -2.4018 C   0  0  0  1  0  0  0  0  0  0  0  0
   -0.9384   -3.4707   -2.7474 C   0  0  0  1  0  0  0  0  0  0  0  0
   -2.9218   -6.4558   -2.9313 O   0  0  0  1  0  0  0  0  0  0  0  0
   -3.0175   -6.6144   -1.5072 C   0  0  0  1  0  0  0  0  0  0  0  0
    3.4098    1.5118   -2.1457 N   0  0  0  1  0  0  0  0  0  0  0  0
    3.9289    2.6052   -2.9686 C   0  0  0  1  0  0  0  0  0  0  0  0
    5.1032    3.2863   -2.2709 C   0  0  0  1  0  0  0  0  0  0  0  0
    5.8421    3.9627   -3.4415 C   0  0  0  1  0  0  0  0  0  0  0  0
    5.5316    3.1239   -4.6712 C   0  0  0  1  0  0  0  0  0  0  0  0
    4.4878    2.0670   -4.2743 C   0  0  0  1  0  0  0  0  0  0  0  0
    5.3534    5.3490   -3.6269 N   0  0  0  1  0  0  0  0  0  0  0  0
    0.9317   -2.0527   -1.6523 H   0  0  0  1  0  0  0  0  0  0  0  0
    0.8528    0.2621   -6.5152 H   0  0  0  1  0  0  0  0  0  0  0  0
   -1.2291   -3.6626   -6.0684 H   0  0  0  1  0  0  0  0  0  0  0  0
   -2.4965   -5.6404   -5.4618 H   0  0  0  1  0  0  0  0  0  0  0  0
   -1.7795   -4.8519   -1.4006 H   0  0  0  1  0  0  0  0  0  0  0  0
   -0.5141   -2.8773   -2.0061 H   0  0  0  1  0  0  0  0  0  0  0  0
   -2.0468   -6.8152   -1.1042 H   0  0  0  1  0  0  0  0  0  0  0  0
   -3.6724   -7.4303   -1.2826 H   0  0  0  1  0  0  0  0  0  0  0  0
   -3.4045   -5.7160   -1.0737 H   0  0  0  1  0  0  0  0  0  0  0  0
    3.6971    1.4394   -1.2115 H   0  0  0  1  0  0  0  0  0  0  0  0
    3.1475    3.3108   -3.1594 H   0  0  0  1  0  0  0  0  0  0  0  0
    5.7294    2.5702   -1.7810 H   0  0  0  1  0  0  0  0  0  0  0  0
    4.7631    4.0094   -1.5594 H   0  0  0  1  0  0  0  0  0  0  0  0
    6.8960    3.9771   -3.2574 H   0  0  0  1  0  0  0  0  0  0  0  0
    5.1395    3.7479   -5.4468 H   0  0  0  1  0  0  0  0  0  0  0  0
    6.4225    2.6422   -5.0164 H   0  0  0  1  0  0  0  0  0  0  0  0
    3.7208    1.9878   -5.0161 H   0  0  0  1  0  0  0  0  0  0  0  0
    4.9456    1.1107   -4.1303 H   0  0  0  1  0  0  0  0  0  0  0  0
    4.3998    5.3921   -3.4049 H   0  0  0  1  0  0  0  0  0  0  0  0
    5.4838    5.6191   -4.5598 H   0  0  0  1  0  0  0  0  0  0  0  0
  1  2  4  0  0  0  0
  1  6  4  0  0  0  0
  2  3  4  0  0  0  0
  2 18  1  0  0  0  0
  3  4  4  0  0  0  0
  4  5  4  0  0  0  0
  4  7  4  0  0  0  0
  5  6  4  0  0  0  0
  5  9  4  0  0  0  0
  6 25  1  0  0  0  0
  7  8  4  0  0  0  0
  7 26  1  0  0  0  0
  8  9  4  0  0  0  0
  9 10  1  0  0  0  0
 10 11  4  0  0  0  0
 10 15  4  0  0  0  0
 11 12  4  0  0  0  0
 11 27  1  0  0  0  0
 12 13  4  0  0  0  0
 12 28  1  0  0  0  0
 13 14  4  0  0  0  0
 13 16  1  0  0  0  0
 14 15  4  0  0  0  0
 14 29  1  0  0  0  0
 15 30  1  0  0  0  0
 16 17  1  0  0  0  0
 17 31  1  0  0  0  0
 17 32  1  0  0  0  0
 17 33  1  0  0  0  0
 18 19  1  0  0  0  0
 18 34  1  0  0  0  0
 19 20  1  0  0  0  0
 19 23  1  0  0  0  0
 19 35  1  0  0  0  0
 20 21  1  0  0  0  0
 20 36  1  0  0  0  0
 20 37  1  0  0  0  0
 21 22  1  0  0  0  0
 21 24  1  0  0  0  0
 21 38  1  0  0  0  0
 22 23  1  0  0  0  0
 22 39  1  0  0  0  0
 22 40  1  0  0  0  0
 23 41  1  0  0  0  0
 23 42  1  0  0  0  0
 24 43  1  0  0  0  0
 24 44  1  0  0  0  0
M  END
> <ConfClashScore>
0.00258056 

> <ConfOneFourInteractionScore>
-0.985399 

> <ConfScore>
0.337217 

> <ConfScorePBest>
0.00142074 

> <ConfTolerance>
1.06396 

$$$$
c13.sdf
 OpenBabel04162418043D

 44 47  0  0  0  0  0  0  0  0999 V2000
    2.1079   -0.3772   -1.8533 N   0  0  0  1  0  0  0  0  0  0  0  0
    2.5364    0.5907   -2.6455 C   0  0  0  1  0  0  0  0  0  0  0  0
    2.1526    0.6996   -3.8969 N   0  0  0  1  0  0  0  0  0  0  0  0
    1.2986   -0.1837   -4.4201 C   0  0  0  1  0  0  0  0  0  0  0  0
    0.8205   -1.2305   -3.6033 C   0  0  0  1  0  0  0  0  0  0  0  0
    1.2615   -1.2959   -2.2850 C   0  0  0  1  0  0  0  0  0  0  0  0
    0.7019   -0.3514   -5.6890 C   0  0  0  1  0  0  0  0  0  0  0  0
   -0.0689   -1.4011   -5.6537 N   0  0  0  1  0  0  0  0  0  0  0  0
   -0.0256   -1.9781   -4.3778 N   0  0  0  1  0  0  0  0  0  0  0  0
   -0.6807   -3.1807   -4.0740 C   0  0  0  1  0  0  0  0  0  0  0  0
   -2.0608   -3.1352   -4.1317 C   0  0  0  1  0  0  0  0  0  0  0  0
   -2.8038   -4.2721   -3.8542 C   0  0  0  1  0  0  0  0  0  0  0  0
   -2.1647   -5.4496   -3.5147 C   0  0  0  1  0  0  0  0  0  0  0  0
   -0.7805   -5.4951   -3.4567 C   0  0  0  1  0  0  0  0  0  0  0  0
   -0.0396   -4.3616   -3.7335 C   0  0  0  1  0  0  0  0  0  0  0  0
   -3.0245   -6.4577   -3.2702 O   0  0  0  1  0  0  0  0  0  0  0  0
   -2.4069   -7.7411   -3.0169 C   0  0  0  1  0  0  0  0  0  0  0  0
    3.4010    1.5329   -2.2122 N   0  0  0  1  0  0  0  0  0  0  0  0
    4.3551    2.2285   -3.0815 C   0  0  0  1  0  0  0  0  0  0  0  0
    3.6389    2.9678   -4.2118 C   0  0  0  1  0  0  0  0  0  0  0  0
    4.6277    4.0485   -4.6625 C   0  0  0  1  0  0  0  0  0  0  0  0
    5.4692    4.3715   -3.4213 C   0  0  0  1  0  0  0  0  0  0  0  0
    5.0501    3.3729   -2.3398 C   0  0  0  1  0  0  0  0  0  0  0  0
    5.4963    3.5357   -5.7641 N   0  0  0  1  0  0  0  0  0  0  0  0
    0.9317   -2.0525   -1.6522 H   0  0  0  1  0  0  0  0  0  0  0  0
    0.8529    0.2619   -6.5153 H   0  0  0  1  0  0  0  0  0  0  0  0
   -2.5419   -2.2482   -4.3833 H   0  0  0  1  0  0  0  0  0  0  0  0
   -3.8422   -4.2389   -3.9016 H   0  0  0  1  0  0  0  0  0  0  0  0
   -0.2995   -6.3822   -3.2052 H   0  0  0  1  0  0  0  0  0  0  0  0
    0.9988   -4.3947   -3.6861 H   0  0  0  1  0  0  0  0  0  0  0  0
   -3.1638   -8.4943   -2.9483 H   0  0  0  1  0  0  0  0  0  0  0  0
   -1.8617   -7.6988   -2.0972 H   0  0  0  1  0  0  0  0  0  0  0  0
   -1.7386   -7.9792   -3.8178 H   0  0  0  1  0  0  0  0  0  0  0  0
    3.3901    1.7656   -1.2603 H   0  0  0  1  0  0  0  0  0  0  0  0
    5.0657    1.5267   -3.4656 H   0  0  0  1  0  0  0  0  0  0  0  0
    3.4178    2.2998   -5.0179 H   0  0  0  1  0  0  0  0  0  0  0  0
    2.7323    3.4114   -3.8566 H   0  0  0  1  0  0  0  0  0  0  0  0
    4.1039    4.9195   -4.9969 H   0  0  0  1  0  0  0  0  0  0  0  0
    6.5104    4.2616   -3.6421 H   0  0  0  1  0  0  0  0  0  0  0  0
    5.2770    5.3721   -3.0949 H   0  0  0  1  0  0  0  0  0  0  0  0
    5.9086    3.0102   -1.8141 H   0  0  0  1  0  0  0  0  0  0  0  0
    4.3759    3.8332   -1.6481 H   0  0  0  1  0  0  0  0  0  0  0  0
    4.9367    3.1425   -6.4659 H   0  0  0  1  0  0  0  0  0  0  0  0
    6.1036    2.8530   -5.4100 H   0  0  0  1  0  0  0  0  0  0  0  0
  1  2  4  0  0  0  0
  1  6  4  0  0  0  0
  2  3  4  0  0  0  0
  2 18  1  0  0  0  0
  3  4  4  0  0  0  0
  4  5  4  0  0  0  0
  4  7  4  0  0  0  0
  5  6  4  0  0  0  0
  5  9  4  0  0  0  0
  6 25  1  0  0  0  0
  7  8  4  0  0  0  0
  7 26  1  0  0  0  0
  8  9  4  0  0  0  0
  9 10  1  0  0  0  0
 10 11  4  0  0  0  0
 10 15  4  0  0  0  0
 11 12  4  0  0  0  0
 11 27  1  0  0  0  0
 12 13  4  0  0  0  0
 12 28  1  0  0  0  0
 13 14  4  0  0  0  0
 13 16  1  0  0  0  0
 14 15  4  0  0  0  0
 14 29  1  0  0  0  0
 15 30  1  0  0  0  0
 16 17  1  0  0  0  0
 17 31  1  0  0  0  0
 17 32  1  0  0  0  0
 17 33  1  0  0  0  0
 18 19  1  0  0  0  0
 18 34  1  0  0  0  0
 19 20  1  0  0  0  0
 19 23  1  0  0  0  0
 19 35  1  0  0  0  0
 20 21  1  0  0  0  0
 20 36  1  0  0  0  0
 20 37  1  0  0  0  0
 21 22  1  0  0  0  0
 21 24  1  0  0  0  0
 21 38  1  0  0  0  0
 22 23  1  0  0  0  0
 22 39  1  0  0  0  0
 22 40  1  0  0  0  0
 23 41  1  0  0  0  0
 23 42  1  0  0  0  0
 24 43  1  0  0  0  0
 24 44  1  0  0  0  0
M  END
> <ConfClashScore>
0 

> <ConfOneFourInteractionScore>
-0.981704 

> <ConfScore>
0.354945 

> <ConfScorePBest>
0.00140741 

> <ConfTolerance>
1.03682 

$$$$
c13.sdf
 OpenBabel04162418043D

 44 47  0  0  0  0  0  0  0  0999 V2000
    2.1078   -0.3773   -1.8532 N   0  0  0  1  0  0  0  0  0  0  0  0
    2.5364    0.5908   -2.6455 C   0  0  0  1  0  0  0  0  0  0  0  0
    2.1526    0.6996   -3.8969 N   0  0  0  1  0  0  0  0  0  0  0  0
    1.2985   -0.1837   -4.4201 C   0  0  0  1  0  0  0  0  0  0  0  0
    0.8204   -1.2305   -3.6033 C   0  0  0  1  0  0  0  0  0  0  0  0
    1.2614   -1.2959   -2.2850 C   0  0  0  1  0  0  0  0  0  0  0  0
    0.7019   -0.3513   -5.6890 C   0  0  0  1  0  0  0  0  0  0  0  0
   -0.0689   -1.4010   -5.6538 N   0  0  0  1  0  0  0  0  0  0  0  0
   -0.0256   -1.9781   -4.3778 N   0  0  0  1  0  0  0  0  0  0  0  0
   -0.6901   -3.1979   -4.0698 C   0  0  0  1  0  0  0  0  0  0  0  0
   -1.7985   -3.5843   -4.7993 C   0  0  0  1  0  0  0  0  0  0  0  0
   -2.4426   -4.7753   -4.5026 C   0  0  0  1  0  0  0  0  0  0  0  0
   -1.9798   -5.5737   -3.4738 C   0  0  0  1  0  0  0  0  0  0  0  0
   -0.8682   -5.1860   -2.7421 C   0  0  0  1  0  0  0  0  0  0  0  0
   -0.2258   -3.9985   -3.0379 C   0  0  0  1  0  0  0  0  0  0  0  0
   -2.5276   -6.7513   -3.0900 O   0  0  0  1  0  0  0  0  0  0  0  0
   -1.8140   -7.5176   -2.1072 C   0  0  0  1  0  0  0  0  0  0  0  0
    3.4009    1.5022   -2.1508 N   0  0  0  1  0  0  0  0  0  0  0  0
    3.9256    1.4717   -0.7847 C   0  0  0  1  0  0  0  0  0  0  0  0
    2.7821    1.2752    0.2196 C   0  0  0  1  0  0  0  0  0  0  0  0
    3.0907   -0.0421    0.9366 C   0  0  0  1  0  0  0  0  0  0  0  0
    4.6106   -0.1983    0.8175 C   0  0  0  1  0  0  0  0  0  0  0  0
    4.8657    0.2751   -0.6040 C   0  0  0  1  0  0  0  0  0  0  0  0
    2.6764    0.0289    2.3770 N   0  0  0  1  0  0  0  0  0  0  0  0
    0.9316   -2.0525   -1.6523 H   0  0  0  1  0  0  0  0  0  0  0  0
    0.8529    0.2620   -6.5152 H   0  0  0  1  0  0  0  0  0  0  0  0
   -2.1492   -2.9815   -5.5709 H   0  0  0  1  0  0  0  0  0  0  0  0
   -3.2743   -5.0680   -5.0542 H   0  0  0  1  0  0  0  0  0  0  0  0
   -0.5174   -5.7888   -1.9705 H   0  0  0  1  0  0  0  0  0  0  0  0
    0.6058   -3.7056   -2.4863 H   0  0  0  1  0  0  0  0  0  0  0  0
   -0.7631   -7.4523   -2.2975 H   0  0  0  1  0  0  0  0  0  0  0  0
   -2.1228   -8.5407   -2.1598 H   0  0  0  1  0  0  0  0  0  0  0  0
   -2.0242   -7.1307   -1.1320 H   0  0  0  1  0  0  0  0  0  0  0  0
    3.6944    2.2271   -2.7414 H   0  0  0  1  0  0  0  0  0  0  0  0
    4.4449    2.3849   -0.5811 H   0  0  0  1  0  0  0  0  0  0  0  0
    1.8434    1.2127   -0.2901 H   0  0  0  1  0  0  0  0  0  0  0  0
    2.7556    2.0845    0.9191 H   0  0  0  1  0  0  0  0  0  0  0  0
    2.5885   -0.8582    0.4603 H   0  0  0  1  0  0  0  0  0  0  0  0
    5.1215    0.4160    1.5294 H   0  0  0  1  0  0  0  0  0  0  0  0
    4.9080   -1.2178    0.9470 H   0  0  0  1  0  0  0  0  0  0  0  0
    5.8859    0.5741   -0.7255 H   0  0  0  1  0  0  0  0  0  0  0  0
    4.6337   -0.4974   -1.3071 H   0  0  0  1  0  0  0  0  0  0  0  0
    1.7122   -0.1314    2.4484 H   0  0  0  1  0  0  0  0  0  0  0  0
    2.8871    0.9169    2.7339 H   0  0  0  1  0  0  0  0  0  0  0  0
  1  2  4  0  0  0  0
  1  6  4  0  0  0  0
  2  3  4  0  0  0  0
  2 18  1  0  0  0  0
  3  4  4  0  0  0  0
  4  5  4  0  0  0  0
  4  7  4  0  0  0  0
  5  6  4  0  0  0  0
  5  9  4  0  0  0  0
  6 25  1  0  0  0  0
  7  8  4  0  0  0  0
  7 26  1  0  0  0  0
  8  9  4  0  0  0  0
  9 10  1  0  0  0  0
 10 11  4  0  0  0  0
 10 15  4  0  0  0  0
 11 12  4  0  0  0  0
 11 27  1  0  0  0  0
 12 13  4  0  0  0  0
 12 28  1  0  0  0  0
 13 14  4  0  0  0  0
 13 16  1  0  0  0  0
 14 15  4  0  0  0  0
 14 29  1  0  0  0  0
 15 30  1  0  0  0  0
 16 17  1  0  0  0  0
 17 31  1  0  0  0  0
 17 32  1  0  0  0  0
 17 33  1  0  0  0  0
 18 19  1  0  0  0  0
 18 34  1  0  0  0  0
 19 20  1  0  0  0  0
 19 23  1  0  0  0  0
 19 35  1  0  0  0  0
 20 21  1  0  0  0  0
 20 36  1  0  0  0  0
 20 37  1  0  0  0  0
 21 22  1  0  0  0  0
 21 24  1  0  0  0  0
 21 38  1  0  0  0  0
 22 23  1  0  0  0  0
 22 39  1  0  0  0  0
 22 40  1  0  0  0  0
 23 41  1  0  0  0  0
 23 42  1  0  0  0  0
 24 43  1  0  0  0  0
 24 44  1  0  0  0  0
M  END
> <ConfClashScore>
0.00237968 

> <ConfOneFourInteractionScore>
-0.980204 

> <ConfScore>
0.407733 

> <ConfScorePBest>
0.00139408 

> <ConfTolerance>
0.649192 

$$$$
c13.sdf
 OpenBabel04162418043D

 44 47  0  0  0  0  0  0  0  0999 V2000
    2.1080   -0.3773   -1.8533 N   0  0  0  1  0  0  0  0  0  0  0  0
    2.5364    0.5907   -2.6455 C   0  0  0  1  0  0  0  0  0  0  0  0
    2.1525    0.6997   -3.8968 N   0  0  0  1  0  0  0  0  0  0  0  0
    1.2985   -0.1837   -4.4201 C   0  0  0  1  0  0  0  0  0  0  0  0
    0.8204   -1.2305   -3.6033 C   0  0  0  1  0  0  0  0  0  0  0  0
    1.2616   -1.2961   -2.2850 C   0  0  0  1  0  0  0  0  0  0  0  0
    0.7018   -0.3512   -5.6889 C   0  0  0  1  0  0  0  0  0  0  0  0
   -0.0689   -1.4010   -5.6537 N   0  0  0  1  0  0  0  0  0  0  0  0
   -0.0256   -1.9781   -4.3778 N   0  0  0  1  0  0  0  0  0  0  0  0
   -0.7857   -3.1448   -4.0791 C   0  0  0  1  0  0  0  0  0  0  0  0
   -0.4890   -3.8940   -2.9562 C   0  0  0  1  0  0  0  0  0  0  0  0
   -1.2322   -5.0266   -2.6626 C   0  0  0  1  0  0  0  0  0  0  0  0
   -2.2665   -5.4097   -3.4956 C   0  0  0  1  0  0  0  0  0  0  0  0
   -2.5639   -4.6583   -4.6218 C   0  0  0  1  0  0  0  0  0  0  0  0
   -1.8228   -3.5289   -4.9146 C   0  0  0  1  0  0  0  0  0  0  0  0
   -2.9166   -6.5336   -3.1106 O   0  0  0  1  0  0  0  0  0  0  0  0
   -3.9617   -7.0143   -3.9705 C   0  0  0  1  0  0  0  0  0  0  0  0
    3.3929    1.5241   -2.2161 N   0  0  0  1  0  0  0  0  0  0  0  0
    3.9798    1.6177   -0.8738 C   0  0  0  1  0  0  0  0  0  0  0  0
    3.0198    2.2953    0.1008 C   0  0  0  1  0  0  0  0  0  0  0  0
    2.0924    1.1812    0.5532 C   0  0  0  1  0  0  0  0  0  0  0  0
    3.0881    0.0787    0.8752 C   0  0  0  1  0  0  0  0  0  0  0  0
    4.1727    0.1619   -0.2235 C   0  0  0  1  0  0  0  0  0  0  0  0
    1.3070    1.5794    1.7616 N   0  0  0  1  0  0  0  0  0  0  0  0
    0.9319   -2.0527   -1.6523 H   0  0  0  1  0  0  0  0  0  0  0  0
    0.8528    0.2621   -6.5152 H   0  0  0  1  0  0  0  0  0  0  0  0
    0.2918   -3.6080   -2.3316 H   0  0  0  1  0  0  0  0  0  0  0  0
   -1.0116   -5.5881   -1.8155 H   0  0  0  1  0  0  0  0  0  0  0  0
   -3.3447   -4.9442   -5.2464 H   0  0  0  1  0  0  0  0  0  0  0  0
   -2.0434   -2.9674   -5.7618 H   0  0  0  1  0  0  0  0  0  0  0  0
   -4.6413   -6.2167   -4.1867 H   0  0  0  1  0  0  0  0  0  0  0  0
   -4.4876   -7.8083   -3.4827 H   0  0  0  1  0  0  0  0  0  0  0  0
   -3.5348   -7.3759   -4.8824 H   0  0  0  1  0  0  0  0  0  0  0  0
    3.6545    2.2138   -2.8614 H   0  0  0  1  0  0  0  0  0  0  0  0
    4.9105    2.1430   -0.9267 H   0  0  0  1  0  0  0  0  0  0  0  0
    3.5524    2.7058    0.9330 H   0  0  0  1  0  0  0  0  0  0  0  0
    2.4687    3.0711   -0.3885 H   0  0  0  1  0  0  0  0  0  0  0  0
    1.4222    0.8878   -0.2277 H   0  0  0  1  0  0  0  0  0  0  0  0
    3.5218    0.2380    1.8403 H   0  0  0  1  0  0  0  0  0  0  0  0
    2.6070   -0.8767    0.8530 H   0  0  0  1  0  0  0  0  0  0  0  0
    5.1496    0.0650    0.2022 H   0  0  0  1  0  0  0  0  0  0  0  0
    4.0256   -0.6023   -0.9578 H   0  0  0  1  0  0  0  0  0  0  0  0
    1.7918    1.3110    2.5699 H   0  0  0  1  0  0  0  0  0  0  0  0
    0.4327    1.1370    1.7432 H   0  0  0  1  0  0  0  0  0  0  0  0
  1  2  4  0  0  0  0
  1  6  4  0  0  0  0
  2  3  4  0  0  0  0
  2 18  1  0  0  0  0
  3  4  4  0  0  0  0
  4  5  4  0  0  0  0
  4  7  4  0  0  0  0
  5  6  4  0  0  0  0
  5  9  4  0  0  0  0
  6 25  1  0  0  0  0
  7  8  4  0  0  0  0
  7 26  1  0  0  0  0
  8  9  4  0  0  0  0
  9 10  1  0  0  0  0
 10 11  4  0  0  0  0
 10 15  4  0  0  0  0
 11 12  4  0  0  0  0
 11 27  1  0  0  0  0
 12 13  4  0  0  0  0
 12 28  1  0  0  0  0
 13 14  4  0  0  0  0
 13 16  1  0  0  0  0
 14 15  4  0  0  0  0
 14 29  1  0  0  0  0
 15 30  1  0  0  0  0
 16 17  1  0  0  0  0
 17 31  1  0  0  0  0
 17 32  1  0  0  0  0
 17 33  1  0  0  0  0
 18 19  1  0  0  0  0
 18 34  1  0  0  0  0
 19 20  1  0  0  0  0
 19 23  1  0  0  0  0
 19 35  1  0  0  0  0
 20 21  1  0  0  0  0
 20 36  1  0  0  0  0
 20 37  1  0  0  0  0
 21 22  1  0  0  0  0
 21 24  1  0  0  0  0
 21 38  1  0  0  0  0
 22 23  1  0  0  0  0
 22 39  1  0  0  0  0
 22 40  1  0  0  0  0
 23 41  1  0  0  0  0
 23 42  1  0  0  0  0
 24 43  1  0  0  0  0
 24 44  1  0  0  0  0
M  END
> <ConfClashScore>
0.00173975 

> <ConfOneFourInteractionScore>
-0.982693 

> <ConfScore>
0.408878 

> <ConfScorePBest>
0.00138075 

> <ConfTolerance>
0.943758 

$$$$
c13.sdf
 OpenBabel04162418043D

 44 47  0  0  0  0  0  0  0  0999 V2000
    2.1080   -0.3774   -1.8532 N   0  0  0  1  0  0  0  0  0  0  0  0
    2.5364    0.5907   -2.6455 C   0  0  0  1  0  0  0  0  0  0  0  0
    2.1526    0.6996   -3.8968 N   0  0  0  1  0  0  0  0  0  0  0  0
    1.2986   -0.1837   -4.4201 C   0  0  0  1  0  0  0  0  0  0  0  0
    0.8204   -1.2305   -3.6033 C   0  0  0  1  0  0  0  0  0  0  0  0
    1.2616   -1.2960   -2.2849 C   0  0  0  1  0  0  0  0  0  0  0  0
    0.7019   -0.3513   -5.6889 C   0  0  0  1  0  0  0  0  0  0  0  0
   -0.0690   -1.4010   -5.6537 N   0  0  0  1  0  0  0  0  0  0  0  0
   -0.0256   -1.9781   -4.3778 N   0  0  0  1  0  0  0  0  0  0  0  0
   -0.7097   -3.1879   -4.1146 C   0  0  0  1  0  0  0  0  0  0  0  0
   -0.4172   -4.3210   -4.8499 C   0  0  0  1  0  0  0  0  0  0  0  0
   -1.0838   -5.5080   -4.5884 C   0  0  0  1  0  0  0  0  0  0  0  0
   -2.0446   -5.5570   -3.5961 C   0  0  0  1  0  0  0  0  0  0  0  0
   -2.3377   -4.4204   -2.8586 C   0  0  0  1  0  0  0  0  0  0  0  0
   -1.6732   -3.2369   -3.1193 C   0  0  0  1  0  0  0  0  0  0  0  0
   -2.6456   -6.7181   -3.2433 O   0  0  0  1  0  0  0  0  0  0  0  0
   -2.1858   -7.9169   -3.8869 C   0  0  0  1  0  0  0  0  0  0  0  0
    3.3977    1.4988   -2.1527 N   0  0  0  1  0  0  0  0  0  0  0  0
    3.1907    2.3424   -0.9821 C   0  0  0  1  0  0  0  0  0  0  0  0
    4.4349    2.3745   -0.0944 C   0  0  0  1  0  0  0  0  0  0  0  0
    4.2984    3.6616    0.7264 C   0  0  0  1  0  0  0  0  0  0  0  0
    3.4794    4.6170   -0.1507 C   0  0  0  1  0  0  0  0  0  0  0  0
    3.0407    3.8135   -1.3771 C   0  0  0  1  0  0  0  0  0  0  0  0
    3.5846    3.3894    2.0118 N   0  0  0  1  0  0  0  0  0  0  0  0
    0.9317   -2.0526   -1.6522 H   0  0  0  1  0  0  0  0  0  0  0  0
    0.8528    0.2620   -6.5151 H   0  0  0  1  0  0  0  0  0  0  0  0
    0.3029   -4.2832   -5.5993 H   0  0  0  1  0  0  0  0  0  0  0  0
   -0.8608   -6.3617   -5.1390 H   0  0  0  1  0  0  0  0  0  0  0  0
   -3.0578   -4.4582   -2.1092 H   0  0  0  1  0  0  0  0  0  0  0  0
   -1.8961   -2.3831   -2.5687 H   0  0  0  1  0  0  0  0  0  0  0  0
   -2.7448   -8.7539   -3.5239 H   0  0  0  1  0  0  0  0  0  0  0  0
   -1.1477   -8.0612   -3.6717 H   0  0  0  1  0  0  0  0  0  0  0  0
   -2.3225   -7.8286   -4.9444 H   0  0  0  1  0  0  0  0  0  0  0  0
    4.2486    1.6037   -2.6276 H   0  0  0  1  0  0  0  0  0  0  0  0
    2.3355    1.9968   -0.4396 H   0  0  0  1  0  0  0  0  0  0  0  0
    5.3227    2.4007   -0.6911 H   0  0  0  1  0  0  0  0  0  0  0  0
    4.4614    1.5192    0.5480 H   0  0  0  1  0  0  0  0  0  0  0  0
    5.2623    4.0772    0.9342 H   0  0  0  1  0  0  0  0  0  0  0  0
    4.0803    5.4501   -0.4503 H   0  0  0  1  0  0  0  0  0  0  0  0
    2.6233    4.9690    0.3861 H   0  0  0  1  0  0  0  0  0  0  0  0
    3.6660    4.0405   -2.2151 H   0  0  0  1  0  0  0  0  0  0  0  0
    2.0222    4.0323   -1.6217 H   0  0  0  1  0  0  0  0  0  0  0  0
    4.0721    2.7068    2.5186 H   0  0  0  1  0  0  0  0  0  0  0  0
    2.6785    3.0689    1.8204 H   0  0  0  1  0  0  0  0  0  0  0  0
  1  2  4  0  0  0  0
  1  6  4  0  0  0  0
  2  3  4  0  0  0  0
  2 18  1  0  0  0  0
  3  4  4  0  0  0  0
  4  5  4  0  0  0  0
  4  7  4  0  0  0  0
  5  6  4  0  0  0  0
  5  9  4  0  0  0  0
  6 25  1  0  0  0  0
  7  8  4  0  0  0  0
  7 26  1  0  0  0  0
  8  9  4  0  0  0  0
  9 10  1  0  0  0  0
 10 11  4  0  0  0  0
 10 15  4  0  0  0  0
 11 12  4  0  0  0  0
 11 27  1  0  0  0  0
 12 13  4  0  0  0  0
 12 28  1  0  0  0  0
 13 14  4  0  0  0  0
 13 16  1  0  0  0  0
 14 15  4  0  0  0  0
 14 29  1  0  0  0  0
 15 30  1  0  0  0  0
 16 17  1  0  0  0  0
 17 31  1  0  0  0  0
 17 32  1  0  0  0  0
 17 33  1  0  0  0  0
 18 19  1  0  0  0  0
 18 34  1  0  0  0  0
 19 20  1  0  0  0  0
 19 23  1  0  0  0  0
 19 35  1  0  0  0  0
 20 21  1  0  0  0  0
 20 36  1  0  0  0  0
 20 37  1  0  0  0  0
 21 22  1  0  0  0  0
 21 24  1  0  0  0  0
 21 38  1  0  0  0  0
 22 23  1  0  0  0  0
 22 39  1  0  0  0  0
 22 40  1  0  0  0  0
 23 41  1  0  0  0  0
 23 42  1  0  0  0  0
 24 43  1  0  0  0  0
 24 44  1  0  0  0  0
M  END
> <ConfClashScore>
0 

> <ConfOneFourInteractionScore>
-0.982233 

> <ConfScore>
0.435927 

> <ConfScorePBest>
0.00136743 

> <ConfTolerance>
1.39162 

$$$$
c13.sdf
 OpenBabel04162418043D

 44 47  0  0  0  0  0  0  0  0999 V2000
    2.1080   -0.3774   -1.8533 N   0  0  0  1  0  0  0  0  0  0  0  0
    2.5363    0.5907   -2.6455 C   0  0  0  1  0  0  0  0  0  0  0  0
    2.1525    0.6996   -3.8968 N   0  0  0  1  0  0  0  0  0  0  0  0
    1.2985   -0.1838   -4.4201 C   0  0  0  1  0  0  0  0  0  0  0  0
    0.8204   -1.2305   -3.6033 C   0  0  0  1  0  0  0  0  0  0  0  0
    1.2615   -1.2961   -2.2850 C   0  0  0  1  0  0  0  0  0  0  0  0
    0.7019   -0.3513   -5.6890 C   0  0  0  1  0  0  0  0  0  0  0  0
   -0.0690   -1.4010   -5.6538 N   0  0  0  1  0  0  0  0  0  0  0  0
   -0.0256   -1.9781   -4.3778 N   0  0  0  1  0  0  0  0  0  0  0  0
   -0.8670   -3.0577   -4.0212 C   0  0  0  1  0  0  0  0  0  0  0  0
   -0.7789   -3.6913   -2.7961 C   0  0  0  1  0  0  0  0  0  0  0  0
   -1.6325   -4.7415   -2.4962 C   0  0  0  1  0  0  0  0  0  0  0  0
   -2.5680   -5.1586   -3.4243 C   0  0  0  1  0  0  0  0  0  0  0  0
   -2.6562   -4.5229   -4.6530 C   0  0  0  1  0  0  0  0  0  0  0  0
   -1.8051   -3.4757   -4.9521 C   0  0  0  1  0  0  0  0  0  0  0  0
   -3.3415   -6.1949   -3.0220 O   0  0  0  1  0  0  0  0  0  0  0  0
   -4.2045   -6.7893   -4.0040 C   0  0  0  1  0  0  0  0  0  0  0  0
    3.3924    1.4706   -2.1100 N   0  0  0  1  0  0  0  0  0  0  0  0
    4.0115    2.6442   -2.7322 C   0  0  0  1  0  0  0  0  0  0  0  0
    4.2766    2.4030   -4.2298 C   0  0  0  1  0  0  0  0  0  0  0  0
    3.0023    2.8810   -5.0095 C   0  0  0  1  0  0  0  0  0  0  0  0
    2.1261    3.5326   -3.9446 C   0  0  0  1  0  0  0  0  0  0  0  0
    3.0259    3.8606   -2.7467 C   0  0  0  1  0  0  0  0  0  0  0  0
    3.3722    3.8736   -6.0723 N   0  0  0  1  0  0  0  0  0  0  0  0
    0.9317   -2.0527   -1.6522 H   0  0  0  1  0  0  0  0  0  0  0  0
    0.8528    0.2621   -6.5152 H   0  0  0  1  0  0  0  0  0  0  0  0
   -0.0724   -3.3803   -2.0993 H   0  0  0  1  0  0  0  0  0  0  0  0
   -1.5691   -5.2157   -1.5728 H   0  0  0  1  0  0  0  0  0  0  0  0
   -3.3629   -4.8339   -5.3498 H   0  0  0  1  0  0  0  0  0  0  0  0
   -1.8686   -3.0014   -5.8754 H   0  0  0  1  0  0  0  0  0  0  0  0
   -4.7106   -7.6283   -3.5737 H   0  0  0  1  0  0  0  0  0  0  0  0
   -3.6219   -7.1150   -4.8402 H   0  0  0  1  0  0  0  0  0  0  0  0
   -4.9243   -6.0676   -4.3295 H   0  0  0  1  0  0  0  0  0  0  0  0
    3.6381    1.3076   -1.1754 H   0  0  0  1  0  0  0  0  0  0  0  0
    4.9161    2.8874   -2.2150 H   0  0  0  1  0  0  0  0  0  0  0  0
    4.4466    1.3619   -4.4087 H   0  0  0  1  0  0  0  0  0  0  0  0
    5.1313    2.9640   -4.5457 H   0  0  0  1  0  0  0  0  0  0  0  0
    2.4988    2.0496   -5.4568 H   0  0  0  1  0  0  0  0  0  0  0  0
    1.3513    2.8579   -3.6457 H   0  0  0  1  0  0  0  0  0  0  0  0
    1.6891    4.4301   -4.3300 H   0  0  0  1  0  0  0  0  0  0  0  0
    2.4607    3.9128   -1.8397 H   0  0  0  1  0  0  0  0  0  0  0  0
    3.5490    4.7821   -2.8953 H   0  0  0  1  0  0  0  0  0  0  0  0
    3.9077    4.5926   -5.6764 H   0  0  0  1  0  0  0  0  0  0  0  0
    2.5572    4.2513   -6.4640 H   0  0  0  1  0  0  0  0  0  0  0  0
  1  2  4  0  0  0  0
  1  6  4  0  0  0  0
  2  3  4  0  0  0  0
  2 18  1  0  0  0  0
  3  4  4  0  0  0  0
  4  5  4  0  0  0  0
  4  7  4  0  0  0  0
  5  6  4  0  0  0  0
  5  9  4  0  0  0  0
  6 25  1  0  0  0  0
  7  8  4  0  0  0  0
  7 26  1  0  0  0  0
  8  9  4  0  0  0  0
  9 10  1  0  0  0  0
 10 11  4  0  0  0  0
 10 15  4  0  0  0  0
 11 12  4  0  0  0  0
 11 27  1  0  0  0  0
 12 13  4  0  0  0  0
 12 28  1  0  0  0  0
 13 14  4  0  0  0  0
 13 16  1  0  0  0  0
 14 15  4  0  0  0  0
 14 29  1  0  0  0  0
 15 30  1  0  0  0  0
 16 17  1  0  0  0  0
 17 31  1  0  0  0  0
 17 32  1  0  0  0  0
 17 33  1  0  0  0  0
 18 19  1  0  0  0  0
 18 34  1  0  0  0  0
 19 20  1  0  0  0  0
 19 23  1  0  0  0  0
 19 35  1  0  0  0  0
 20 21  1  0  0  0  0
 20 36  1  0  0  0  0
 20 37  1  0  0  0  0
 21 22  1  0  0  0  0
 21 24  1  0  0  0  0
 21 38  1  0  0  0  0
 22 23  1  0  0  0  0
 22 39  1  0  0  0  0
 22 40  1  0  0  0  0
 23 41  1  0  0  0  0
 23 42  1  0  0  0  0
 24 43  1  0  0  0  0
 24 44  1  0  0  0  0
M  END
> <ConfClashScore>
0.0046836 

> <ConfOneFourInteractionScore>
-0.982693 

> <ConfScore>
0.519732 

> <ConfScorePBest>
0.0013541 

> <ConfTolerance>
0.851921 

$$$$
c13.sdf
 OpenBabel04162418043D

 44 47  0  0  0  0  0  0  0  0999 V2000
    2.1079   -0.3774   -1.8532 N   0  0  0  1  0  0  0  0  0  0  0  0
    2.5363    0.5907   -2.6455 C   0  0  0  1  0  0  0  0  0  0  0  0
    2.1525    0.6997   -3.8968 N   0  0  0  1  0  0  0  0  0  0  0  0
    1.2986   -0.1837   -4.4201 C   0  0  0  1  0  0  0  0  0  0  0  0
    0.8205   -1.2305   -3.6033 C   0  0  0  1  0  0  0  0  0  0  0  0
    1.2615   -1.2960   -2.2850 C   0  0  0  1  0  0  0  0  0  0  0  0
    0.7019   -0.3512   -5.6890 C   0  0  0  1  0  0  0  0  0  0  0  0
   -0.0690   -1.4010   -5.6537 N   0  0  0  1  0  0  0  0  0  0  0  0
   -0.0256   -1.9781   -4.3778 N   0  0  0  1  0  0  0  0  0  0  0  0
   -0.7072   -3.1838   -4.1157 C   0  0  0  1  0  0  0  0  0  0  0  0
   -1.8877   -3.4131   -4.7966 C   0  0  0  1  0  0  0  0  0  0  0  0
   -2.5958   -4.5851   -4.5807 C   0  0  0  1  0  0  0  0  0  0  0  0
   -2.1239   -5.5219   -3.6806 C   0  0  0  1  0  0  0  0  0  0  0  0
   -0.9398   -5.2917   -2.9977 C   0  0  0  1  0  0  0  0  0  0  0  0
   -0.2338   -4.1231   -3.2128 C   0  0  0  1  0  0  0  0  0  0  0  0
   -2.8977   -6.6170   -3.5500 O   0  0  0  1  0  0  0  0  0  0  0  0
   -2.4218   -7.5923   -2.5935 C   0  0  0  1  0  0  0  0  0  0  0  0
    3.3976    1.4989   -2.1526 N   0  0  0  1  0  0  0  0  0  0  0  0
    4.8542    1.3954   -2.2775 C   0  0  0  1  0  0  0  0  0  0  0  0
    5.4778    0.7234   -1.0075 C   0  0  0  1  0  0  0  0  0  0  0  0
    6.8350    0.1523   -1.5402 C   0  0  0  1  0  0  0  0  0  0  0  0
    6.6291   -0.1196   -3.0572 C   0  0  0  1  0  0  0  0  0  0  0  0
    5.2415    0.4377   -3.4208 C   0  0  0  1  0  0  0  0  0  0  0  0
    7.9311    1.1488   -1.3373 N   0  0  0  1  0  0  0  0  0  0  0  0
    0.9318   -2.0527   -1.6523 H   0  0  0  1  0  0  0  0  0  0  0  0
    0.8528    0.2621   -6.5151 H   0  0  0  1  0  0  0  0  0  0  0  0
   -2.2450   -2.7065   -5.4709 H   0  0  0  1  0  0  0  0  0  0  0  0
   -3.4821   -4.7596   -5.0961 H   0  0  0  1  0  0  0  0  0  0  0  0
   -0.5826   -5.9982   -2.3233 H   0  0  0  1  0  0  0  0  0  0  0  0
    0.6526   -3.9487   -2.6975 H   0  0  0  1  0  0  0  0  0  0  0  0
   -1.7924   -7.1101   -1.8749 H   0  0  0  1  0  0  0  0  0  0  0  0
   -1.8645   -8.3497   -3.1041 H   0  0  0  1  0  0  0  0  0  0  0  0
   -3.2563   -8.0383   -2.0941 H   0  0  0  1  0  0  0  0  0  0  0  0
    3.0293    2.2758   -1.6822 H   0  0  0  1  0  0  0  0  0  0  0  0
    5.2690    2.3687   -2.4373 H   0  0  0  1  0  0  0  0  0  0  0  0
    5.6415    1.4433   -0.2330 H   0  0  0  1  0  0  0  0  0  0  0  0
    4.8492   -0.0603   -0.6395 H   0  0  0  1  0  0  0  0  0  0  0  0
    7.0796   -0.7565   -1.0311 H   0  0  0  1  0  0  0  0  0  0  0  0
    6.6669   -1.1710   -3.2519 H   0  0  0  1  0  0  0  0  0  0  0  0
    7.3868    0.3767   -3.6269 H   0  0  0  1  0  0  0  0  0  0  0  0
    5.2856    0.9669   -4.3497 H   0  0  0  1  0  0  0  0  0  0  0  0
    4.5299   -0.3578   -3.4963 H   0  0  0  1  0  0  0  0  0  0  0  0
    8.0226    1.3441   -0.3813 H   0  0  0  1  0  0  0  0  0  0  0  0
    7.7156    1.9739   -1.8199 H   0  0  0  1  0  0  0  0  0  0  0  0
  1  2  4  0  0  0  0
  1  6  4  0  0  0  0
  2  3  4  0  0  0  0
  2 18  1  0  0  0  0
  3  4  4  0  0  0  0
  4  5  4  0  0  0  0
  4  7  4  0  0  0  0
  5  6  4  0  0  0  0
  5  9  4  0  0  0  0
  6 25  1  0  0  0  0
  7  8  4  0  0  0  0
  7 26  1  0  0  0  0
  8  9  4  0  0  0  0
  9 10  1  0  0  0  0
 10 11  4  0  0  0  0
 10 15  4  0  0  0  0
 11 12  4  0  0  0  0
 11 27  1  0  0  0  0
 12 13  4  0  0  0  0
 12 28  1  0  0  0  0
 13 14  4  0  0  0  0
 13 16  1  0  0  0  0
 14 15  4  0  0  0  0
 14 29  1  0  0  0  0
 15 30  1  0  0  0  0
 16 17  1  0  0  0  0
 17 31  1  0  0  0  0
 17 32  1  0  0  0  0
 17 33  1  0  0  0  0
 18 19  1  0  0  0  0
 18 34  1  0  0  0  0
 19 20  1  0  0  0  0
 19 23  1  0  0  0  0
 19 35  1  0  0  0  0
 20 21  1  0  0  0  0
 20 36  1  0  0  0  0
 20 37  1  0  0  0  0
 21 22  1  0  0  0  0
 21 24  1  0  0  0  0
 21 38  1  0  0  0  0
 22 23  1  0  0  0  0
 22 39  1  0  0  0  0
 22 40  1  0  0  0  0
 23 41  1  0  0  0  0
 23 42  1  0  0  0  0
 24 43  1  0  0  0  0
 24 44  1  0  0  0  0
M  END
> <ConfClashScore>
0 

> <ConfOneFourInteractionScore>
-0.980588 

> <ConfScore>
0.646987 

> <ConfScorePBest>
0.00134077 

> <ConfTolerance>
2.00279 

$$$$
