c13.sdf
 OpenBabel04162418043D

 44 47  0  0  0  0  0  0  0  0999 V2000
    2.7664    2.7961   -2.4769 N   0  0  0  1  0  0  0  0  0  0  0  0
    3.7818    2.5172   -3.2766 C   0  0  0  1  0  0  0  0  0  0  0  0
    3.9002    3.0416   -4.4749 N   0  0  0  1  0  0  0  0  0  0  0  0
    2.9783    3.8920   -4.9336 C   0  0  0  1  0  0  0  0  0  0  0  0
    1.8806    4.2127   -4.1069 C   0  0  0  1  0  0  0  0  0  0  0  0
    1.8072    3.6268   -2.8466 C   0  0  0  1  0  0  0  0  0  0  0  0
    2.8078    4.6126   -6.1360 C   0  0  0  1  0  0  0  0  0  0  0  0
    1.7098    5.3091   -6.0545 N   0  0  0  1  0  0  0  0  0  0  0  0
    1.1016    5.0910   -4.8113 N   0  0  0  1  0  0  0  0  0  0  0  0
   -0.1192    5.7622   -4.5160 C   0  0  0  1  0  0  0  0  0  0  0  0
   -1.1287    5.8069   -5.4589 C   0  0  0  1  0  0  0  0  0  0  0  0
   -2.3191    6.4556   -5.1694 C   0  0  0  1  0  0  0  0  0  0  0  0
   -2.4944    7.0623   -3.9400 C   0  0  0  1  0  0  0  0  0  0  0  0
   -1.4818    7.0174   -2.9944 C   0  0  0  1  0  0  0  0  0  0  0  0
   -0.2949    6.3706   -3.2829 C   0  0  0  1  0  0  0  0  0  0  0  0
   -3.6161    7.7081   -3.6008 O   0  0  0  1  0  0  0  0  0  0  0  0
   -4.7802    7.7521   -4.4929 C   0  0  0  1  0  0  0  0  0  0  0  0
    4.7379    1.6279   -2.7867 N   0  0  0  1  0  0  0  0  0  0  0  0
    4.5202    1.1894   -1.4014 C   0  0  0  1  0  0  0  0  0  0  0  0
    5.0812   -0.2201   -1.1851 C   0  0  0  1  0  0  0  0  0  0  0  0
    6.4956   -0.0372   -0.6184 C   0  0  0  1  0  0  0  0  0  0  0  0
    6.7124    1.4767   -0.5433 C   0  0  0  1  0  0  0  0  0  0  0  0
    5.3006    2.0627   -0.4327 C   0  0  0  1  0  0  0  0  0  0  0  0
    6.5962   -0.6477    0.7428 N   0  0  0  1  0  0  0  0  0  0  0  0
    1.0136    3.8383   -2.2087 H   0  0  0  1  0  0  0  0  0  0  0  0
    3.4522    4.5908   -6.9520 H   0  0  0  1  0  0  0  0  0  0  0  0
   -0.9954    5.3538   -6.3855 H   0  0  0  1  0  0  0  0  0  0  0  0
   -3.0803    6.4857   -5.8774 H   0  0  0  1  0  0  0  0  0  0  0  0
   -1.6151    7.4704   -2.0678 H   0  0  0  1  0  0  0  0  0  0  0  0
    0.4664    6.3404   -2.5749 H   0  0  0  1  0  0  0  0  0  0  0  0
   -5.2740    6.8029   -4.4828 H   0  0  0  1  0  0  0  0  0  0  0  0
   -4.4580    7.9758   -5.4884 H   0  0  0  1  0  0  0  0  0  0  0  0
   -5.4574    8.5098   -4.1579 H   0  0  0  1  0  0  0  0  0  0  0  0
    5.4965    1.3193   -3.3250 H   0  0  0  1  0  0  0  0  0  0  0  0
    3.4742    1.2183   -1.1778 H   0  0  0  1  0  0  0  0  0  0  0  0
    5.1199   -0.7501   -2.1139 H   0  0  0  1  0  0  0  0  0  0  0  0
    4.4709   -0.7595   -0.4913 H   0  0  0  1  0  0  0  0  0  0  0  0
    7.2190   -0.4869   -1.2660 H   0  0  0  1  0  0  0  0  0  0  0  0
    7.2961    1.7327    0.3161 H   0  0  0  1  0  0  0  0  0  0  0  0
    7.2012    1.8327   -1.4260 H   0  0  0  1  0  0  0  0  0  0  0  0
    5.2812    3.0895   -0.7329 H   0  0  0  1  0  0  0  0  0  0  0  0
    4.9200    1.9745    0.5634 H   0  0  0  1  0  0  0  0  0  0  0  0
    6.4967   -1.6202    0.6733 H   0  0  0  1  0  0  0  0  0  0  0  0
    5.8873   -0.2872    1.3155 H   0  0  0  1  0  0  0  0  0  0  0  0
  1  2  4  0  0  0  0
  1  6  4  0  0  0  0
  2  3  4  0  0  0  0
  2 18  1  0  0  0  0
  3  4  4  0  0  0  0
  4  5  4  0  0  0  0
  4  7  4  0  0  0  0
  5  6  4  0  0  0  0
  5  9  4  0  0  0  0
  6 25  1  0  0  0  0
  7  8  4  0  0  0  0
  7 26  1  0  0  0  0
  8  9  4  0  0  0  0
  9 10  1  0  0  0  0
 10 11  4  0  0  0  0
 10 15  4  0  0  0  0
 11 12  4  0  0  0  0
 11 27  1  0  0  0  0
 12 13  4  0  0  0  0
 12 28  1  0  0  0  0
 13 14  4  0  0  0  0
 13 16  1  0  0  0  0
 14 15  4  0  0  0  0
 14 29  1  0  0  0  0
 15 30  1  0  0  0  0
 16 17  1  0  0  0  0
 17 31  1  0  0  0  0
 17 32  1  0  0  0  0
 17 33  1  0  0  0  0
 18 19  1  0  0  0  0
 18 34  1  0  0  0  0
 19 20  1  0  0  0  0
 19 23  1  0  0  0  0
 19 35  1  0  0  0  0
 20 21  1  0  0  0  0
 20 36  1  0  0  0  0
 20 37  1  0  0  0  0
 21 22  1  0  0  0  0
 21 24  1  0  0  0  0
 21 38  1  0  0  0  0
 22 23  1  0  0  0  0
 22 39  1  0  0  0  0
 22 40  1  0  0  0  0
 23 41  1  0  0  0  0
 23 42  1  0  0  0  0
 24 43  1  0  0  0  0
 24 44  1  0  0  0  0
M  END
> <ConfClashScore>
0 

> <ConfOneFourInteractionScore>
-0.984337 

> <ConfScore>
-0.134924 

> <ConfScorePBest>
0.0053259 

> <ConfTolerance>
0.352487 

$$$$
c13.sdf
 OpenBabel04162418043D

 44 47  0  0  0  0  0  0  0  0999 V2000
    2.3629    2.1681   -4.1258 N   0  0  0  1  0  0  0  0  0  0  0  0
    2.7957    2.1322   -2.8769 C   0  0  0  1  0  0  0  0  0  0  0  0
    2.2337    2.8286   -1.9156 N   0  0  0  1  0  0  0  0  0  0  0  0
    1.1840    3.6124   -2.1750 C   0  0  0  1  0  0  0  0  0  0  0  0
    0.6949    3.6752   -3.4972 C   0  0  0  1  0  0  0  0  0  0  0  0
    1.3302    2.9154   -4.4750 C   0  0  0  1  0  0  0  0  0  0  0  0
    0.3703    4.4659   -1.3980 C   0  0  0  1  0  0  0  0  0  0  0  0
   -0.5320    5.0013   -2.1704 N   0  0  0  1  0  0  0  0  0  0  0  0
   -0.3677    4.5384   -3.4825 N   0  0  0  1  0  0  0  0  0  0  0  0
   -1.2880    4.9034   -4.4762 C   0  0  0  1  0  0  0  0  0  0  0  0
   -1.4583    6.2631   -4.6562 C   0  0  0  1  0  0  0  0  0  0  0  0
   -2.3414    6.7296   -5.6174 C   0  0  0  1  0  0  0  0  0  0  0  0
   -3.0557    5.8352   -6.3921 C   0  0  0  1  0  0  0  0  0  0  0  0
   -2.8848    4.4714   -6.2115 C   0  0  0  1  0  0  0  0  0  0  0  0
   -2.0042    4.0062   -5.2531 C   0  0  0  1  0  0  0  0  0  0  0  0
   -3.9470    6.1714   -7.3546 O   0  0  0  1  0  0  0  0  0  0  0  0
   -4.1113    7.5698   -7.6373 C   0  0  0  1  0  0  0  0  0  0  0  0
    3.8513    1.3537   -2.5784 N   0  0  0  1  0  0  0  0  0  0  0  0
    4.4095    1.2170   -1.2322 C   0  0  0  1  0  0  0  0  0  0  0  0
    5.0167   -0.1787   -1.0419 C   0  0  0  1  0  0  0  0  0  0  0  0
    6.4641    0.0341   -0.5925 C   0  0  0  1  0  0  0  0  0  0  0  0
    6.5303    1.4758   -0.0825 C   0  0  0  1  0  0  0  0  0  0  0  0
    5.5721    2.1954   -1.0317 C   0  0  0  1  0  0  0  0  0  0  0  0
    6.8142   -0.9162    0.4940 N   0  0  0  1  0  0  0  0  0  0  0  0
    0.9990    2.9354   -5.4607 H   0  0  0  1  0  0  0  0  0  0  0  0
    0.4743    4.6386   -0.3778 H   0  0  0  1  0  0  0  0  0  0  0  0
   -0.9239    6.9362   -4.0705 H   0  0  0  1  0  0  0  0  0  0  0  0
   -2.4666    7.7527   -5.7556 H   0  0  0  1  0  0  0  0  0  0  0  0
   -3.4192    3.7984   -6.7971 H   0  0  0  1  0  0  0  0  0  0  0  0
   -1.8790    2.9830   -5.1148 H   0  0  0  1  0  0  0  0  0  0  0  0
   -4.4990    8.0659   -6.7722 H   0  0  0  1  0  0  0  0  0  0  0  0
   -4.7930    7.6908   -8.4531 H   0  0  0  1  0  0  0  0  0  0  0  0
   -3.1642    7.9945   -7.8972 H   0  0  0  1  0  0  0  0  0  0  0  0
    4.2714    0.8480   -3.3052 H   0  0  0  1  0  0  0  0  0  0  0  0
    3.6422    1.3936   -0.5077 H   0  0  0  1  0  0  0  0  0  0  0  0
    4.4736   -0.7191   -0.2950 H   0  0  0  1  0  0  0  0  0  0  0  0
    4.9921   -0.7211   -1.9639 H   0  0  0  1  0  0  0  0  0  0  0  0
    7.1342   -0.1017   -1.4155 H   0  0  0  1  0  0  0  0  0  0  0  0
    7.5221    1.8698   -0.1597 H   0  0  0  1  0  0  0  0  0  0  0  0
    6.1967    1.5445    0.9318 H   0  0  0  1  0  0  0  0  0  0  0  0
    5.2248    3.1086   -0.5954 H   0  0  0  1  0  0  0  0  0  0  0  0
    6.0527    2.4054   -1.9644 H   0  0  0  1  0  0  0  0  0  0  0  0
    6.6541   -1.8340    0.1900 H   0  0  0  1  0  0  0  0  0  0  0  0
    6.2597   -0.7315    1.2806 H   0  0  0  1  0  0  0  0  0  0  0  0
  1  2  4  0  0  0  0
  1  6  4  0  0  0  0
  2  3  4  0  0  0  0
  2 18  1  0  0  0  0
  3  4  4  0  0  0  0
  4  5  4  0  0  0  0
  4  7  4  0  0  0  0
  5  6  4  0  0  0  0
  5  9  4  0  0  0  0
  6 25  1  0  0  0  0
  7  8  4  0  0  0  0
  7 26  1  0  0  0  0
  8  9  4  0  0  0  0
  9 10  1  0  0  0  0
 10 11  4  0  0  0  0
 10 15  4  0  0  0  0
 11 12  4  0  0  0  0
 11 27  1  0  0  0  0
 12 13  4  0  0  0  0
 12 28  1  0  0  0  0
 13 14  4  0  0  0  0
 13 16  1  0  0  0  0
 14 15  4  0  0  0  0
 14 29  1  0  0  0  0
 15 30  1  0  0  0  0
 16 17  1  0  0  0  0
 17 31  1  0  0  0  0
 17 32  1  0  0  0  0
 17 33  1  0  0  0  0
 18 19  1  0  0  0  0
 18 34  1  0  0  0  0
 19 20  1  0  0  0  0
 19 23  1  0  0  0  0
 19 35  1  0  0  0  0
 20 21  1  0  0  0  0
 20 36  1  0  0  0  0
 20 37  1  0  0  0  0
 21 22  1  0  0  0  0
 21 24  1  0  0  0  0
 21 38  1  0  0  0  0
 22 23  1  0  0  0  0
 22 39  1  0  0  0  0
 22 40  1  0  0  0  0
 23 41  1  0  0  0  0
 23 42  1  0  0  0  0
 24 43  1  0  0  0  0
 24 44  1  0  0  0  0
M  END
> <ConfClashScore>
0 

> <ConfOneFourInteractionScore>
-0.984337 

> <ConfScore>
-0.134924 

> <ConfScorePBest>
0.00531257 

> <ConfTolerance>
0.326649 

$$$$
c13.sdf
 OpenBabel04162418043D

 44 47  0  0  0  0  0  0  0  0999 V2000
    3.7997    1.8452   -5.0016 N   0  0  0  1  0  0  0  0  0  0  0  0
    3.6659    1.9001   -3.6872 C   0  0  0  1  0  0  0  0  0  0  0  0
    2.6776    2.5400   -3.1052 N   0  0  0  1  0  0  0  0  0  0  0  0
    1.7563    3.1696   -3.8388 C   0  0  0  1  0  0  0  0  0  0  0  0
    1.8675    3.1319   -5.2451 C   0  0  0  1  0  0  0  0  0  0  0  0
    2.9356    2.4385   -5.8066 C   0  0  0  1  0  0  0  0  0  0  0  0
    0.6021    3.9268   -3.5410 C   0  0  0  1  0  0  0  0  0  0  0  0
    0.0573    4.3165   -4.6584 N   0  0  0  1  0  0  0  0  0  0  0  0
    0.8100    3.8455   -5.7421 N   0  0  0  1  0  0  0  0  0  0  0  0
    0.4691    4.2186   -7.0746 C   0  0  0  1  0  0  0  0  0  0  0  0
    0.3816    5.5559   -7.4123 C   0  0  0  1  0  0  0  0  0  0  0  0
    0.1471    5.9245   -8.7279 C   0  0  0  1  0  0  0  0  0  0  0  0
   -0.0045    4.9546   -9.7009 C   0  0  0  1  0  0  0  0  0  0  0  0
    0.0833    3.6134   -9.3620 C   0  0  0  1  0  0  0  0  0  0  0  0
    0.3171    3.2457   -8.0503 C   0  0  0  1  0  0  0  0  0  0  0  0
   -0.2361    5.3800  -10.9620 O   0  0  0  1  0  0  0  0  0  0  0  0
   -0.3207    6.7886  -11.2288 C   0  0  0  1  0  0  0  0  0  0  0  0
    4.5788    1.2752   -2.9132 N   0  0  0  1  0  0  0  0  0  0  0  0
    4.5034    1.2107   -1.4590 C   0  0  0  1  0  0  0  0  0  0  0  0
    4.9870   -0.1560   -0.9626 C   0  0  0  1  0  0  0  0  0  0  0  0
    6.4516    0.0599   -0.6192 C   0  0  0  1  0  0  0  0  0  0  0  0
    6.4256    1.4507    0.0241 C   0  0  0  1  0  0  0  0  0  0  0  0
    5.4402    2.2517   -0.8315 C   0  0  0  1  0  0  0  0  0  0  0  0
    6.9441   -0.9781    0.3460 N   0  0  0  1  0  0  0  0  0  0  0  0
    3.0515    2.3883   -6.8389 H   0  0  0  1  0  0  0  0  0  0  0  0
    0.2459    4.1384   -2.5871 H   0  0  0  1  0  0  0  0  0  0  0  0
    0.4917    6.2856   -6.6795 H   0  0  0  1  0  0  0  0  0  0  0  0
    0.0852    6.9308   -8.9827 H   0  0  0  1  0  0  0  0  0  0  0  0
   -0.0268    2.8836  -10.0948 H   0  0  0  1  0  0  0  0  0  0  0  0
    0.3790    2.2394   -7.7954 H   0  0  0  1  0  0  0  0  0  0  0  0
    0.5670    7.2724  -10.8785 H   0  0  0  1  0  0  0  0  0  0  0  0
   -1.1717    7.1964  -10.7244 H   0  0  0  1  0  0  0  0  0  0  0  0
   -0.4205    6.9464  -12.2824 H   0  0  0  1  0  0  0  0  0  0  0  0
    5.3370    0.8392   -3.3553 H   0  0  0  1  0  0  0  0  0  0  0  0
    3.4949    1.3831   -1.1456 H   0  0  0  1  0  0  0  0  0  0  0  0
    4.8834   -0.8950   -1.7295 H   0  0  0  1  0  0  0  0  0  0  0  0
    4.4366   -0.4602   -0.0969 H   0  0  0  1  0  0  0  0  0  0  0  0
    7.0625    0.0493   -1.4976 H   0  0  0  1  0  0  0  0  0  0  0  0
    6.0857    1.3922    1.0370 H   0  0  0  1  0  0  0  0  0  0  0  0
    7.3977    1.8971   -0.0012 H   0  0  0  1  0  0  0  0  0  0  0  0
    4.8858    2.9350   -0.2227 H   0  0  0  1  0  0  0  0  0  0  0  0
    5.9609    2.7935   -1.5932 H   0  0  0  1  0  0  0  0  0  0  0  0
    6.8691   -1.8660   -0.0620 H   0  0  0  1  0  0  0  0  0  0  0  0
    6.4031   -0.9474    1.1626 H   0  0  0  1  0  0  0  0  0  0  0  0
  1  2  4  0  0  0  0
  1  6  4  0  0  0  0
  2  3  4  0  0  0  0
  2 18  1  0  0  0  0
  3  4  4  0  0  0  0
  4  5  4  0  0  0  0
  4  7  4  0  0  0  0
  5  6  4  0  0  0  0
  5  9  4  0  0  0  0
  6 25  1  0  0  0  0
  7  8  4  0  0  0  0
  7 26  1  0  0  0  0
  8  9  4  0  0  0  0
  9 10  1  0  0  0  0
 10 11  4  0  0  0  0
 10 15  4  0  0  0  0
 11 12  4  0  0  0  0
 11 27  1  0  0  0  0
 12 13  4  0  0  0  0
 12 28  1  0  0  0  0
 13 14  4  0  0  0  0
 13 16  1  0  0  0  0
 14 15  4  0  0  0  0
 14 29  1  0  0  0  0
 15 30  1  0  0  0  0
 16 17  1  0  0  0  0
 17 31  1  0  0  0  0
 17 32  1  0  0  0  0
 17 33  1  0  0  0  0
 18 19  1  0  0  0  0
 18 34  1  0  0  0  0
 19 20  1  0  0  0  0
 19 23  1  0  0  0  0
 19 35  1  0  0  0  0
 20 21  1  0  0  0  0
 20 36  1  0  0  0  0
 20 37  1  0  0  0  0
 21 22  1  0  0  0  0
 21 24  1  0  0  0  0
 21 38  1  0  0  0  0
 22 23  1  0  0  0  0
 22 39  1  0  0  0  0
 22 40  1  0  0  0  0
 23 41  1  0  0  0  0
 23 42  1  0  0  0  0
 24 43  1  0  0  0  0
 24 44  1  0  0  0  0
M  END
> <ConfClashScore>
0 

> <ConfOneFourInteractionScore>
-0.984337 

> <ConfScore>
-0.134924 

> <ConfScorePBest>
0.00529924 

> <ConfTolerance>
0.233728 

$$$$
c13.sdf
 OpenBabel04162418043D

 44 47  0  0  0  0  0  0  0  0999 V2000
    3.1945    3.0060   -3.1722 N   0  0  0  1  0  0  0  0  0  0  0  0
    4.0284    2.1680   -3.7644 C   0  0  0  1  0  0  0  0  0  0  0  0
    4.2329    2.1757   -5.0618 N   0  0  0  1  0  0  0  0  0  0  0  0
    3.5907    3.0497   -5.8410 C   0  0  0  1  0  0  0  0  0  0  0  0
    2.6929    3.9594   -5.2429 C   0  0  0  1  0  0  0  0  0  0  0  0
    2.5160    3.9051   -3.8635 C   0  0  0  1  0  0  0  0  0  0  0  0
    3.5803    3.3181   -7.2274 C   0  0  0  1  0  0  0  0  0  0  0  0
    2.7546    4.2992   -7.4576 N   0  0  0  1  0  0  0  0  0  0  0  0
    2.1810    4.7282   -6.2535 N   0  0  0  1  0  0  0  0  0  0  0  0
    1.3497    5.8568   -6.1935 C   0  0  0  1  0  0  0  0  0  0  0  0
    0.1487    5.9829   -6.8657 C   0  0  0  1  0  0  0  0  0  0  0  0
   -0.6009    7.1414   -6.7338 C   0  0  0  1  0  0  0  0  0  0  0  0
   -0.1449    8.1725   -5.9343 C   0  0  0  1  0  0  0  0  0  0  0  0
    1.0598    8.0459   -5.2602 C   0  0  0  1  0  0  0  0  0  0  0  0
    1.8073    6.8908   -5.3917 C   0  0  0  1  0  0  0  0  0  0  0  0
   -0.9695    9.2298   -5.7446 O   0  0  0  1  0  0  0  0  0  0  0  0
   -2.1209    9.3253   -6.5977 C   0  0  0  1  0  0  0  0  0  0  0  0
    4.7301    1.2335   -3.0247 N   0  0  0  1  0  0  0  0  0  0  0  0
    4.5069    1.1983   -1.5766 C   0  0  0  1  0  0  0  0  0  0  0  0
    4.8783   -0.1763   -1.0098 C   0  0  0  1  0  0  0  0  0  0  0  0
    6.3499   -0.0524   -0.6147 C   0  0  0  1  0  0  0  0  0  0  0  0
    6.4067    1.3608   -0.0293 C   0  0  0  1  0  0  0  0  0  0  0  0
    5.4330    2.1937   -0.8663 C   0  0  0  1  0  0  0  0  0  0  0  0
    6.7272   -1.0817    0.4100 N   0  0  0  1  0  0  0  0  0  0  0  0
    1.8629    4.5589   -3.3863 H   0  0  0  1  0  0  0  0  0  0  0  0
    4.1394    2.8156   -7.9460 H   0  0  0  1  0  0  0  0  0  0  0  0
   -0.1925    5.2087   -7.4705 H   0  0  0  1  0  0  0  0  0  0  0  0
   -1.5066    7.2347   -7.2364 H   0  0  0  1  0  0  0  0  0  0  0  0
    1.4011    8.8201   -4.6555 H   0  0  0  1  0  0  0  0  0  0  0  0
    2.7130    6.7975   -4.8891 H   0  0  0  1  0  0  0  0  0  0  0  0
   -1.8045    9.4599   -7.6109 H   0  0  0  1  0  0  0  0  0  0  0  0
   -2.7189   10.1601   -6.2971 H   0  0  0  1  0  0  0  0  0  0  0  0
   -2.6971    8.4270   -6.5206 H   0  0  0  1  0  0  0  0  0  0  0  0
    5.3565    0.6147   -3.4551 H   0  0  0  1  0  0  0  0  0  0  0  0
    3.4823    1.4252   -1.3676 H   0  0  0  1  0  0  0  0  0  0  0  0
    4.2770   -0.4063   -0.1551 H   0  0  0  1  0  0  0  0  0  0  0  0
    4.7503   -0.9367   -1.7516 H   0  0  0  1  0  0  0  0  0  0  0  0
    6.9900   -0.1456   -1.4670 H   0  0  0  1  0  0  0  0  0  0  0  0
    7.3978    1.7568   -0.1059 H   0  0  0  1  0  0  0  0  0  0  0  0
    6.1038    1.3521    0.9968 H   0  0  0  1  0  0  0  0  0  0  0  0
    4.8631    2.8418   -0.2338 H   0  0  0  1  0  0  0  0  0  0  0  0
    5.9693    2.7771   -1.5852 H   0  0  0  1  0  0  0  0  0  0  0  0
    6.2513   -0.8997    1.2471 H   0  0  0  1  0  0  0  0  0  0  0  0
    7.6935   -1.0450    0.5692 H   0  0  0  1  0  0  0  0  0  0  0  0
  1  2  4  0  0  0  0
  1  6  4  0  0  0  0
  2  3  4  0  0  0  0
  2 18  1  0  0  0  0
  3  4  4  0  0  0  0
  4  5  4  0  0  0  0
  4  7  4  0  0  0  0
  5  6  4  0  0  0  0
  5  9  4  0  0  0  0
  6 25  1  0  0  0  0
  7  8  4  0  0  0  0
  7 26  1  0  0  0  0
  8  9  4  0  0  0  0
  9 10  1  0  0  0  0
 10 11  4  0  0  0  0
 10 15  4  0  0  0  0
 11 12  4  0  0  0  0
 11 27  1  0  0  0  0
 12 13  4  0  0  0  0
 12 28  1  0  0  0  0
 13 14  4  0  0  0  0
 13 16  1  0  0  0  0
 14 15  4  0  0  0  0
 14 29  1  0  0  0  0
 15 30  1  0  0  0  0
 16 17  1  0  0  0  0
 17 31  1  0  0  0  0
 17 32  1  0  0  0  0
 17 33  1  0  0  0  0
 18 19  1  0  0  0  0
 18 34  1  0  0  0  0
 19 20  1  0  0  0  0
 19 23  1  0  0  0  0
 19 35  1  0  0  0  0
 20 21  1  0  0  0  0
 20 36  1  0  0  0  0
 20 37  1  0  0  0  0
 21 22  1  0  0  0  0
 21 24  1  0  0  0  0
 21 38  1  0  0  0  0
 22 23  1  0  0  0  0
 22 39  1  0  0  0  0
 22 40  1  0  0  0  0
 23 41  1  0  0  0  0
 23 42  1  0  0  0  0
 24 43  1  0  0  0  0
 24 44  1  0  0  0  0
M  END
> <ConfClashScore>
0 

> <ConfOneFourInteractionScore>
-0.984337 

> <ConfScore>
-0.131922 

> <ConfScorePBest>
0.00528591 

> <ConfTolerance>
0.255936 

$$$$
c13.sdf
 OpenBabel04162418043D

 44 47  0  0  0  0  0  0  0  0999 V2000
    3.2714    3.1132   -3.3225 N   0  0  0  1  0  0  0  0  0  0  0  0
    4.2296    2.3238   -3.7774 C   0  0  0  1  0  0  0  0  0  0  0  0
    4.7019    2.4201   -4.9992 N   0  0  0  1  0  0  0  0  0  0  0  0
    4.2182    3.3387   -5.8393 C   0  0  0  1  0  0  0  0  0  0  0  0
    3.1946    4.1987   -5.3875 C   0  0  0  1  0  0  0  0  0  0  0  0
    2.7331    4.0507   -4.0828 C   0  0  0  1  0  0  0  0  0  0  0  0
    4.4933    3.6991   -7.1766 C   0  0  0  1  0  0  0  0  0  0  0  0
    3.7125    4.6864   -7.5131 N   0  0  0  1  0  0  0  0  0  0  0  0
    2.8893    5.0290   -6.4324 N   0  0  0  1  0  0  0  0  0  0  0  0
    1.9640    6.0808   -6.5885 C   0  0  0  1  0  0  0  0  0  0  0  0
    1.8147    7.0812   -5.6467 C   0  0  0  1  0  0  0  0  0  0  0  0
    0.8926    8.0954   -5.8533 C   0  0  0  1  0  0  0  0  0  0  0  0
    0.1188    8.1033   -6.9984 C   0  0  0  1  0  0  0  0  0  0  0  0
    0.2686    7.0998   -7.9429 C   0  0  0  1  0  0  0  0  0  0  0  0
    1.1879    6.0885   -7.7371 C   0  0  0  1  0  0  0  0  0  0  0  0
   -0.7471    9.1364   -7.0876 O   0  0  0  1  0  0  0  0  0  0  0  0
   -1.5420    9.2923   -8.2735 C   0  0  0  1  0  0  0  0  0  0  0  0
    4.7845    1.3638   -3.0071 N   0  0  0  1  0  0  0  0  0  0  0  0
    4.5212    1.2131   -1.5752 C   0  0  0  1  0  0  0  0  0  0  0  0
    4.9381   -0.1821   -1.0970 C   0  0  0  1  0  0  0  0  0  0  0  0
    6.3904   -0.0239   -0.6464 C   0  0  0  1  0  0  0  0  0  0  0  0
    6.3656    1.3436    0.0407 C   0  0  0  1  0  0  0  0  0  0  0  0
    5.3799    2.1927   -0.7653 C   0  0  0  1  0  0  0  0  0  0  0  0
    6.7792   -1.0953    0.3016 N   0  0  0  1  0  0  0  0  0  0  0  0
    1.9799    4.6655   -3.7137 H   0  0  0  1  0  0  0  0  0  0  0  0
    5.2020    3.2506   -7.7915 H   0  0  0  1  0  0  0  0  0  0  0  0
    2.3942    7.0731   -4.7831 H   0  0  0  1  0  0  0  0  0  0  0  0
    0.7831    8.8504   -5.1465 H   0  0  0  1  0  0  0  0  0  0  0  0
   -0.3108    7.1079   -8.8065 H   0  0  0  1  0  0  0  0  0  0  0  0
    1.2975    5.3335   -8.4438 H   0  0  0  1  0  0  0  0  0  0  0  0
   -0.9011    9.3452   -9.1287 H   0  0  0  1  0  0  0  0  0  0  0  0
   -2.1159   10.1926   -8.2021 H   0  0  0  1  0  0  0  0  0  0  0  0
   -2.2013    8.4555   -8.3733 H   0  0  0  1  0  0  0  0  0  0  0  0
    5.4000    0.7304   -3.4318 H   0  0  0  1  0  0  0  0  0  0  0  0
    3.4817    1.3795   -1.3837 H   0  0  0  1  0  0  0  0  0  0  0  0
    4.8666   -0.8908   -1.8954 H   0  0  0  1  0  0  0  0  0  0  0  0
    4.3231   -0.5000   -0.2811 H   0  0  0  1  0  0  0  0  0  0  0  0
    7.0587   -0.0266   -1.4821 H   0  0  0  1  0  0  0  0  0  0  0  0
    7.3395    1.7867    0.0251 H   0  0  0  1  0  0  0  0  0  0  0  0
    6.0336    1.2465    1.0532 H   0  0  0  1  0  0  0  0  0  0  0  0
    4.7629    2.7675   -0.1066 H   0  0  0  1  0  0  0  0  0  0  0  0
    5.9099    2.8500   -1.4226 H   0  0  0  1  0  0  0  0  0  0  0  0
    6.1762   -1.0833    1.0740 H   0  0  0  1  0  0  0  0  0  0  0  0
    7.6995   -0.9459    0.6035 H   0  0  0  1  0  0  0  0  0  0  0  0
  1  2  4  0  0  0  0
  1  6  4  0  0  0  0
  2  3  4  0  0  0  0
  2 18  1  0  0  0  0
  3  4  4  0  0  0  0
  4  5  4  0  0  0  0
  4  7  4  0  0  0  0
  5  6  4  0  0  0  0
  5  9  4  0  0  0  0
  6 25  1  0  0  0  0
  7  8  4  0  0  0  0
  7 26  1  0  0  0  0
  8  9  4  0  0  0  0
  9 10  1  0  0  0  0
 10 11  4  0  0  0  0
 10 15  4  0  0  0  0
 11 12  4  0  0  0  0
 11 27  1  0  0  0  0
 12 13  4  0  0  0  0
 12 28  1  0  0  0  0
 13 14  4  0  0  0  0
 13 16  1  0  0  0  0
 14 15  4  0  0  0  0
 14 29  1  0  0  0  0
 15 30  1  0  0  0  0
 16 17  1  0  0  0  0
 17 31  1  0  0  0  0
 17 32  1  0  0  0  0
 17 33  1  0  0  0  0
 18 19  1  0  0  0  0
 18 34  1  0  0  0  0
 19 20  1  0  0  0  0
 19 23  1  0  0  0  0
 19 35  1  0  0  0  0
 20 21  1  0  0  0  0
 20 36  1  0  0  0  0
 20 37  1  0  0  0  0
 21 22  1  0  0  0  0
 21 24  1  0  0  0  0
 21 38  1  0  0  0  0
 22 23  1  0  0  0  0
 22 39  1  0  0  0  0
 22 40  1  0  0  0  0
 23 41  1  0  0  0  0
 23 42  1  0  0  0  0
 24 43  1  0  0  0  0
 24 44  1  0  0  0  0
M  END
> <ConfClashScore>
0 

> <ConfOneFourInteractionScore>
-0.984337 

> <ConfScore>
-0.131922 

> <ConfScorePBest>
0.00527258 

> <ConfTolerance>
0.331813 

$$$$
c13.sdf
 OpenBabel04162418043D

 44 47  0  0  0  0  0  0  0  0999 V2000
    1.5444    2.2368   -3.0515 N   0  0  0  1  0  0  0  0  0  0  0  0
    2.2558    1.8416   -2.0094 C   0  0  0  1  0  0  0  0  0  0  0  0
    1.7639    1.8068   -0.7921 N   0  0  0  1  0  0  0  0  0  0  0  0
    0.5016    2.1778   -0.5634 C   0  0  0  1  0  0  0  0  0  0  0  0
   -0.2874    2.6054   -1.6525 C   0  0  0  1  0  0  0  0  0  0  0  0
    0.2868    2.6216   -2.9201 C   0  0  0  1  0  0  0  0  0  0  0  0
   -0.3134    2.2578    0.5871 C   0  0  0  1  0  0  0  0  0  0  0  0
   -1.4903    2.6932    0.2369 N   0  0  0  1  0  0  0  0  0  0  0  0
   -1.5189    2.9221   -1.1450 N   0  0  0  1  0  0  0  0  0  0  0  0
   -2.6992    3.4038   -1.7799 C   0  0  0  1  0  0  0  0  0  0  0  0
   -3.1781    4.6655   -1.4820 C   0  0  0  1  0  0  0  0  0  0  0  0
   -4.3239    5.1365   -2.1040 C   0  0  0  1  0  0  0  0  0  0  0  0
   -4.9904    4.3423   -3.0180 C   0  0  0  1  0  0  0  0  0  0  0  0
   -4.5098    3.0768   -3.3167 C   0  0  0  1  0  0  0  0  0  0  0  0
   -3.3674    2.6072   -2.6966 C   0  0  0  1  0  0  0  0  0  0  0  0
   -6.1177    4.6912   -3.6824 O   0  0  0  1  0  0  0  0  0  0  0  0
   -6.6905    5.9719   -3.3756 C   0  0  0  1  0  0  0  0  0  0  0  0
    3.5363    1.4592   -2.2024 N   0  0  0  1  0  0  0  0  0  0  0  0
    4.4371    1.0461   -1.1228 C   0  0  0  1  0  0  0  0  0  0  0  0
    5.2669   -0.1605   -1.5535 C   0  0  0  1  0  0  0  0  0  0  0  0
    6.4764   -0.0925   -0.6016 C   0  0  0  1  0  0  0  0  0  0  0  0
    6.6376    1.3748   -0.2362 C   0  0  0  1  0  0  0  0  0  0  0  0
    5.4419    2.1442   -0.8211 C   0  0  0  1  0  0  0  0  0  0  0  0
    6.2170   -0.9158    0.6358 N   0  0  0  1  0  0  0  0  0  0  0  0
   -0.2626    2.9304   -3.7474 H   0  0  0  1  0  0  0  0  0  0  0  0
   -0.0221    2.0102    1.5543 H   0  0  0  1  0  0  0  0  0  0  0  0
   -2.6790    5.2616   -0.7912 H   0  0  0  1  0  0  0  0  0  0  0  0
   -4.6821    6.0874   -1.8828 H   0  0  0  1  0  0  0  0  0  0  0  0
   -5.0090    2.4808   -4.0075 H   0  0  0  1  0  0  0  0  0  0  0  0
   -3.0092    1.6562   -2.9178 H   0  0  0  1  0  0  0  0  0  0  0  0
   -7.6438    6.0604   -3.8533 H   0  0  0  1  0  0  0  0  0  0  0  0
   -6.0417    6.7462   -3.7285 H   0  0  0  1  0  0  0  0  0  0  0  0
   -6.8126    6.0633   -2.3166 H   0  0  0  1  0  0  0  0  0  0  0  0
    3.8838    1.4579   -3.1187 H   0  0  0  1  0  0  0  0  0  0  0  0
    3.8646    0.8132   -0.2494 H   0  0  0  1  0  0  0  0  0  0  0  0
    4.7216   -1.0715   -1.4207 H   0  0  0  1  0  0  0  0  0  0  0  0
    5.5738   -0.0735   -2.5748 H   0  0  0  1  0  0  0  0  0  0  0  0
    7.3565   -0.4525   -1.0922 H   0  0  0  1  0  0  0  0  0  0  0  0
    7.5496    1.7534   -0.6482 H   0  0  0  1  0  0  0  0  0  0  0  0
    6.6540    1.4841    0.8281 H   0  0  0  1  0  0  0  0  0  0  0  0
    5.7203    2.6651   -1.7133 H   0  0  0  1  0  0  0  0  0  0  0  0
    5.0480    2.8396   -0.1096 H   0  0  0  1  0  0  0  0  0  0  0  0
    5.3663   -0.6425    1.0382 H   0  0  0  1  0  0  0  0  0  0  0  0
    6.9426   -0.7753    1.2794 H   0  0  0  1  0  0  0  0  0  0  0  0
  1  2  4  0  0  0  0
  1  6  4  0  0  0  0
  2  3  4  0  0  0  0
  2 18  1  0  0  0  0
  3  4  4  0  0  0  0
  4  5  4  0  0  0  0
  4  7  4  0  0  0  0
  5  6  4  0  0  0  0
  5  9  4  0  0  0  0
  6 25  1  0  0  0  0
  7  8  4  0  0  0  0
  7 26  1  0  0  0  0
  8  9  4  0  0  0  0
  9 10  1  0  0  0  0
 10 11  4  0  0  0  0
 10 15  4  0  0  0  0
 11 12  4  0  0  0  0
 11 27  1  0  0  0  0
 12 13  4  0  0  0  0
 12 28  1  0  0  0  0
 13 14  4  0  0  0  0
 13 16  1  0  0  0  0
 14 15  4  0  0  0  0
 14 29  1  0  0  0  0
 15 30  1  0  0  0  0
 16 17  1  0  0  0  0
 17 31  1  0  0  0  0
 17 32  1  0  0  0  0
 17 33  1  0  0  0  0
 18 19  1  0  0  0  0
 18 34  1  0  0  0  0
 19 20  1  0  0  0  0
 19 23  1  0  0  0  0
 19 35  1  0  0  0  0
 20 21  1  0  0  0  0
 20 36  1  0  0  0  0
 20 37  1  0  0  0  0
 21 22  1  0  0  0  0
 21 24  1  0  0  0  0
 21 38  1  0  0  0  0
 22 23  1  0  0  0  0
 22 39  1  0  0  0  0
 22 40  1  0  0  0  0
 23 41  1  0  0  0  0
 23 42  1  0  0  0  0
 24 43  1  0  0  0  0
 24 44  1  0  0  0  0
M  END
> <ConfClashScore>
0 

> <ConfOneFourInteractionScore>
-0.984337 

> <ConfScore>
-0.131922 

> <ConfScorePBest>
0.00525926 

> <ConfTolerance>
0.214654 

$$$$
c13.sdf
 OpenBabel04162418043D

 44 47  0  0  0  0  0  0  0  0999 V2000
    4.1850    2.0373   -5.0245 N   0  0  0  1  0  0  0  0  0  0  0  0
    3.8902    1.9943   -3.7362 C   0  0  0  1  0  0  0  0  0  0  0  0
    2.8575    2.6268   -3.2277 N   0  0  0  1  0  0  0  0  0  0  0  0
    2.0548    3.3494   -4.0133 C   0  0  0  1  0  0  0  0  0  0  0  0
    2.3393    3.4176   -5.3938 C   0  0  0  1  0  0  0  0  0  0  0  0
    3.4469    2.7270   -5.8767 C   0  0  0  1  0  0  0  0  0  0  0  0
    0.8968    4.1278   -3.7964 C   0  0  0  1  0  0  0  0  0  0  0  0
    0.5079    4.6261   -4.9356 N   0  0  0  1  0  0  0  0  0  0  0  0
    1.3748    4.2110   -5.9550 N   0  0  0  1  0  0  0  0  0  0  0  0
    1.2146    4.7008   -7.2825 C   0  0  0  1  0  0  0  0  0  0  0  0
    2.3202    4.8718   -8.0941 C   0  0  0  1  0  0  0  0  0  0  0  0
    2.1636    5.3435   -9.3881 C   0  0  0  1  0  0  0  0  0  0  0  0
    0.9026    5.6479   -9.8650 C   0  0  0  1  0  0  0  0  0  0  0  0
   -0.2062    5.4763   -9.0509 C   0  0  0  1  0  0  0  0  0  0  0  0
   -0.0502    5.0060   -7.7607 C   0  0  0  1  0  0  0  0  0  0  0  0
    0.6274    6.1186  -11.1046 O   0  0  0  1  0  0  0  0  0  0  0  0
    1.7387    6.3206  -11.9915 C   0  0  0  1  0  0  0  0  0  0  0  0
    4.6766    1.2762   -2.9144 N   0  0  0  1  0  0  0  0  0  0  0  0
    4.5047    1.2206   -1.4731 C   0  0  0  1  0  0  0  0  0  0  0  0
    4.9247   -0.1851   -0.9354 C   0  0  0  1  0  0  0  0  0  0  0  0
    6.4553    0.0421   -0.6448 C   0  0  0  1  0  0  0  0  0  0  0  0
    6.4629    1.4381   -0.0371 C   0  0  0  1  0  0  0  0  0  0  0  0
    5.4167    2.2446   -0.7942 C   0  0  0  1  0  0  0  0  0  0  0  0
    6.9802   -0.9722    0.3203 N   0  0  0  1  0  0  0  0  0  0  0  0
    3.6890    2.7532   -6.8878 H   0  0  0  1  0  0  0  0  0  0  0  0
    0.4312    4.2784   -2.8787 H   0  0  0  1  0  0  0  0  0  0  0  0
    3.2695    4.6466   -7.7339 H   0  0  0  1  0  0  0  0  0  0  0  0
    2.9951    5.4683  -10.0001 H   0  0  0  1  0  0  0  0  0  0  0  0
   -1.1555    5.7015   -9.4111 H   0  0  0  1  0  0  0  0  0  0  0  0
   -0.8817    4.8811   -7.1486 H   0  0  0  1  0  0  0  0  0  0  0  0
    2.2576    5.3952  -12.1305 H   0  0  0  1  0  0  0  0  0  0  0  0
    2.4053    7.0430  -11.5689 H   0  0  0  1  0  0  0  0  0  0  0  0
    1.3812    6.6740  -12.9361 H   0  0  0  1  0  0  0  0  0  0  0  0
    5.4089    0.7601   -3.3116 H   0  0  0  1  0  0  0  0  0  0  0  0
    3.4822    1.4183   -1.2275 H   0  0  0  1  0  0  0  0  0  0  0  0
    4.7745   -0.9470   -1.6715 H   0  0  0  1  0  0  0  0  0  0  0  0
    4.3902   -0.4393   -0.0440 H   0  0  0  1  0  0  0  0  0  0  0  0
    7.0305    0.0084   -1.5464 H   0  0  0  1  0  0  0  0  0  0  0  0
    7.4281    1.8855   -0.1510 H   0  0  0  1  0  0  0  0  0  0  0  0
    6.2119    1.3902    1.0020 H   0  0  0  1  0  0  0  0  0  0  0  0
    4.8538    2.8521   -0.1167 H   0  0  0  1  0  0  0  0  0  0  0  0
    5.8861    2.8675   -1.5267 H   0  0  0  1  0  0  0  0  0  0  0  0
    6.7651   -1.8724   -0.0019 H   0  0  0  1  0  0  0  0  0  0  0  0
    6.5671   -0.8322    1.1979 H   0  0  0  1  0  0  0  0  0  0  0  0
  1  2  4  0  0  0  0
  1  6  4  0  0  0  0
  2  3  4  0  0  0  0
  2 18  1  0  0  0  0
  3  4  4  0  0  0  0
  4  5  4  0  0  0  0
  4  7  4  0  0  0  0
  5  6  4  0  0  0  0
  5  9  4  0  0  0  0
  6 25  1  0  0  0  0
  7  8  4  0  0  0  0
  7 26  1  0  0  0  0
  8  9  4  0  0  0  0
  9 10  1  0  0  0  0
 10 11  4  0  0  0  0
 10 15  4  0  0  0  0
 11 12  4  0  0  0  0
 11 27  1  0  0  0  0
 12 13  4  0  0  0  0
 12 28  1  0  0  0  0
 13 14  4  0  0  0  0
 13 16  1  0  0  0  0
 14 15  4  0  0  0  0
 14 29  1  0  0  0  0
 15 30  1  0  0  0  0
 16 17  1  0  0  0  0
 17 31  1  0  0  0  0
 17 32  1  0  0  0  0
 17 33  1  0  0  0  0
 18 19  1  0  0  0  0
 18 34  1  0  0  0  0
 19 20  1  0  0  0  0
 19 23  1  0  0  0  0
 19 35  1  0  0  0  0
 20 21  1  0  0  0  0
 20 36  1  0  0  0  0
 20 37  1  0  0  0  0
 21 22  1  0  0  0  0
 21 24  1  0  0  0  0
 21 38  1  0  0  0  0
 22 23  1  0  0  0  0
 22 39  1  0  0  0  0
 22 40  1  0  0  0  0
 23 41  1  0  0  0  0
 23 42  1  0  0  0  0
 24 43  1  0  0  0  0
 24 44  1  0  0  0  0
M  END
> <ConfClashScore>
0 

> <ConfOneFourInteractionScore>
-0.984337 

> <ConfScore>
-0.130267 

> <ConfScorePBest>
0.00524593 

> <ConfTolerance>
0.194032 

$$$$
c13.sdf
 OpenBabel04162418043D

 44 47  0  0  0  0  0  0  0  0999 V2000
    3.0308    2.9094   -3.0637 N   0  0  0  1  0  0  0  0  0  0  0  0
    3.8196    2.0246   -3.6494 C   0  0  0  1  0  0  0  0  0  0  0  0
    3.9856    1.9808   -4.9515 N   0  0  0  1  0  0  0  0  0  0  0  0
    3.3486    2.8479   -5.7426 C   0  0  0  1  0  0  0  0  0  0  0  0
    2.4983    3.8067   -5.1517 C   0  0  0  1  0  0  0  0  0  0  0  0
    2.3608    3.8059   -3.7667 C   0  0  0  1  0  0  0  0  0  0  0  0
    3.3055    3.0685   -7.1367 C   0  0  0  1  0  0  0  0  0  0  0  0
    2.5049    4.0675   -7.3779 N   0  0  0  1  0  0  0  0  0  0  0  0
    1.9812    4.5564   -6.1739 N   0  0  0  1  0  0  0  0  0  0  0  0
    0.9734    5.5490   -6.1780 C   0  0  0  1  0  0  0  0  0  0  0  0
   -0.0528    5.4955   -5.2538 C   0  0  0  1  0  0  0  0  0  0  0  0
   -1.0375    6.4711   -5.2545 C   0  0  0  1  0  0  0  0  0  0  0  0
   -0.9960    7.4945   -6.1826 C   0  0  0  1  0  0  0  0  0  0  0  0
    0.0334    7.5480   -7.1094 C   0  0  0  1  0  0  0  0  0  0  0  0
    1.0153    6.5752   -7.1089 C   0  0  0  1  0  0  0  0  0  0  0  0
   -1.9009    8.4969   -6.2831 O   0  0  0  1  0  0  0  0  0  0  0  0
   -2.8287    8.6546   -5.1983 C   0  0  0  1  0  0  0  0  0  0  0  0
    4.4868    1.1226   -2.8733 N   0  0  0  1  0  0  0  0  0  0  0  0
    4.4622    1.1984   -1.4179 C   0  0  0  1  0  0  0  0  0  0  0  0
    4.9076   -0.1333   -0.8038 C   0  0  0  1  0  0  0  0  0  0  0  0
    6.4191    0.0054   -0.6218 C   0  0  0  1  0  0  0  0  0  0  0  0
    6.5542    1.4579   -0.1586 C   0  0  0  1  0  0  0  0  0  0  0  0
    5.4756    2.2351   -0.9169 C   0  0  0  1  0  0  0  0  0  0  0  0
    6.9227   -0.9299    0.3982 N   0  0  0  1  0  0  0  0  0  0  0  0
    1.7433    4.4968   -3.2946 H   0  0  0  1  0  0  0  0  0  0  0  0
    3.8268    2.5234   -7.8528 H   0  0  0  1  0  0  0  0  0  0  0  0
   -0.0863    4.7232   -4.5580 H   0  0  0  1  0  0  0  0  0  0  0  0
   -1.8075    6.4331   -4.5565 H   0  0  0  1  0  0  0  0  0  0  0  0
    0.0669    8.3202   -7.8052 H   0  0  0  1  0  0  0  0  0  0  0  0
    1.7853    6.6132   -7.8069 H   0  0  0  1  0  0  0  0  0  0  0  0
   -3.5075    9.4509   -5.4218 H   0  0  0  1  0  0  0  0  0  0  0  0
   -2.2925    8.8846   -4.3013 H   0  0  0  1  0  0  0  0  0  0  0  0
   -3.3772    7.7459   -5.0634 H   0  0  0  1  0  0  0  0  0  0  0  0
    4.9959    0.4053   -3.3054 H   0  0  0  1  0  0  0  0  0  0  0  0
    3.4753    1.4505   -1.0900 H   0  0  0  1  0  0  0  0  0  0  0  0
    4.4278   -0.2924    0.1393 H   0  0  0  1  0  0  0  0  0  0  0  0
    4.6804   -0.9461   -1.4616 H   0  0  0  1  0  0  0  0  0  0  0  0
    6.9377   -0.1581   -1.5434 H   0  0  0  1  0  0  0  0  0  0  0  0
    7.5256    1.8373   -0.3982 H   0  0  0  1  0  0  0  0  0  0  0  0
    6.3932    1.5295    0.8968 H   0  0  0  1  0  0  0  0  0  0  0  0
    5.9093    2.7574   -1.7440 H   0  0  0  1  0  0  0  0  0  0  0  0
    4.9966    2.9347   -0.2642 H   0  0  0  1  0  0  0  0  0  0  0  0
    6.8325   -1.8496    0.0718 H   0  0  0  1  0  0  0  0  0  0  0  0
    6.4039   -0.8239    1.2229 H   0  0  0  1  0  0  0  0  0  0  0  0
  1  2  4  0  0  0  0
  1  6  4  0  0  0  0
  2  3  4  0  0  0  0
  2 18  1  0  0  0  0
  3  4  4  0  0  0  0
  4  5  4  0  0  0  0
  4  7  4  0  0  0  0
  5  6  4  0  0  0  0
  5  9  4  0  0  0  0
  6 25  1  0  0  0  0
  7  8  4  0  0  0  0
  7 26  1  0  0  0  0
  8  9  4  0  0  0  0
  9 10  1  0  0  0  0
 10 11  4  0  0  0  0
 10 15  4  0  0  0  0
 11 12  4  0  0  0  0
 11 27  1  0  0  0  0
 12 13  4  0  0  0  0
 12 28  1  0  0  0  0
 13 14  4  0  0  0  0
 13 16  1  0  0  0  0
 14 15  4  0  0  0  0
 14 29  1  0  0  0  0
 15 30  1  0  0  0  0
 16 17  1  0  0  0  0
 17 31  1  0  0  0  0
 17 32  1  0  0  0  0
 17 33  1  0  0  0  0
 18 19  1  0  0  0  0
 18 34  1  0  0  0  0
 19 20  1  0  0  0  0
 19 23  1  0  0  0  0
 19 35  1  0  0  0  0
 20 21  1  0  0  0  0
 20 36  1  0  0  0  0
 20 37  1  0  0  0  0
 21 22  1  0  0  0  0
 21 24  1  0  0  0  0
 21 38  1  0  0  0  0
 22 23  1  0  0  0  0
 22 39  1  0  0  0  0
 22 40  1  0  0  0  0
 23 41  1  0  0  0  0
 23 42  1  0  0  0  0
 24 43  1  0  0  0  0
 24 44  1  0  0  0  0
M  END
> <ConfClashScore>
0 

> <ConfOneFourInteractionScore>
-0.984337 

> <ConfScore>
-0.130267 

> <ConfScorePBest>
0.0052326 

> <ConfTolerance>
0.220591 

$$$$
c13.sdf
 OpenBabel04162418043D

 44 47  0  0  0  0  0  0  0  0999 V2000
    2.0177    2.1812   -0.4402 N   0  0  0  1  0  0  0  0  0  0  0  0
    2.2663    1.9883   -1.7245 C   0  0  0  1  0  0  0  0  0  0  0  0
    1.4170    2.3303   -2.6662 N   0  0  0  1  0  0  0  0  0  0  0  0
    0.2496    2.8961   -2.3492 C   0  0  0  1  0  0  0  0  0  0  0  0
   -0.0493    3.1172   -0.9879 C   0  0  0  1  0  0  0  0  0  0  0  0
    0.8885    2.7345   -0.0334 C   0  0  0  1  0  0  0  0  0  0  0  0
   -0.8546    3.3693   -3.0914 C   0  0  0  1  0  0  0  0  0  0  0  0
   -1.7460    3.8363   -2.2639 N   0  0  0  1  0  0  0  0  0  0  0  0
   -1.2876    3.6998   -0.9471 N   0  0  0  1  0  0  0  0  0  0  0  0
   -2.1127    4.0483    0.1327 C   0  0  0  1  0  0  0  0  0  0  0  0
   -3.2082    4.8863    0.0440 C   0  0  0  1  0  0  0  0  0  0  0  0
   -3.9624    5.1627    1.1737 C   0  0  0  1  0  0  0  0  0  0  0  0
   -3.6159    4.6047    2.3898 C   0  0  0  1  0  0  0  0  0  0  0  0
   -2.5170    3.7642    2.4785 C   0  0  0  1  0  0  0  0  0  0  0  0
   -1.7650    3.4885    1.3522 C   0  0  0  1  0  0  0  0  0  0  0  0
   -4.3069    4.8381    3.5307 O   0  0  0  1  0  0  0  0  0  0  0  0
   -3.6811    4.4584    4.7663 C   0  0  0  1  0  0  0  0  0  0  0  0
    3.4653    1.4046   -2.0914 N   0  0  0  1  0  0  0  0  0  0  0  0
    4.4226    1.0810   -1.0300 C   0  0  0  1  0  0  0  0  0  0  0  0
    5.2642   -0.1417   -1.3959 C   0  0  0  1  0  0  0  0  0  0  0  0
    6.5241   -0.0242   -0.5311 C   0  0  0  1  0  0  0  0  0  0  0  0
    6.7128    1.4791   -0.2915 C   0  0  0  1  0  0  0  0  0  0  0  0
    5.4867    2.1723   -0.8902 C   0  0  0  1  0  0  0  0  0  0  0  0
    6.3365   -0.7408    0.7658 N   0  0  0  1  0  0  0  0  0  0  0  0
    0.7044    2.8810    0.9797 H   0  0  0  1  0  0  0  0  0  0  0  0
   -0.9419    3.3485   -4.1275 H   0  0  0  1  0  0  0  0  0  0  0  0
   -3.4667    5.3094   -0.8702 H   0  0  0  1  0  0  0  0  0  0  0  0
   -4.7892    5.7900    1.1063 H   0  0  0  1  0  0  0  0  0  0  0  0
   -2.2586    3.3411    3.3927 H   0  0  0  1  0  0  0  0  0  0  0  0
   -0.9382    2.8612    1.4196 H   0  0  0  1  0  0  0  0  0  0  0  0
   -2.7229    4.9290    4.8408 H   0  0  0  1  0  0  0  0  0  0  0  0
   -3.5592    3.3957    4.7923 H   0  0  0  1  0  0  0  0  0  0  0  0
   -4.2947    4.7678    5.5865 H   0  0  0  1  0  0  0  0  0  0  0  0
    3.6681    1.2136   -3.0310 H   0  0  0  1  0  0  0  0  0  0  0  0
    3.8981    0.9301   -0.1097 H   0  0  0  1  0  0  0  0  0  0  0  0
    4.7353   -1.0441   -1.1703 H   0  0  0  1  0  0  0  0  0  0  0  0
    5.5181   -0.1268   -2.4352 H   0  0  0  1  0  0  0  0  0  0  0  0
    7.3701   -0.4308   -1.0447 H   0  0  0  1  0  0  0  0  0  0  0  0
    6.7760    1.6809    0.7574 H   0  0  0  1  0  0  0  0  0  0  0  0
    7.6037    1.8213   -0.7753 H   0  0  0  1  0  0  0  0  0  0  0  0
    5.1420    2.9485   -0.2394 H   0  0  0  1  0  0  0  0  0  0  0  0
    5.7233    2.5877   -1.8475 H   0  0  0  1  0  0  0  0  0  0  0  0
    6.3608   -1.7083    0.6115 H   0  0  0  1  0  0  0  0  0  0  0  0
    5.4710   -0.4936    1.1532 H   0  0  0  1  0  0  0  0  0  0  0  0
  1  2  4  0  0  0  0
  1  6  4  0  0  0  0
  2  3  4  0  0  0  0
  2 18  1  0  0  0  0
  3  4  4  0  0  0  0
  4  5  4  0  0  0  0
  4  7  4  0  0  0  0
  5  6  4  0  0  0  0
  5  9  4  0  0  0  0
  6 25  1  0  0  0  0
  7  8  4  0  0  0  0
  7 26  1  0  0  0  0
  8  9  4  0  0  0  0
  9 10  1  0  0  0  0
 10 11  4  0  0  0  0
 10 15  4  0  0  0  0
 11 12  4  0  0  0  0
 11 27  1  0  0  0  0
 12 13  4  0  0  0  0
 12 28  1  0  0  0  0
 13 14  4  0  0  0  0
 13 16  1  0  0  0  0
 14 15  4  0  0  0  0
 14 29  1  0  0  0  0
 15 30  1  0  0  0  0
 16 17  1  0  0  0  0
 17 31  1  0  0  0  0
 17 32  1  0  0  0  0
 17 33  1  0  0  0  0
 18 19  1  0  0  0  0
 18 34  1  0  0  0  0
 19 20  1  0  0  0  0
 19 23  1  0  0  0  0
 19 35  1  0  0  0  0
 20 21  1  0  0  0  0
 20 36  1  0  0  0  0
 20 37  1  0  0  0  0
 21 22  1  0  0  0  0
 21 24  1  0  0  0  0
 21 38  1  0  0  0  0
 22 23  1  0  0  0  0
 22 39  1  0  0  0  0
 22 40  1  0  0  0  0
 23 41  1  0  0  0  0
 23 42  1  0  0  0  0
 24 43  1  0  0  0  0
 24 44  1  0  0  0  0
M  END
> <ConfClashScore>
0 

> <ConfOneFourInteractionScore>
-0.984337 

> <ConfScore>
-0.13004 

> <ConfScorePBest>
0.00521927 

> <ConfTolerance>
0.294415 

$$$$
c13.sdf
 OpenBabel04162418043D

 44 47  0  0  0  0  0  0  0  0999 V2000
    2.4559    2.1807   -4.3383 N   0  0  0  1  0  0  0  0  0  0  0  0
    2.7224    2.0992   -3.0457 C   0  0  0  1  0  0  0  0  0  0  0  0
    1.9166    2.5819   -2.1278 N   0  0  0  1  0  0  0  0  0  0  0  0
    0.7773    3.1838   -2.4789 C   0  0  0  1  0  0  0  0  0  0  0  0
    0.4604    3.2887   -3.8500 C   0  0  0  1  0  0  0  0  0  0  0  0
    1.3519    2.7590   -4.7782 C   0  0  0  1  0  0  0  0  0  0  0  0
   -0.2799    3.7930   -1.7680 C   0  0  0  1  0  0  0  0  0  0  0  0
   -1.1614    4.2300   -2.6220 N   0  0  0  1  0  0  0  0  0  0  0  0
   -0.7423    3.9385   -3.9267 N   0  0  0  1  0  0  0  0  0  0  0  0
   -1.5352    4.3144   -5.0483 C   0  0  0  1  0  0  0  0  0  0  0  0
   -2.8657    4.6430   -4.8695 C   0  0  0  1  0  0  0  0  0  0  0  0
   -3.6157    5.1034   -5.9404 C   0  0  0  1  0  0  0  0  0  0  0  0
   -3.0345    5.2289   -7.1882 C   0  0  0  1  0  0  0  0  0  0  0  0
   -1.7001    4.8992   -7.3673 C   0  0  0  1  0  0  0  0  0  0  0  0
   -0.9521    4.4401   -6.2995 C   0  0  0  1  0  0  0  0  0  0  0  0
   -3.8555    5.6770   -8.1450 O   0  0  0  1  0  0  0  0  0  0  0  0
   -3.3764    5.9596   -9.4995 C   0  0  0  1  0  0  0  0  0  0  0  0
    3.8614    1.4995   -2.6548 N   0  0  0  1  0  0  0  0  0  0  0  0
    4.4088    1.1911   -1.3304 C   0  0  0  1  0  0  0  0  0  0  0  0
    5.1049   -0.1797   -1.3273 C   0  0  0  1  0  0  0  0  0  0  0  0
    6.4211   -0.0366   -0.5792 C   0  0  0  1  0  0  0  0  0  0  0  0
    6.4199    1.3871    0.0095 C   0  0  0  1  0  0  0  0  0  0  0  0
    5.5294    2.1498   -0.9677 C   0  0  0  1  0  0  0  0  0  0  0  0
    6.5100   -1.0516    0.5152 N   0  0  0  1  0  0  0  0  0  0  0  0
    1.1534    2.8170   -5.7974 H   0  0  0  1  0  0  0  0  0  0  0  0
   -0.3442    3.8786   -0.7335 H   0  0  0  1  0  0  0  0  0  0  0  0
   -3.3042    4.5448   -3.9315 H   0  0  0  1  0  0  0  0  0  0  0  0
   -4.6158    5.3545   -5.8051 H   0  0  0  1  0  0  0  0  0  0  0  0
   -1.2616    4.9974   -8.3052 H   0  0  0  1  0  0  0  0  0  0  0  0
    0.0480    4.1890   -6.4349 H   0  0  0  1  0  0  0  0  0  0  0  0
   -2.5835    6.6768   -9.4556 H   0  0  0  1  0  0  0  0  0  0  0  0
   -4.1799    6.3521  -10.0871 H   0  0  0  1  0  0  0  0  0  0  0  0
   -3.0157    5.0564   -9.9456 H   0  0  0  1  0  0  0  0  0  0  0  0
    4.4344    1.2145   -3.3969 H   0  0  0  1  0  0  0  0  0  0  0  0
    3.6247    1.2249   -0.6032 H   0  0  0  1  0  0  0  0  0  0  0  0
    4.4849   -0.9006   -0.8365 H   0  0  0  1  0  0  0  0  0  0  0  0
    5.2913   -0.4945   -2.3328 H   0  0  0  1  0  0  0  0  0  0  0  0
    7.2455   -0.1613   -1.2498 H   0  0  0  1  0  0  0  0  0  0  0  0
    6.0069    1.3966    0.9965 H   0  0  0  1  0  0  0  0  0  0  0  0
    7.4082    1.7966    0.0318 H   0  0  0  1  0  0  0  0  0  0  0  0
    5.1334    3.0291   -0.5042 H   0  0  0  1  0  0  0  0  0  0  0  0
    6.0830    2.4249   -1.8411 H   0  0  0  1  0  0  0  0  0  0  0  0
    5.8626   -0.8328    1.2176 H   0  0  0  1  0  0  0  0  0  0  0  0
    7.4146   -1.0470    0.8919 H   0  0  0  1  0  0  0  0  0  0  0  0
  1  2  4  0  0  0  0
  1  6  4  0  0  0  0
  2  3  4  0  0  0  0
  2 18  1  0  0  0  0
  3  4  4  0  0  0  0
  4  5  4  0  0  0  0
  4  7  4  0  0  0  0
  5  6  4  0  0  0  0
  5  9  4  0  0  0  0
  6 25  1  0  0  0  0
  7  8  4  0  0  0  0
  7 26  1  0  0  0  0
  8  9  4  0  0  0  0
  9 10  1  0  0  0  0
 10 11  4  0  0  0  0
 10 15  4  0  0  0  0
 11 12  4  0  0  0  0
 11 27  1  0  0  0  0
 12 13  4  0  0  0  0
 12 28  1  0  0  0  0
 13 14  4  0  0  0  0
 13 16  1  0  0  0  0
 14 15  4  0  0  0  0
 14 29  1  0  0  0  0
 15 30  1  0  0  0  0
 16 17  1  0  0  0  0
 17 31  1  0  0  0  0
 17 32  1  0  0  0  0
 17 33  1  0  0  0  0
 18 19  1  0  0  0  0
 18 34  1  0  0  0  0
 19 20  1  0  0  0  0
 19 23  1  0  0  0  0
 19 35  1  0  0  0  0
 20 21  1  0  0  0  0
 20 36  1  0  0  0  0
 20 37  1  0  0  0  0
 21 22  1  0  0  0  0
 21 24  1  0  0  0  0
 21 38  1  0  0  0  0
 22 23  1  0  0  0  0
 22 39  1  0  0  0  0
 22 40  1  0  0  0  0
 23 41  1  0  0  0  0
 23 42  1  0  0  0  0
 24 43  1  0  0  0  0
 24 44  1  0  0  0  0
M  END
> <ConfClashScore>
0 

> <ConfOneFourInteractionScore>
-0.984337 

> <ConfScore>
-0.127265 

> <ConfScorePBest>
0.00520594 

> <ConfTolerance>
0.310819 

$$$$
c13.sdf
 OpenBabel04162418043D

 44 47  0  0  0  0  0  0  0  0999 V2000
    2.0389    2.5124   -0.7965 N   0  0  0  1  0  0  0  0  0  0  0  0
    2.3832    2.1703   -2.0264 C   0  0  0  1  0  0  0  0  0  0  0  0
    1.6683    2.5022   -3.0770 N   0  0  0  1  0  0  0  0  0  0  0  0
    0.5460    3.2115   -2.9329 C   0  0  0  1  0  0  0  0  0  0  0  0
    0.1478    3.5942   -1.6343 C   0  0  0  1  0  0  0  0  0  0  0  0
    0.9446    3.2143   -0.5583 C   0  0  0  1  0  0  0  0  0  0  0  0
   -0.4253    3.7187   -3.8236 C   0  0  0  1  0  0  0  0  0  0  0  0
   -1.3330    4.3523   -3.1366 N   0  0  0  1  0  0  0  0  0  0  0  0
   -1.0171    4.3002   -1.7726 N   0  0  0  1  0  0  0  0  0  0  0  0
   -1.8566    4.9208   -0.8064 C   0  0  0  1  0  0  0  0  0  0  0  0
   -2.3345    6.1993   -1.0242 C   0  0  0  1  0  0  0  0  0  0  0  0
   -3.0797    6.8367   -0.0445 C   0  0  0  1  0  0  0  0  0  0  0  0
   -3.3406    6.1959    1.1521 C   0  0  0  1  0  0  0  0  0  0  0  0
   -2.8612    4.9136    1.3702 C   0  0  0  1  0  0  0  0  0  0  0  0
   -2.1181    4.2780    0.3935 C   0  0  0  1  0  0  0  0  0  0  0  0
   -4.0725    6.9182    2.0332 O   0  0  0  1  0  0  0  0  0  0  0  0
   -4.1685    6.4146    3.3747 C   0  0  0  1  0  0  0  0  0  0  0  0
    3.5078    1.4553   -2.2100 N   0  0  0  1  0  0  0  0  0  0  0  0
    4.3996    1.0442   -1.1246 C   0  0  0  1  0  0  0  0  0  0  0  0
    5.2709   -0.1409   -1.5413 C   0  0  0  1  0  0  0  0  0  0  0  0
    6.4746   -0.0957   -0.5936 C   0  0  0  1  0  0  0  0  0  0  0  0
    6.6374    1.3819   -0.2151 C   0  0  0  1  0  0  0  0  0  0  0  0
    5.4452    2.1216   -0.8266 C   0  0  0  1  0  0  0  0  0  0  0  0
    6.2154   -0.9145    0.6131 N   0  0  0  1  0  0  0  0  0  0  0  0
    0.6842    3.4774    0.4136 H   0  0  0  1  0  0  0  0  0  0  0  0
   -0.4174    3.6052   -4.8574 H   0  0  0  1  0  0  0  0  0  0  0  0
   -2.1348    6.6831   -1.9229 H   0  0  0  1  0  0  0  0  0  0  0  0
   -3.4427    7.7971   -0.2098 H   0  0  0  1  0  0  0  0  0  0  0  0
   -3.0608    4.4298    2.2690 H   0  0  0  1  0  0  0  0  0  0  0  0
   -1.7551    3.3175    0.5588 H   0  0  0  1  0  0  0  0  0  0  0  0
   -4.5589    5.4186    3.3553 H   0  0  0  1  0  0  0  0  0  0  0  0
   -4.8210    7.0421    3.9451 H   0  0  0  1  0  0  0  0  0  0  0  0
   -3.1970    6.4080    3.8233 H   0  0  0  1  0  0  0  0  0  0  0  0
    3.7440    1.1943   -3.1246 H   0  0  0  1  0  0  0  0  0  0  0  0
    3.8208    0.8137   -0.2547 H   0  0  0  1  0  0  0  0  0  0  0  0
    4.7357   -1.0604   -1.4268 H   0  0  0  1  0  0  0  0  0  0  0  0
    5.5878   -0.0363   -2.5579 H   0  0  0  1  0  0  0  0  0  0  0  0
    7.3534   -0.4549   -1.0871 H   0  0  0  1  0  0  0  0  0  0  0  0
    6.6347    1.4930    0.8491 H   0  0  0  1  0  0  0  0  0  0  0  0
    7.5537    1.7661   -0.6120 H   0  0  0  1  0  0  0  0  0  0  0  0
    5.7369    2.6181   -1.7285 H   0  0  0  1  0  0  0  0  0  0  0  0
    5.0557    2.8383   -0.1342 H   0  0  0  1  0  0  0  0  0  0  0  0
    5.4045   -0.5922    1.0592 H   0  0  0  1  0  0  0  0  0  0  0  0
    6.9762   -0.8418    1.2265 H   0  0  0  1  0  0  0  0  0  0  0  0
  1  2  4  0  0  0  0
  1  6  4  0  0  0  0
  2  3  4  0  0  0  0
  2 18  1  0  0  0  0
  3  4  4  0  0  0  0
  4  5  4  0  0  0  0
  4  7  4  0  0  0  0
  5  6  4  0  0  0  0
  5  9  4  0  0  0  0
  6 25  1  0  0  0  0
  7  8  4  0  0  0  0
  7 26  1  0  0  0  0
  8  9  4  0  0  0  0
  9 10  1  0  0  0  0
 10 11  4  0  0  0  0
 10 15  4  0  0  0  0
 11 12  4  0  0  0  0
 11 27  1  0  0  0  0
 12 13  4  0  0  0  0
 12 28  1  0  0  0  0
 13 14  4  0  0  0  0
 13 16  1  0  0  0  0
 14 15  4  0  0  0  0
 14 29  1  0  0  0  0
 15 30  1  0  0  0  0
 16 17  1  0  0  0  0
 17 31  1  0  0  0  0
 17 32  1  0  0  0  0
 17 33  1  0  0  0  0
 18 19  1  0  0  0  0
 18 34  1  0  0  0  0
 19 20  1  0  0  0  0
 19 23  1  0  0  0  0
 19 35  1  0  0  0  0
 20 21  1  0  0  0  0
 20 36  1  0  0  0  0
 20 37  1  0  0  0  0
 21 22  1  0  0  0  0
 21 24  1  0  0  0  0
 21 38  1  0  0  0  0
 22 23  1  0  0  0  0
 22 39  1  0  0  0  0
 22 40  1  0  0  0  0
 23 41  1  0  0  0  0
 23 42  1  0  0  0  0
 24 43  1  0  0  0  0
 24 44  1  0  0  0  0
M  END
> <ConfClashScore>
0 

> <ConfOneFourInteractionScore>
-0.984337 

> <ConfScore>
-0.124584 

> <ConfScorePBest>
0.00519261 

> <ConfTolerance>
0.193606 

$$$$
c13.sdf
 OpenBabel04162418043D

 44 47  0  0  0  0  0  0  0  0999 V2000
    1.7419    2.3034   -1.2813 N   0  0  0  1  0  0  0  0  0  0  0  0
    2.3265    1.9581   -2.4159 C   0  0  0  1  0  0  0  0  0  0  0  0
    1.7388    2.0961   -3.5824 N   0  0  0  1  0  0  0  0  0  0  0  0
    0.5048    2.6007   -3.6609 C   0  0  0  1  0  0  0  0  0  0  0  0
   -0.1497    2.9801   -2.4697 C   0  0  0  1  0  0  0  0  0  0  0  0
    0.5218    2.8111   -1.2624 C   0  0  0  1  0  0  0  0  0  0  0  0
   -0.3868    2.8742   -4.7212 C   0  0  0  1  0  0  0  0  0  0  0  0
   -1.4838    3.3740   -4.2272 N   0  0  0  1  0  0  0  0  0  0  0  0
   -1.3805    3.4576   -2.8325 N   0  0  0  1  0  0  0  0  0  0  0  0
   -2.4538    3.9734   -2.0515 C   0  0  0  1  0  0  0  0  0  0  0  0
   -3.7461    3.5412   -2.2822 C   0  0  0  1  0  0  0  0  0  0  0  0
   -4.7901    4.0393   -1.5184 C   0  0  0  1  0  0  0  0  0  0  0  0
   -4.5395    4.9721   -0.5298 C   0  0  0  1  0  0  0  0  0  0  0  0
   -3.2433    5.4056   -0.2986 C   0  0  0  1  0  0  0  0  0  0  0  0
   -2.2022    4.9090   -1.0601 C   0  0  0  1  0  0  0  0  0  0  0  0
   -5.5142    5.5015    0.2472 O   0  0  0  1  0  0  0  0  0  0  0  0
   -6.8405    4.9748    0.0860 C   0  0  0  1  0  0  0  0  0  0  0  0
    3.5698    1.4462   -2.3755 N   0  0  0  1  0  0  0  0  0  0  0  0
    4.3774    1.0868   -1.2056 C   0  0  0  1  0  0  0  0  0  0  0  0
    5.2684   -0.1663   -1.5049 C   0  0  0  1  0  0  0  0  0  0  0  0
    6.4340   -0.0268   -0.4686 C   0  0  0  1  0  0  0  0  0  0  0  0
    6.5704    1.4923   -0.1665 C   0  0  0  1  0  0  0  0  0  0  0  0
    5.4026    2.1914   -0.8845 C   0  0  0  1  0  0  0  0  0  0  0  0
    6.1099   -0.7671    0.7684 N   0  0  0  1  0  0  0  0  0  0  0  0
    0.0725    3.0788   -0.3635 H   0  0  0  1  0  0  0  0  0  0  0  0
   -0.1987    2.7047   -5.7299 H   0  0  0  1  0  0  0  0  0  0  0  0
   -3.9353    2.8422   -3.0287 H   0  0  0  1  0  0  0  0  0  0  0  0
   -5.7620    3.7111   -1.6892 H   0  0  0  1  0  0  0  0  0  0  0  0
   -3.0541    6.1045    0.4480 H   0  0  0  1  0  0  0  0  0  0  0  0
   -1.2303    5.2371   -0.8893 H   0  0  0  1  0  0  0  0  0  0  0  0
   -7.5353    5.5863    0.6229 H   0  0  0  1  0  0  0  0  0  0  0  0
   -6.8760    3.9757    0.4676 H   0  0  0  1  0  0  0  0  0  0  0  0
   -7.0983    4.9699   -0.9525 H   0  0  0  1  0  0  0  0  0  0  0  0
    3.9932    1.2927   -3.2459 H   0  0  0  1  0  0  0  0  0  0  0  0
    3.7346    0.9074   -0.3693 H   0  0  0  1  0  0  0  0  0  0  0  0
    5.6408   -0.1423   -2.5077 H   0  0  0  1  0  0  0  0  0  0  0  0
    4.7216   -1.0727   -1.3485 H   0  0  0  1  0  0  0  0  0  0  0  0
    7.3451   -0.4052   -0.8830 H   0  0  0  1  0  0  0  0  0  0  0  0
    6.5119    1.6653    0.8877 H   0  0  0  1  0  0  0  0  0  0  0  0
    7.5044    1.8596   -0.5375 H   0  0  0  1  0  0  0  0  0  0  0  0
    5.7448    2.6542   -1.7865 H   0  0  0  1  0  0  0  0  0  0  0  0
    4.9644    2.9311   -0.2476 H   0  0  0  1  0  0  0  0  0  0  0  0
    6.7509   -0.5282    1.4701 H   0  0  0  1  0  0  0  0  0  0  0  0
    6.1596   -1.7303    0.5950 H   0  0  0  1  0  0  0  0  0  0  0  0
  1  2  4  0  0  0  0
  1  6  4  0  0  0  0
  2  3  4  0  0  0  0
  2 18  1  0  0  0  0
  3  4  4  0  0  0  0
  4  5  4  0  0  0  0
  4  7  4  0  0  0  0
  5  6  4  0  0  0  0
  5  9  4  0  0  0  0
  6 25  1  0  0  0  0
  7  8  4  0  0  0  0
  7 26  1  0  0  0  0
  8  9  4  0  0  0  0
  9 10  1  0  0  0  0
 10 11  4  0  0  0  0
 10 15  4  0  0  0  0
 11 12  4  0  0  0  0
 11 27  1  0  0  0  0
 12 13  4  0  0  0  0
 12 28  1  0  0  0  0
 13 14  4  0  0  0  0
 13 16  1  0  0  0  0
 14 15  4  0  0  0  0
 14 29  1  0  0  0  0
 15 30  1  0  0  0  0
 16 17  1  0  0  0  0
 17 31  1  0  0  0  0
 17 32  1  0  0  0  0
 17 33  1  0  0  0  0
 18 19  1  0  0  0  0
 18 34  1  0  0  0  0
 19 20  1  0  0  0  0
 19 23  1  0  0  0  0
 19 35  1  0  0  0  0
 20 21  1  0  0  0  0
 20 36  1  0  0  0  0
 20 37  1  0  0  0  0
 21 22  1  0  0  0  0
 21 24  1  0  0  0  0
 21 38  1  0  0  0  0
 22 23  1  0  0  0  0
 22 39  1  0  0  0  0
 22 40  1  0  0  0  0
 23 41  1  0  0  0  0
 23 42  1  0  0  0  0
 24 43  1  0  0  0  0
 24 44  1  0  0  0  0
M  END
> <ConfClashScore>
0 

> <ConfOneFourInteractionScore>
-0.984337 

> <ConfScore>
-0.117562 

> <ConfScorePBest>
0.00517929 

> <ConfTolerance>
0.211233 

$$$$
c13.sdf
 OpenBabel04162418043D

 44 47  0  0  0  0  0  0  0  0999 V2000
    2.6586    2.4791   -2.8833 N   0  0  0  1  0  0  0  0  0  0  0  0
    3.6466    1.9593   -3.5919 C   0  0  0  1  0  0  0  0  0  0  0  0
    3.6974    2.0473   -4.9014 N   0  0  0  1  0  0  0  0  0  0  0  0
    2.7312    2.6785   -5.5734 C   0  0  0  1  0  0  0  0  0  0  0  0
    1.6609    3.2456   -4.8494 C   0  0  0  1  0  0  0  0  0  0  0  0
    1.6597    3.1214   -3.4632 C   0  0  0  1  0  0  0  0  0  0  0  0
    2.4873    2.9455   -6.9384 C   0  0  0  1  0  0  0  0  0  0  0  0
    1.3732    3.6130   -7.0418 N   0  0  0  1  0  0  0  0  0  0  0  0
    0.8260    3.8216   -5.7690 N   0  0  0  1  0  0  0  0  0  0  0  0
   -0.3283    4.6050   -5.6207 C   0  0  0  1  0  0  0  0  0  0  0  0
   -1.1650    4.5685   -4.5213 C   0  0  0  1  0  0  0  0  0  0  0  0
   -2.2803    5.3901   -4.4718 C   0  0  0  1  0  0  0  0  0  0  0  0
   -2.5587    6.2419   -5.5240 C   0  0  0  1  0  0  0  0  0  0  0  0
   -1.7193    6.2784   -6.6266 C   0  0  0  1  0  0  0  0  0  0  0  0
   -0.6072    5.4593   -6.6761 C   0  0  0  1  0  0  0  0  0  0  0  0
   -3.6874    6.9989   -5.3640 O   0  0  0  1  0  0  0  0  0  0  0  0
   -3.9174    7.8955   -6.4620 C   0  0  0  1  0  0  0  0  0  0  0  0
    4.6740    1.2923   -2.9252 N   0  0  0  1  0  0  0  0  0  0  0  0
    4.5092    1.2046   -1.4734 C   0  0  0  1  0  0  0  0  0  0  0  0
    4.9717   -0.1739   -0.9641 C   0  0  0  1  0  0  0  0  0  0  0  0
    6.4376    0.0744   -0.6188 C   0  0  0  1  0  0  0  0  0  0  0  0
    6.4810    1.4611   -0.0013 C   0  0  0  1  0  0  0  0  0  0  0  0
    5.3963    2.2253   -0.7780 C   0  0  0  1  0  0  0  0  0  0  0  0
    6.9233   -0.9459    0.3564 N   0  0  0  1  0  0  0  0  0  0  0  0
    0.8882    3.5259   -2.8951 H   0  0  0  1  0  0  0  0  0  0  0  0
    3.0964    2.6570   -7.7305 H   0  0  0  1  0  0  0  0  0  0  0  0
   -0.9579    3.9246   -3.7313 H   0  0  0  1  0  0  0  0  0  0  0  0
   -2.9078    5.3655   -3.6427 H   0  0  0  1  0  0  0  0  0  0  0  0
   -1.9264    6.9223   -7.4166 H   0  0  0  1  0  0  0  0  0  0  0  0
    0.0203    5.4838   -7.5052 H   0  0  0  1  0  0  0  0  0  0  0  0
   -3.9131    7.3450   -7.3796 H   0  0  0  1  0  0  0  0  0  0  0  0
   -3.1444    8.6349   -6.4864 H   0  0  0  1  0  0  0  0  0  0  0  0
   -4.8661    8.3746   -6.3383 H   0  0  0  1  0  0  0  0  0  0  0  0
    5.4467    0.9117   -3.3926 H   0  0  0  1  0  0  0  0  0  0  0  0
    3.4829    1.3697   -1.2198 H   0  0  0  1  0  0  0  0  0  0  0  0
    4.8752   -0.9193   -1.7257 H   0  0  0  1  0  0  0  0  0  0  0  0
    4.4165   -0.4725   -0.0996 H   0  0  0  1  0  0  0  0  0  0  0  0
    7.0406    0.0397   -1.5021 H   0  0  0  1  0  0  0  0  0  0  0  0
    6.2505    1.4235    1.0429 H   0  0  0  1  0  0  0  0  0  0  0  0
    7.4414    1.9125   -0.1390 H   0  0  0  1  0  0  0  0  0  0  0  0
    4.8118    2.8134   -0.1017 H   0  0  0  1  0  0  0  0  0  0  0  0
    5.8526    2.8646   -1.5047 H   0  0  0  1  0  0  0  0  0  0  0  0
    6.8993   -1.8331   -0.0591 H   0  0  0  1  0  0  0  0  0  0  0  0
    6.3465   -0.9408    1.1487 H   0  0  0  1  0  0  0  0  0  0  0  0
  1  2  4  0  0  0  0
  1  6  4  0  0  0  0
  2  3  4  0  0  0  0
  2 18  1  0  0  0  0
  3  4  4  0  0  0  0
  4  5  4  0  0  0  0
  4  7  4  0  0  0  0
  5  6  4  0  0  0  0
  5  9  4  0  0  0  0
  6 25  1  0  0  0  0
  7  8  4  0  0  0  0
  7 26  1  0  0  0  0
  8  9  4  0  0  0  0
  9 10  1  0  0  0  0
 10 11  4  0  0  0  0
 10 15  4  0  0  0  0
 11 12  4  0  0  0  0
 11 27  1  0  0  0  0
 12 13  4  0  0  0  0
 12 28  1  0  0  0  0
 13 14  4  0  0  0  0
 13 16  1  0  0  0  0
 14 15  4  0  0  0  0
 14 29  1  0  0  0  0
 15 30  1  0  0  0  0
 16 17  1  0  0  0  0
 17 31  1  0  0  0  0
 17 32  1  0  0  0  0
 17 33  1  0  0  0  0
 18 19  1  0  0  0  0
 18 34  1  0  0  0  0
 19 20  1  0  0  0  0
 19 23  1  0  0  0  0
 19 35  1  0  0  0  0
 20 21  1  0  0  0  0
 20 36  1  0  0  0  0
 20 37  1  0  0  0  0
 21 22  1  0  0  0  0
 21 24  1  0  0  0  0
 21 38  1  0  0  0  0
 22 23  1  0  0  0  0
 22 39  1  0  0  0  0
 22 40  1  0  0  0  0
 23 41  1  0  0  0  0
 23 42  1  0  0  0  0
 24 43  1  0  0  0  0
 24 44  1  0  0  0  0
M  END
> <ConfClashScore>
0 

> <ConfOneFourInteractionScore>
-0.984337 

> <ConfScore>
-0.115556 

> <ConfScorePBest>
0.00516596 

> <ConfTolerance>
0.268401 

$$$$
c13.sdf
 OpenBabel04162418043D

 44 47  0  0  0  0  0  0  0  0999 V2000
    2.2195    0.6689   -2.9648 N   0  0  0  1  0  0  0  0  0  0  0  0
    3.3473    0.9250   -3.6058 C   0  0  0  1  0  0  0  0  0  0  0  0
    3.4145    0.9909   -4.9158 N   0  0  0  1  0  0  0  0  0  0  0  0
    2.3215    0.7970   -5.6583 C   0  0  0  1  0  0  0  0  0  0  0  0
    1.1000    0.5214   -5.0077 C   0  0  0  1  0  0  0  0  0  0  0  0
    1.0886    0.4637   -3.6172 C   0  0  0  1  0  0  0  0  0  0  0  0
    2.0542    0.7975   -7.0449 C   0  0  0  1  0  0  0  0  0  0  0  0
    0.7889    0.5462   -7.2273 N   0  0  0  1  0  0  0  0  0  0  0  0
    0.1579    0.3679   -5.9892 N   0  0  0  1  0  0  0  0  0  0  0  0
   -1.2515    0.1796   -5.9285 C   0  0  0  1  0  0  0  0  0  0  0  0
   -2.0674    1.2054   -5.4903 C   0  0  0  1  0  0  0  0  0  0  0  0
   -3.4406    1.0238   -5.4363 C   0  0  0  1  0  0  0  0  0  0  0  0
   -3.9934   -0.1849   -5.8156 C   0  0  0  1  0  0  0  0  0  0  0  0
   -3.1749   -1.2137   -6.2551 C   0  0  0  1  0  0  0  0  0  0  0  0
   -1.8057   -1.0327   -6.3090 C   0  0  0  1  0  0  0  0  0  0  0  0
   -5.3355   -0.2463   -5.7159 O   0  0  0  1  0  0  0  0  0  0  0  0
   -5.9101   -1.5471   -5.9806 C   0  0  0  1  0  0  0  0  0  0  0  0
    4.4846    1.1286   -2.8805 N   0  0  0  1  0  0  0  0  0  0  0  0
    4.4622    1.1992   -1.4165 C   0  0  0  1  0  0  0  0  0  0  0  0
    4.9078   -0.1350   -0.8082 C   0  0  0  1  0  0  0  0  0  0  0  0
    6.4197    0.0022   -0.6281 C   0  0  0  1  0  0  0  0  0  0  0  0
    6.5563    1.4529   -0.1595 C   0  0  0  1  0  0  0  0  0  0  0  0
    5.4770    2.2335   -0.9132 C   0  0  0  1  0  0  0  0  0  0  0  0
    6.9244   -0.9372    0.3876 N   0  0  0  1  0  0  0  0  0  0  0  0
    0.2078    0.2631   -3.1018 H   0  0  0  1  0  0  0  0  0  0  0  0
    2.7521    0.9700   -7.7964 H   0  0  0  1  0  0  0  0  0  0  0  0
   -1.6512    2.1136   -5.2011 H   0  0  0  1  0  0  0  0  0  0  0  0
   -4.0549    1.7971   -5.1104 H   0  0  0  1  0  0  0  0  0  0  0  0
   -3.5911   -2.1218   -6.5443 H   0  0  0  1  0  0  0  0  0  0  0  0
   -1.1913   -1.8060   -6.6349 H   0  0  0  1  0  0  0  0  0  0  0  0
   -6.9678   -1.5092   -5.8229 H   0  0  0  1  0  0  0  0  0  0  0  0
   -5.4769   -2.2692   -5.3204 H   0  0  0  1  0  0  0  0  0  0  0  0
   -5.7107   -1.8253   -6.9944 H   0  0  0  1  0  0  0  0  0  0  0  0
    5.3387    1.2303   -3.3503 H   0  0  0  1  0  0  0  0  0  0  0  0
    3.4760    1.4506   -1.0861 H   0  0  0  1  0  0  0  0  0  0  0  0
    4.4294   -0.2974    0.1351 H   0  0  0  1  0  0  0  0  0  0  0  0
    4.6792   -0.9452   -1.4687 H   0  0  0  1  0  0  0  0  0  0  0  0
    6.9368   -0.1580   -1.5511 H   0  0  0  1  0  0  0  0  0  0  0  0
    7.5275    1.8327   -0.3993 H   0  0  0  1  0  0  0  0  0  0  0  0
    6.3971    1.5206    0.8964 H   0  0  0  1  0  0  0  0  0  0  0  0
    5.9096    2.7588   -1.7390 H   0  0  0  1  0  0  0  0  0  0  0  0
    4.9993    2.9309   -0.2571 H   0  0  0  1  0  0  0  0  0  0  0  0
    6.7672   -1.8573    0.0891 H   0  0  0  1  0  0  0  0  0  0  0  0
    6.4562   -0.7845    1.2349 H   0  0  0  1  0  0  0  0  0  0  0  0
  1  2  4  0  0  0  0
  1  6  4  0  0  0  0
  2  3  4  0  0  0  0
  2 18  1  0  0  0  0
  3  4  4  0  0  0  0
  4  5  4  0  0  0  0
  4  7  4  0  0  0  0
  5  6  4  0  0  0  0
  5  9  4  0  0  0  0
  6 25  1  0  0  0  0
  7  8  4  0  0  0  0
  7 26  1  0  0  0  0
  8  9  4  0  0  0  0
  9 10  1  0  0  0  0
 10 11  4  0  0  0  0
 10 15  4  0  0  0  0
 11 12  4  0  0  0  0
 11 27  1  0  0  0  0
 12 13  4  0  0  0  0
 12 28  1  0  0  0  0
 13 14  4  0  0  0  0
 13 16  1  0  0  0  0
 14 15  4  0  0  0  0
 14 29  1  0  0  0  0
 15 30  1  0  0  0  0
 16 17  1  0  0  0  0
 17 31  1  0  0  0  0
 17 32  1  0  0  0  0
 17 33  1  0  0  0  0
 18 19  1  0  0  0  0
 18 34  1  0  0  0  0
 19 20  1  0  0  0  0
 19 23  1  0  0  0  0
 19 35  1  0  0  0  0
 20 21  1  0  0  0  0
 20 36  1  0  0  0  0
 20 37  1  0  0  0  0
 21 22  1  0  0  0  0
 21 24  1  0  0  0  0
 21 38  1  0  0  0  0
 22 23  1  0  0  0  0
 22 39  1  0  0  0  0
 22 40  1  0  0  0  0
 23 41  1  0  0  0  0
 23 42  1  0  0  0  0
 24 43  1  0  0  0  0
 24 44  1  0  0  0  0
M  END
> <ConfClashScore>
0 

> <ConfOneFourInteractionScore>
-0.984337 

> <ConfScore>
-0.115079 

> <ConfScorePBest>
0.00515263 

> <ConfTolerance>
0.289669 

$$$$
c13.sdf
 OpenBabel04162418043D

 44 47  0  0  0  0  0  0  0  0999 V2000
    2.0009    0.0562   -2.0681 N   0  0  0  1  0  0  0  0  0  0  0  0
    2.5848    1.0467   -2.7211 C   0  0  0  1  0  0  0  0  0  0  0  0
    2.0959    1.5418   -3.8350 N   0  0  0  1  0  0  0  0  0  0  0  0
    0.9686    1.0495   -4.3548 C   0  0  0  1  0  0  0  0  0  0  0  0
    0.3181   -0.0082   -3.6844 C   0  0  0  1  0  0  0  0  0  0  0  0
    0.8821   -0.4929   -2.5079 C   0  0  0  1  0  0  0  0  0  0  0  0
    0.1967    1.3423   -5.5005 C   0  0  0  1  0  0  0  0  0  0  0  0
   -0.8297    0.5404   -5.5299 N   0  0  0  1  0  0  0  0  0  0  0  0
   -0.7942   -0.3154   -4.4211 N   0  0  0  1  0  0  0  0  0  0  0  0
   -1.7957   -1.2777   -4.2245 C   0  0  0  1  0  0  0  0  0  0  0  0
   -1.9848   -2.1594   -5.2718 C   0  0  0  1  0  0  0  0  0  0  0  0
   -2.9468   -3.1528   -5.1762 C   0  0  0  1  0  0  0  0  0  0  0  0
   -3.7206   -3.2584   -4.0358 C   0  0  0  1  0  0  0  0  0  0  0  0
   -3.5308   -2.3739   -2.9854 C   0  0  0  1  0  0  0  0  0  0  0  0
   -2.5716   -1.3834   -3.0806 C   0  0  0  1  0  0  0  0  0  0  0  0
   -4.5959   -4.2839   -3.9093 O   0  0  0  1  0  0  0  0  0  0  0  0
   -4.6124   -5.2690   -4.9609 C   0  0  0  1  0  0  0  0  0  0  0  0
    3.7267    1.5696   -2.2254 N   0  0  0  1  0  0  0  0  0  0  0  0
    4.4378    1.0266   -1.0606 C   0  0  0  1  0  0  0  0  0  0  0  0
    5.3049   -0.1667   -1.4715 C   0  0  0  1  0  0  0  0  0  0  0  0
    6.5499   -0.0613   -0.5839 C   0  0  0  1  0  0  0  0  0  0  0  0
    6.8087    1.4363   -0.5804 C   0  0  0  1  0  0  0  0  0  0  0  0
    5.4145    2.0667   -0.4957 C   0  0  0  1  0  0  0  0  0  0  0  0
    6.2781   -0.5683    0.7944 N   0  0  0  1  0  0  0  0  0  0  0  0
    0.4322   -1.2714   -1.9854 H   0  0  0  1  0  0  0  0  0  0  0  0
    0.4120    2.0768   -6.2046 H   0  0  0  1  0  0  0  0  0  0  0  0
   -1.4054   -2.0776   -6.1316 H   0  0  0  1  0  0  0  0  0  0  0  0
   -3.0864   -3.8188   -5.9627 H   0  0  0  1  0  0  0  0  0  0  0  0
   -4.1102   -2.4558   -2.1257 H   0  0  0  1  0  0  0  0  0  0  0  0
   -2.4320   -0.7174   -2.2942 H   0  0  0  1  0  0  0  0  0  0  0  0
   -3.7269   -5.8670   -4.9041 H   0  0  0  1  0  0  0  0  0  0  0  0
   -4.6495   -4.7765   -5.9101 H   0  0  0  1  0  0  0  0  0  0  0  0
   -5.4730   -5.8950   -4.8495 H   0  0  0  1  0  0  0  0  0  0  0  0
    4.1032    2.3582   -2.6690 H   0  0  0  1  0  0  0  0  0  0  0  0
    3.7293    0.7346   -0.3139 H   0  0  0  1  0  0  0  0  0  0  0  0
    5.5716   -0.1017   -2.5057 H   0  0  0  1  0  0  0  0  0  0  0  0
    4.7900   -1.0874   -1.2925 H   0  0  0  1  0  0  0  0  0  0  0  0
    7.3744   -0.5973   -1.0055 H   0  0  0  1  0  0  0  0  0  0  0  0
    7.4017    1.7155    0.2653 H   0  0  0  1  0  0  0  0  0  0  0  0
    7.3052    1.7362   -1.4795 H   0  0  0  1  0  0  0  0  0  0  0  0
    5.1701    2.2903    0.5217 H   0  0  0  1  0  0  0  0  0  0  0  0
    5.3776    2.9640   -1.0775 H   0  0  0  1  0  0  0  0  0  0  0  0
    6.0197   -1.5126    0.7506 H   0  0  0  1  0  0  0  0  0  0  0  0
    5.5503   -0.0490    1.1956 H   0  0  0  1  0  0  0  0  0  0  0  0
  1  2  4  0  0  0  0
  1  6  4  0  0  0  0
  2  3  4  0  0  0  0
  2 18  1  0  0  0  0
  3  4  4  0  0  0  0
  4  5  4  0  0  0  0
  4  7  4  0  0  0  0
  5  6  4  0  0  0  0
  5  9  4  0  0  0  0
  6 25  1  0  0  0  0
  7  8  4  0  0  0  0
  7 26  1  0  0  0  0
  8  9  4  0  0  0  0
  9 10  1  0  0  0  0
 10 11  4  0  0  0  0
 10 15  4  0  0  0  0
 11 12  4  0  0  0  0
 11 27  1  0  0  0  0
 12 13  4  0  0  0  0
 12 28  1  0  0  0  0
 13 14  4  0  0  0  0
 13 16  1  0  0  0  0
 14 15  4  0  0  0  0
 14 29  1  0  0  0  0
 15 30  1  0  0  0  0
 16 17  1  0  0  0  0
 17 31  1  0  0  0  0
 17 32  1  0  0  0  0
 17 33  1  0  0  0  0
 18 19  1  0  0  0  0
 18 34  1  0  0  0  0
 19 20  1  0  0  0  0
 19 23  1  0  0  0  0
 19 35  1  0  0  0  0
 20 21  1  0  0  0  0
 20 36  1  0  0  0  0
 20 37  1  0  0  0  0
 21 22  1  0  0  0  0
 21 24  1  0  0  0  0
 21 38  1  0  0  0  0
 22 23  1  0  0  0  0
 22 39  1  0  0  0  0
 22 40  1  0  0  0  0
 23 41  1  0  0  0  0
 23 42  1  0  0  0  0
 24 43  1  0  0  0  0
 24 44  1  0  0  0  0
M  END
> <ConfClashScore>
0 

> <ConfOneFourInteractionScore>
-0.984337 

> <ConfScore>
-0.115079 

> <ConfScorePBest>
0.0051393 

> <ConfTolerance>
0.258807 

$$$$
c13.sdf
 OpenBabel04162418043D

 44 47  0  0  0  0  0  0  0  0999 V2000
    1.7874    1.9248   -0.6651 N   0  0  0  1  0  0  0  0  0  0  0  0
    2.2206    1.8111   -1.9093 C   0  0  0  1  0  0  0  0  0  0  0  0
    1.4597    2.0721   -2.9475 N   0  0  0  1  0  0  0  0  0  0  0  0
    0.1963    2.4692   -2.7754 C   0  0  0  1  0  0  0  0  0  0  0  0
   -0.2999    2.6016   -1.4610 C   0  0  0  1  0  0  0  0  0  0  0  0
    0.5519    2.3114   -0.3993 C   0  0  0  1  0  0  0  0  0  0  0  0
   -0.8581    2.8200   -3.6468 C   0  0  0  1  0  0  0  0  0  0  0  0
   -1.9018    3.1374   -2.9345 N   0  0  0  1  0  0  0  0  0  0  0  0
   -1.6001    3.0159   -1.5717 N   0  0  0  1  0  0  0  0  0  0  0  0
   -2.5860    3.4091   -0.6222 C   0  0  0  1  0  0  0  0  0  0  0  0
   -2.5148    2.9484    0.6788 C   0  0  0  1  0  0  0  0  0  0  0  0
   -3.4714    3.3355    1.6043 C   0  0  0  1  0  0  0  0  0  0  0  0
   -4.4994    4.1779    1.2248 C   0  0  0  1  0  0  0  0  0  0  0  0
   -4.5706    4.6399   -0.0802 C   0  0  0  1  0  0  0  0  0  0  0  0
   -3.6168    4.2540   -1.0031 C   0  0  0  1  0  0  0  0  0  0  0  0
   -5.4902    4.6183    2.0360 O   0  0  0  1  0  0  0  0  0  0  0  0
   -5.5698    4.0399    3.3481 C   0  0  0  1  0  0  0  0  0  0  0  0
    3.4881    1.4133   -2.1210 N   0  0  0  1  0  0  0  0  0  0  0  0
    4.4297    1.0753   -1.0472 C   0  0  0  1  0  0  0  0  0  0  0  0
    5.2883   -0.1327   -1.4222 C   0  0  0  1  0  0  0  0  0  0  0  0
    6.5309   -0.0229   -0.5318 C   0  0  0  1  0  0  0  0  0  0  0  0
    6.7024    1.4767   -0.2581 C   0  0  0  1  0  0  0  0  0  0  0  0
    5.4817    2.1721   -0.8653 C   0  0  0  1  0  0  0  0  0  0  0  0
    6.3253   -0.7683    0.7480 N   0  0  0  1  0  0  0  0  0  0  0  0
    0.2227    2.3970    0.5835 H   0  0  0  1  0  0  0  0  0  0  0  0
   -0.8096    2.8243   -4.6856 H   0  0  0  1  0  0  0  0  0  0  0  0
   -1.7436    2.3113    0.9635 H   0  0  0  1  0  0  0  0  0  0  0  0
   -3.4156    2.9921    2.5844 H   0  0  0  1  0  0  0  0  0  0  0  0
   -5.3418    5.2770   -0.3649 H   0  0  0  1  0  0  0  0  0  0  0  0
   -3.6726    4.5974   -1.9832 H   0  0  0  1  0  0  0  0  0  0  0  0
   -4.6475    4.2010    3.8661 H   0  0  0  1  0  0  0  0  0  0  0  0
   -5.7523    2.9889    3.2639 H   0  0  0  1  0  0  0  0  0  0  0  0
   -6.3689    4.4987    3.8920 H   0  0  0  1  0  0  0  0  0  0  0  0
    3.8012    1.3452   -3.0472 H   0  0  0  1  0  0  0  0  0  0  0  0
    3.8895    0.9011   -0.1401 H   0  0  0  1  0  0  0  0  0  0  0  0
    5.5613   -0.0944   -2.4561 H   0  0  0  1  0  0  0  0  0  0  0  0
    4.7631   -1.0439   -1.2250 H   0  0  0  1  0  0  0  0  0  0  0  0
    7.3898   -0.4118   -1.0377 H   0  0  0  1  0  0  0  0  0  0  0  0
    7.5991    1.8360   -0.7181 H   0  0  0  1  0  0  0  0  0  0  0  0
    6.7444    1.6574    0.7957 H   0  0  0  1  0  0  0  0  0  0  0  0
    5.7323    2.6090   -1.8093 H   0  0  0  1  0  0  0  0  0  0  0  0
    5.1184    2.9319   -0.2053 H   0  0  0  1  0  0  0  0  0  0  0  0
    6.2767   -1.7294    0.5625 H   0  0  0  1  0  0  0  0  0  0  0  0
    5.4896   -0.4739    1.1666 H   0  0  0  1  0  0  0  0  0  0  0  0
  1  2  4  0  0  0  0
  1  6  4  0  0  0  0
  2  3  4  0  0  0  0
  2 18  1  0  0  0  0
  3  4  4  0  0  0  0
  4  5  4  0  0  0  0
  4  7  4  0  0  0  0
  5  6  4  0  0  0  0
  5  9  4  0  0  0  0
  6 25  1  0  0  0  0
  7  8  4  0  0  0  0
  7 26  1  0  0  0  0
  8  9  4  0  0  0  0
  9 10  1  0  0  0  0
 10 11  4  0  0  0  0
 10 15  4  0  0  0  0
 11 12  4  0  0  0  0
 11 27  1  0  0  0  0
 12 13  4  0  0  0  0
 12 28  1  0  0  0  0
 13 14  4  0  0  0  0
 13 16  1  0  0  0  0
 14 15  4  0  0  0  0
 14 29  1  0  0  0  0
 15 30  1  0  0  0  0
 16 17  1  0  0  0  0
 17 31  1  0  0  0  0
 17 32  1  0  0  0  0
 17 33  1  0  0  0  0
 18 19  1  0  0  0  0
 18 34  1  0  0  0  0
 19 20  1  0  0  0  0
 19 23  1  0  0  0  0
 19 35  1  0  0  0  0
 20 21  1  0  0  0  0
 20 36  1  0  0  0  0
 20 37  1  0  0  0  0
 21 22  1  0  0  0  0
 21 24  1  0  0  0  0
 21 38  1  0  0  0  0
 22 23  1  0  0  0  0
 22 39  1  0  0  0  0
 22 40  1  0  0  0  0
 23 41  1  0  0  0  0
 23 42  1  0  0  0  0
 24 43  1  0  0  0  0
 24 44  1  0  0  0  0
M  END
> <ConfClashScore>
0 

> <ConfOneFourInteractionScore>
-0.984337 

> <ConfScore>
-0.114762 

> <ConfScorePBest>
0.00512597 

> <ConfTolerance>
0.273075 

$$$$
c13.sdf
 OpenBabel04162418043D

 44 47  0  0  0  0  0  0  0  0999 V2000
    2.0508    2.3985   -3.7468 N   0  0  0  1  0  0  0  0  0  0  0  0
    2.4759    2.1972   -2.5110 C   0  0  0  1  0  0  0  0  0  0  0  0
    1.8692    2.7089   -1.4645 N   0  0  0  1  0  0  0  0  0  0  0  0
    0.7796    3.4655   -1.6191 C   0  0  0  1  0  0  0  0  0  0  0  0
    0.2975    3.7014   -2.9242 C   0  0  0  1  0  0  0  0  0  0  0  0
    0.9810    3.1336   -3.9954 C   0  0  0  1  0  0  0  0  0  0  0  0
   -0.0856    4.1467   -0.7351 C   0  0  0  1  0  0  0  0  0  0  0  0
   -1.0105    4.7436   -1.4319 N   0  0  0  1  0  0  0  0  0  0  0  0
   -0.8114    4.4941   -2.7961 N   0  0  0  1  0  0  0  0  0  0  0  0
   -1.6040    5.1542   -3.7757 C   0  0  0  1  0  0  0  0  0  0  0  0
   -2.9518    5.3565   -3.5461 C   0  0  0  1  0  0  0  0  0  0  0  0
   -3.7073    6.0845   -4.4520 C   0  0  0  1  0  0  0  0  0  0  0  0
   -3.1141    6.6035   -5.5874 C   0  0  0  1  0  0  0  0  0  0  0  0
   -1.7623    6.4006   -5.8174 C   0  0  0  1  0  0  0  0  0  0  0  0
   -1.0088    5.6747   -4.9143 C   0  0  0  1  0  0  0  0  0  0  0  0
   -3.8693    7.2278   -6.5222 O   0  0  0  1  0  0  0  0  0  0  0  0
   -3.1945    7.7148   -7.6927 C   0  0  0  1  0  0  0  0  0  0  0  0
    3.5668    1.4388   -2.3686 N   0  0  0  1  0  0  0  0  0  0  0  0
    4.3786    1.0896   -1.1994 C   0  0  0  1  0  0  0  0  0  0  0  0
    5.2634   -0.1701   -1.4892 C   0  0  0  1  0  0  0  0  0  0  0  0
    6.4348   -0.0234   -0.4604 C   0  0  0  1  0  0  0  0  0  0  0  0
    6.5784    1.4984   -0.1760 C   0  0  0  1  0  0  0  0  0  0  0  0
    5.4095    2.1939   -0.8958 C   0  0  0  1  0  0  0  0  0  0  0  0
    6.1152   -0.7464    0.7826 N   0  0  0  1  0  0  0  0  0  0  0  0
    0.6563    3.2847   -4.9718 H   0  0  0  1  0  0  0  0  0  0  0  0
    0.0012    4.1683    0.3010 H   0  0  0  1  0  0  0  0  0  0  0  0
   -3.3990    4.9626   -2.6939 H   0  0  0  1  0  0  0  0  0  0  0  0
   -4.7207    6.2401   -4.2773 H   0  0  0  1  0  0  0  0  0  0  0  0
   -1.3150    6.7945   -6.6697 H   0  0  0  1  0  0  0  0  0  0  0  0
    0.0045    5.5190   -5.0889 H   0  0  0  1  0  0  0  0  0  0  0  0
   -3.9069    8.1557   -8.3582 H   0  0  0  1  0  0  0  0  0  0  0  0
   -2.7027    6.9018   -8.1847 H   0  0  0  1  0  0  0  0  0  0  0  0
   -2.4711    8.4497   -7.4072 H   0  0  0  1  0  0  0  0  0  0  0  0
    3.8846    1.0401   -3.2054 H   0  0  0  1  0  0  0  0  0  0  0  0
    3.7394    0.9220   -0.3579 H   0  0  0  1  0  0  0  0  0  0  0  0
    4.7142   -1.0726   -1.3199 H   0  0  0  1  0  0  0  0  0  0  0  0
    5.6308   -0.1587   -2.4940 H   0  0  0  1  0  0  0  0  0  0  0  0
    7.3424   -0.4098   -0.8751 H   0  0  0  1  0  0  0  0  0  0  0  0
    7.5118    1.8581   -0.5557 H   0  0  0  1  0  0  0  0  0  0  0  0
    6.5258    1.6834    0.8765 H   0  0  0  1  0  0  0  0  0  0  0  0
    4.9773    2.9423   -0.2650 H   0  0  0  1  0  0  0  0  0  0  0  0
    5.7488    2.6453   -1.8047 H   0  0  0  1  0  0  0  0  0  0  0  0
    6.8218   -0.5892    1.4433 H   0  0  0  1  0  0  0  0  0  0  0  0
    6.0515   -1.7061    0.5948 H   0  0  0  1  0  0  0  0  0  0  0  0
  1  2  4  0  0  0  0
  1  6  4  0  0  0  0
  2  3  4  0  0  0  0
  2 18  1  0  0  0  0
  3  4  4  0  0  0  0
  4  5  4  0  0  0  0
  4  7  4  0  0  0  0
  5  6  4  0  0  0  0
  5  9  4  0  0  0  0
  6 25  1  0  0  0  0
  7  8  4  0  0  0  0
  7 26  1  0  0  0  0
  8  9  4  0  0  0  0
  9 10  1  0  0  0  0
 10 11  4  0  0  0  0
 10 15  4  0  0  0  0
 11 12  4  0  0  0  0
 11 27  1  0  0  0  0
 12 13  4  0  0  0  0
 12 28  1  0  0  0  0
 13 14  4  0  0  0  0
 13 16  1  0  0  0  0
 14 15  4  0  0  0  0
 14 29  1  0  0  0  0
 15 30  1  0  0  0  0
 16 17  1  0  0  0  0
 17 31  1  0  0  0  0
 17 32  1  0  0  0  0
 17 33  1  0  0  0  0
 18 19  1  0  0  0  0
 18 34  1  0  0  0  0
 19 20  1  0  0  0  0
 19 23  1  0  0  0  0
 19 35  1  0  0  0  0
 20 21  1  0  0  0  0
 20 36  1  0  0  0  0
 20 37  1  0  0  0  0
 21 22  1  0  0  0  0
 21 24  1  0  0  0  0
 21 38  1  0  0  0  0
 22 23  1  0  0  0  0
 22 39  1  0  0  0  0
 22 40  1  0  0  0  0
 23 41  1  0  0  0  0
 23 42  1  0  0  0  0
 24 43  1  0  0  0  0
 24 44  1  0  0  0  0
M  END
> <ConfClashScore>
0 

> <ConfOneFourInteractionScore>
-0.984337 

> <ConfScore>
-0.112904 

> <ConfScorePBest>
0.00511265 

> <ConfTolerance>
0.279176 

$$$$
c13.sdf
 OpenBabel04162418043D

 44 47  0  0  0  0  0  0  0  0999 V2000
    4.3107    2.0229   -5.1644 N   0  0  0  1  0  0  0  0  0  0  0  0
    3.9850    1.9918   -3.8832 C   0  0  0  1  0  0  0  0  0  0  0  0
    2.8913    2.5523   -3.4200 N   0  0  0  1  0  0  0  0  0  0  0  0
    2.0551    3.1853   -4.2467 C   0  0  0  1  0  0  0  0  0  0  0  0
    2.3709    3.2381   -5.6210 C   0  0  0  1  0  0  0  0  0  0  0  0
    3.5433    2.6266   -6.0551 C   0  0  0  1  0  0  0  0  0  0  0  0
    0.8327    3.8729   -4.0822 C   0  0  0  1  0  0  0  0  0  0  0  0
    0.4364    4.3063   -5.2452 N   0  0  0  1  0  0  0  0  0  0  0  0
    1.3616    3.9348   -6.2296 N   0  0  0  1  0  0  0  0  0  0  0  0
    1.1572    4.2908   -7.5944 C   0  0  0  1  0  0  0  0  0  0  0  0
    2.2285    4.6810   -8.3756 C   0  0  0  1  0  0  0  0  0  0  0  0
    2.0174    5.1106   -9.6764 C   0  0  0  1  0  0  0  0  0  0  0  0
    0.7351    5.1540  -10.1905 C   0  0  0  1  0  0  0  0  0  0  0  0
   -0.3392    4.7626   -9.4069 C   0  0  0  1  0  0  0  0  0  0  0  0
   -0.1288    4.3342   -8.1098 C   0  0  0  1  0  0  0  0  0  0  0  0
    0.6522    5.5950  -11.4682 O   0  0  0  1  0  0  0  0  0  0  0  0
   -0.6416    5.5629  -12.0908 C   0  0  0  1  0  0  0  0  0  0  0  0
    4.8038    1.3630   -3.0208 N   0  0  0  1  0  0  0  0  0  0  0  0
    4.5235    1.2133   -1.5869 C   0  0  0  1  0  0  0  0  0  0  0  0
    4.9349   -0.1814   -1.1026 C   0  0  0  1  0  0  0  0  0  0  0  0
    6.3821   -0.0229   -0.6361 C   0  0  0  1  0  0  0  0  0  0  0  0
    6.3499    1.3453    0.0492 C   0  0  0  1  0  0  0  0  0  0  0  0
    5.3732    2.1937   -0.7686 C   0  0  0  1  0  0  0  0  0  0  0  0
    6.7631   -1.1013    0.3245 N   0  0  0  1  0  0  0  0  0  0  0  0
    3.8102    2.6443   -7.0601 H   0  0  0  1  0  0  0  0  0  0  0  0
    0.3314    4.0106   -3.1815 H   0  0  0  1  0  0  0  0  0  0  0  0
    3.1930    4.6522   -7.9875 H   0  0  0  1  0  0  0  0  0  0  0  0
    2.8239    5.4004  -10.2656 H   0  0  0  1  0  0  0  0  0  0  0  0
   -1.3037    4.7914   -9.7949 H   0  0  0  1  0  0  0  0  0  0  0  0
   -0.9353    4.0444   -7.5205 H   0  0  0  1  0  0  0  0  0  0  0  0
   -1.0613    4.5837  -11.9920 H   0  0  0  1  0  0  0  0  0  0  0  0
   -0.5441    5.8059  -13.1283 H   0  0  0  1  0  0  0  0  0  0  0  0
   -1.2834    6.2753  -11.6159 H   0  0  0  1  0  0  0  0  0  0  0  0
    5.6365    0.9822   -3.3700 H   0  0  0  1  0  0  0  0  0  0  0  0
    3.4820    1.3800   -1.4072 H   0  0  0  1  0  0  0  0  0  0  0  0
    4.8722   -0.8910   -1.9011 H   0  0  0  1  0  0  0  0  0  0  0  0
    4.3109   -0.4983   -0.2933 H   0  0  0  1  0  0  0  0  0  0  0  0
    7.0597   -0.0265   -1.4642 H   0  0  0  1  0  0  0  0  0  0  0  0
    7.3239    1.7883    0.0440 H   0  0  0  1  0  0  0  0  0  0  0  0
    6.0065    1.2494    1.0581 H   0  0  0  1  0  0  0  0  0  0  0  0
    4.7490    2.7692   -0.1174 H   0  0  0  1  0  0  0  0  0  0  0  0
    5.9106    2.8502   -1.4206 H   0  0  0  1  0  0  0  0  0  0  0  0
    6.2458   -1.0011    1.1508 H   0  0  0  1  0  0  0  0  0  0  0  0
    7.7194   -1.0344    0.5278 H   0  0  0  1  0  0  0  0  0  0  0  0
  1  2  4  0  0  0  0
  1  6  4  0  0  0  0
  2  3  4  0  0  0  0
  2 18  1  0  0  0  0
  3  4  4  0  0  0  0
  4  5  4  0  0  0  0
  4  7  4  0  0  0  0
  5  6  4  0  0  0  0
  5  9  4  0  0  0  0
  6 25  1  0  0  0  0
  7  8  4  0  0  0  0
  7 26  1  0  0  0  0
  8  9  4  0  0  0  0
  9 10  1  0  0  0  0
 10 11  4  0  0  0  0
 10 15  4  0  0  0  0
 11 12  4  0  0  0  0
 11 27  1  0  0  0  0
 12 13  4  0  0  0  0
 12 28  1  0  0  0  0
 13 14  4  0  0  0  0
 13 16  1  0  0  0  0
 14 15  4  0  0  0  0
 14 29  1  0  0  0  0
 15 30  1  0  0  0  0
 16 17  1  0  0  0  0
 17 31  1  0  0  0  0
 17 32  1  0  0  0  0
 17 33  1  0  0  0  0
 18 19  1  0  0  0  0
 18 34  1  0  0  0  0
 19 20  1  0  0  0  0
 19 23  1  0  0  0  0
 19 35  1  0  0  0  0
 20 21  1  0  0  0  0
 20 36  1  0  0  0  0
 20 37  1  0  0  0  0
 21 22  1  0  0  0  0
 21 24  1  0  0  0  0
 21 38  1  0  0  0  0
 22 23  1  0  0  0  0
 22 39  1  0  0  0  0
 22 40  1  0  0  0  0
 23 41  1  0  0  0  0
 23 42  1  0  0  0  0
 24 43  1  0  0  0  0
 24 44  1  0  0  0  0
M  END
> <ConfClashScore>
0 

> <ConfOneFourInteractionScore>
-0.984337 

> <ConfScore>
-0.112554 

> <ConfScorePBest>
0.00509932 

> <ConfTolerance>
0.245141 

$$$$
c13.sdf
 OpenBabel04162418043D

 44 47  0  0  0  0  0  0  0  0999 V2000
    1.5625    1.7306   -3.3367 N   0  0  0  1  0  0  0  0  0  0  0  0
    2.2111    1.1607   -2.3353 C   0  0  0  1  0  0  0  0  0  0  0  0
    1.6267    0.3397   -1.4930 N   0  0  0  1  0  0  0  0  0  0  0  0
    0.3301    0.0483   -1.6243 C   0  0  0  1  0  0  0  0  0  0  0  0
   -0.3938    0.6385   -2.6821 C   0  0  0  1  0  0  0  0  0  0  0  0
    0.2776    1.5007   -3.5439 C   0  0  0  1  0  0  0  0  0  0  0  0
   -0.5773   -0.7687   -0.9149 C   0  0  0  1  0  0  0  0  0  0  0  0
   -1.7467   -0.6872   -1.4835 N   0  0  0  1  0  0  0  0  0  0  0  0
   -1.6788    0.1759   -2.5851 N   0  0  0  1  0  0  0  0  0  0  0  0
   -2.8237    0.4338   -3.3746 C   0  0  0  1  0  0  0  0  0  0  0  0
   -2.7570    0.3104   -4.7495 C   0  0  0  1  0  0  0  0  0  0  0  0
   -3.8805    0.5580   -5.5228 C   0  0  0  1  0  0  0  0  0  0  0  0
   -5.0659    0.9333   -4.9194 C   0  0  0  1  0  0  0  0  0  0  0  0
   -5.1327    1.0570   -3.5403 C   0  0  0  1  0  0  0  0  0  0  0  0
   -4.0125    0.8102   -2.7692 C   0  0  0  1  0  0  0  0  0  0  0  0
   -6.0920    1.1531   -5.7754 O   0  0  0  1  0  0  0  0  0  0  0  0
   -7.3117    1.6683   -5.2191 C   0  0  0  1  0  0  0  0  0  0  0  0
    3.5092    1.4600   -2.2136 N   0  0  0  1  0  0  0  0  0  0  0  0
    4.3996    1.0454   -1.1263 C   0  0  0  1  0  0  0  0  0  0  0  0
    5.2720   -0.1383   -1.5444 C   0  0  0  1  0  0  0  0  0  0  0  0
    6.4736   -0.0956   -0.5940 C   0  0  0  1  0  0  0  0  0  0  0  0
    6.6353    1.3809   -0.2108 C   0  0  0  1  0  0  0  0  0  0  0  0
    5.4444    2.1221   -0.8229 C   0  0  0  1  0  0  0  0  0  0  0  0
    6.2121   -0.9173    0.6088 N   0  0  0  1  0  0  0  0  0  0  0  0
   -0.2217    1.9550   -4.3351 H   0  0  0  1  0  0  0  0  0  0  0  0
   -0.3498   -1.3409   -0.0768 H   0  0  0  1  0  0  0  0  0  0  0  0
   -1.8639    0.0319   -5.2039 H   0  0  0  1  0  0  0  0  0  0  0  0
   -3.8314    0.4613   -6.5571 H   0  0  0  1  0  0  0  0  0  0  0  0
   -6.0257    1.3355   -3.0859 H   0  0  0  1  0  0  0  0  0  0  0  0
   -4.0616    0.9069   -1.7348 H   0  0  0  1  0  0  0  0  0  0  0  0
   -7.9836    1.9277   -6.0104 H   0  0  0  1  0  0  0  0  0  0  0  0
   -7.0972    2.5382   -4.6342 H   0  0  0  1  0  0  0  0  0  0  0  0
   -7.7631    0.9229   -4.5983 H   0  0  0  1  0  0  0  0  0  0  0  0
    3.9036    2.0109   -2.9216 H   0  0  0  1  0  0  0  0  0  0  0  0
    3.8190    0.8123   -0.2583 H   0  0  0  1  0  0  0  0  0  0  0  0
    5.5912   -0.0307   -2.5600 H   0  0  0  1  0  0  0  0  0  0  0  0
    4.7368   -1.0582   -1.4338 H   0  0  0  1  0  0  0  0  0  0  0  0
    7.3536   -0.4532   -1.0865 H   0  0  0  1  0  0  0  0  0  0  0  0
    7.5524    1.7665   -0.6046 H   0  0  0  1  0  0  0  0  0  0  0  0
    6.6303    1.4890    0.8537 H   0  0  0  1  0  0  0  0  0  0  0  0
    5.0531    2.8368   -0.1293 H   0  0  0  1  0  0  0  0  0  0  0  0
    5.7379    2.6213   -1.7226 H   0  0  0  1  0  0  0  0  0  0  0  0
    5.4105   -0.5848    1.0642 H   0  0  0  1  0  0  0  0  0  0  0  0
    6.9794   -0.8608    1.2158 H   0  0  0  1  0  0  0  0  0  0  0  0
  1  2  4  0  0  0  0
  1  6  4  0  0  0  0
  2  3  4  0  0  0  0
  2 18  1  0  0  0  0
  3  4  4  0  0  0  0
  4  5  4  0  0  0  0
  4  7  4  0  0  0  0
  5  6  4  0  0  0  0
  5  9  4  0  0  0  0
  6 25  1  0  0  0  0
  7  8  4  0  0  0  0
  7 26  1  0  0  0  0
  8  9  4  0  0  0  0
  9 10  1  0  0  0  0
 10 11  4  0  0  0  0
 10 15  4  0  0  0  0
 11 12  4  0  0  0  0
 11 27  1  0  0  0  0
 12 13  4  0  0  0  0
 12 28  1  0  0  0  0
 13 14  4  0  0  0  0
 13 16  1  0  0  0  0
 14 15  4  0  0  0  0
 14 29  1  0  0  0  0
 15 30  1  0  0  0  0
 16 17  1  0  0  0  0
 17 31  1  0  0  0  0
 17 32  1  0  0  0  0
 17 33  1  0  0  0  0
 18 19  1  0  0  0  0
 18 34  1  0  0  0  0
 19 20  1  0  0  0  0
 19 23  1  0  0  0  0
 19 35  1  0  0  0  0
 20 21  1  0  0  0  0
 20 36  1  0  0  0  0
 20 37  1  0  0  0  0
 21 22  1  0  0  0  0
 21 24  1  0  0  0  0
 21 38  1  0  0  0  0
 22 23  1  0  0  0  0
 22 39  1  0  0  0  0
 22 40  1  0  0  0  0
 23 41  1  0  0  0  0
 23 42  1  0  0  0  0
 24 43  1  0  0  0  0
 24 44  1  0  0  0  0
M  END
> <ConfClashScore>
0 

> <ConfOneFourInteractionScore>
-0.984337 

> <ConfScore>
-0.112076 

> <ConfScorePBest>
0.00508599 

> <ConfTolerance>
0.227302 

$$$$
c13.sdf
 OpenBabel04162418043D

 44 47  0  0  0  0  0  0  0  0999 V2000
    1.7128    2.4865   -3.0450 N   0  0  0  1  0  0  0  0  0  0  0  0
    2.4036    2.0771   -1.9945 C   0  0  0  1  0  0  0  0  0  0  0  0
    1.9866    2.2579   -0.7623 N   0  0  0  1  0  0  0  0  0  0  0  0
    0.8259    2.8749   -0.5262 C   0  0  0  1  0  0  0  0  0  0  0  0
    0.0620    3.3253   -1.6239 C   0  0  0  1  0  0  0  0  0  0  0  0
    0.5535    3.1061   -2.9074 C   0  0  0  1  0  0  0  0  0  0  0  0
    0.1080    3.2202    0.6397 C   0  0  0  1  0  0  0  0  0  0  0  0
   -0.9918    3.8250    0.2903 N   0  0  0  1  0  0  0  0  0  0  0  0
   -1.0615    3.9121   -1.1063 N   0  0  0  1  0  0  0  0  0  0  0  0
   -2.1481    4.5218   -1.7901 C   0  0  0  1  0  0  0  0  0  0  0  0
   -2.8870    3.7923   -2.7022 C   0  0  0  1  0  0  0  0  0  0  0  0
   -3.9501    4.3854   -3.3652 C   0  0  0  1  0  0  0  0  0  0  0  0
   -4.2679    5.7076   -3.1181 C   0  0  0  1  0  0  0  0  0  0  0  0
   -3.5266    6.4391   -2.2032 C   0  0  0  1  0  0  0  0  0  0  0  0
   -2.4665    5.8479   -1.5421 C   0  0  0  1  0  0  0  0  0  0  0  0
   -5.2768    6.3931   -3.7064 O   0  0  0  1  0  0  0  0  0  0  0  0
   -6.0512    5.6983   -4.7035 C   0  0  0  1  0  0  0  0  0  0  0  0
    3.5821    1.4494   -2.1946 N   0  0  0  1  0  0  0  0  0  0  0  0
    4.4411    0.9785   -1.1221 C   0  0  0  1  0  0  0  0  0  0  0  0
    5.3326   -0.1534   -1.6057 C   0  0  0  1  0  0  0  0  0  0  0  0
    6.4727   -0.1196   -0.5822 C   0  0  0  1  0  0  0  0  0  0  0  0
    6.7366    1.3707   -0.3498 C   0  0  0  1  0  0  0  0  0  0  0  0
    5.4171    2.0773   -0.6882 C   0  0  0  1  0  0  0  0  0  0  0  0
    6.0600   -0.7876    0.6903 N   0  0  0  1  0  0  0  0  0  0  0  0
    0.0194    3.4234   -3.7414 H   0  0  0  1  0  0  0  0  0  0  0  0
    0.4077    3.0242    1.6161 H   0  0  0  1  0  0  0  0  0  0  0  0
   -2.6455    2.7985   -2.8912 H   0  0  0  1  0  0  0  0  0  0  0  0
   -4.5087    3.8354   -4.0486 H   0  0  0  1  0  0  0  0  0  0  0  0
   -3.7681    7.4329   -2.0143 H   0  0  0  1  0  0  0  0  0  0  0  0
   -1.9079    6.3979   -0.8587 H   0  0  0  1  0  0  0  0  0  0  0  0
   -5.3930    5.2436   -5.4140 H   0  0  0  1  0  0  0  0  0  0  0  0
   -6.6920    6.3931   -5.2050 H   0  0  0  1  0  0  0  0  0  0  0  0
   -6.6436    4.9424   -4.2317 H   0  0  0  1  0  0  0  0  0  0  0  0
    3.8754    1.3027   -3.1182 H   0  0  0  1  0  0  0  0  0  0  0  0
    3.8396    0.6596   -0.2966 H   0  0  0  1  0  0  0  0  0  0  0  0
    5.6934    0.0318   -2.5959 H   0  0  0  1  0  0  0  0  0  0  0  0
    4.8173   -1.0909   -1.5829 H   0  0  0  1  0  0  0  0  0  0  0  0
    7.3449   -0.6015   -0.9720 H   0  0  0  1  0  0  0  0  0  0  0  0
    7.5209    1.7160   -0.9906 H   0  0  0  1  0  0  0  0  0  0  0  0
    7.0050    1.5483    0.6707 H   0  0  0  1  0  0  0  0  0  0  0  0
    5.5650    2.7770   -1.4841 H   0  0  0  1  0  0  0  0  0  0  0  0
    5.0398    2.5895    0.1722 H   0  0  0  1  0  0  0  0  0  0  0  0
    5.2020   -0.4203    0.9892 H   0  0  0  1  0  0  0  0  0  0  0  0
    6.7403   -0.6290    1.3777 H   0  0  0  1  0  0  0  0  0  0  0  0
  1  2  4  0  0  0  0
  1  6  4  0  0  0  0
  2  3  4  0  0  0  0
  2 18  1  0  0  0  0
  3  4  4  0  0  0  0
  4  5  4  0  0  0  0
  4  7  4  0  0  0  0
  5  6  4  0  0  0  0
  5  9  4  0  0  0  0
  6 25  1  0  0  0  0
  7  8  4  0  0  0  0
  7 26  1  0  0  0  0
  8  9  4  0  0  0  0
  9 10  1  0  0  0  0
 10 11  4  0  0  0  0
 10 15  4  0  0  0  0
 11 12  4  0  0  0  0
 11 27  1  0  0  0  0
 12 13  4  0  0  0  0
 12 28  1  0  0  0  0
 13 14  4  0  0  0  0
 13 16  1  0  0  0  0
 14 15  4  0  0  0  0
 14 29  1  0  0  0  0
 15 30  1  0  0  0  0
 16 17  1  0  0  0  0
 17 31  1  0  0  0  0
 17 32  1  0  0  0  0
 17 33  1  0  0  0  0
 18 19  1  0  0  0  0
 18 34  1  0  0  0  0
 19 20  1  0  0  0  0
 19 23  1  0  0  0  0
 19 35  1  0  0  0  0
 20 21  1  0  0  0  0
 20 36  1  0  0  0  0
 20 37  1  0  0  0  0
 21 22  1  0  0  0  0
 21 24  1  0  0  0  0
 21 38  1  0  0  0  0
 22 23  1  0  0  0  0
 22 39  1  0  0  0  0
 22 40  1  0  0  0  0
 23 41  1  0  0  0  0
 23 42  1  0  0  0  0
 24 43  1  0  0  0  0
 24 44  1  0  0  0  0
M  END
> <ConfClashScore>
0 

> <ConfOneFourInteractionScore>
-0.984337 

> <ConfScore>
-0.111618 

> <ConfScorePBest>
0.00507266 

> <ConfTolerance>
0.231394 

$$$$
c13.sdf
 OpenBabel04162418043D

 44 47  0  0  0  0  0  0  0  0999 V2000
    4.5730    1.9585   -5.1911 N   0  0  0  1  0  0  0  0  0  0  0  0
    4.1214    1.9414   -3.9484 C   0  0  0  1  0  0  0  0  0  0  0  0
    3.0347    2.5828   -3.5842 N   0  0  0  1  0  0  0  0  0  0  0  0
    2.3360    3.2883   -4.4774 C   0  0  0  1  0  0  0  0  0  0  0  0
    2.7887    3.3287   -5.8133 C   0  0  0  1  0  0  0  0  0  0  0  0
    3.9466    2.6298   -6.1417 C   0  0  0  1  0  0  0  0  0  0  0  0
    1.1611    4.0695   -4.4208 C   0  0  0  1  0  0  0  0  0  0  0  0
    0.9163    4.5440   -5.6092 N   0  0  0  1  0  0  0  0  0  0  0  0
    1.9018    4.1093   -6.5052 N   0  0  0  1  0  0  0  0  0  0  0  0
    1.9072    4.5670   -7.8384 C   0  0  0  1  0  0  0  0  0  0  0  0
    2.1514    5.9103   -8.0533 C   0  0  0  1  0  0  0  0  0  0  0  0
    2.1734    6.4125   -9.3451 C   0  0  0  1  0  0  0  0  0  0  0  0
    1.9457    5.5712  -10.4178 C   0  0  0  1  0  0  0  0  0  0  0  0
    1.7007    4.2240  -10.2020 C   0  0  0  1  0  0  0  0  0  0  0  0
    1.6788    3.7231   -8.9141 C   0  0  0  1  0  0  0  0  0  0  0  0
    1.9620    6.0630  -11.6794 O   0  0  0  1  0  0  0  0  0  0  0  0
    1.6558    5.1490  -12.7440 C   0  0  0  1  0  0  0  0  0  0  0  0
    4.7996    1.2412   -3.0214 N   0  0  0  1  0  0  0  0  0  0  0  0
    4.5285    1.2126   -1.5833 C   0  0  0  1  0  0  0  0  0  0  0  0
    4.8391   -0.2057   -1.0058 C   0  0  0  1  0  0  0  0  0  0  0  0
    6.3571   -0.0531   -0.6165 C   0  0  0  1  0  0  0  0  0  0  0  0
    6.3967    1.3484   -0.0226 C   0  0  0  1  0  0  0  0  0  0  0  0
    5.4455    2.1974   -0.8550 C   0  0  0  1  0  0  0  0  0  0  0  0
    6.7609   -1.0716    0.3822 N   0  0  0  1  0  0  0  0  0  0  0  0
    4.3116    2.6357   -7.1155 H   0  0  0  1  0  0  0  0  0  0  0  0
    0.5860    4.2382   -3.5709 H   0  0  0  1  0  0  0  0  0  0  0  0
    2.3188    6.5441   -7.2459 H   0  0  0  1  0  0  0  0  0  0  0  0
    2.3612    7.4225   -9.5071 H   0  0  0  1  0  0  0  0  0  0  0  0
    1.5334    3.5901  -11.0094 H   0  0  0  1  0  0  0  0  0  0  0  0
    1.4910    2.7131   -8.7520 H   0  0  0  1  0  0  0  0  0  0  0  0
    1.9469    5.5795  -13.6793 H   0  0  0  1  0  0  0  0  0  0  0  0
    0.6039    4.9530  -12.7539 H   0  0  0  1  0  0  0  0  0  0  0  0
    2.1883    4.2335  -12.5919 H   0  0  0  1  0  0  0  0  0  0  0  0
    5.5491    0.6965   -3.3404 H   0  0  0  1  0  0  0  0  0  0  0  0
    3.5036    1.4651   -1.4079 H   0  0  0  1  0  0  0  0  0  0  0  0
    4.2348   -0.4211   -0.1495 H   0  0  0  1  0  0  0  0  0  0  0  0
    4.6986   -0.9683   -1.7431 H   0  0  0  1  0  0  0  0  0  0  0  0
    6.9878   -0.1275   -1.4776 H   0  0  0  1  0  0  0  0  0  0  0  0
    6.0757    1.3266    0.9979 H   0  0  0  1  0  0  0  0  0  0  0  0
    7.3891    1.7447   -0.0765 H   0  0  0  1  0  0  0  0  0  0  0  0
    5.9936    2.7862   -1.5605 H   0  0  0  1  0  0  0  0  0  0  0  0
    4.8714    2.8413   -0.2220 H   0  0  0  1  0  0  0  0  0  0  0  0
    6.2204   -0.9670    1.1930 H   0  0  0  1  0  0  0  0  0  0  0  0
    7.7082   -0.9538    0.6039 H   0  0  0  1  0  0  0  0  0  0  0  0
  1  2  4  0  0  0  0
  1  6  4  0  0  0  0
  2  3  4  0  0  0  0
  2 18  1  0  0  0  0
  3  4  4  0  0  0  0
  4  5  4  0  0  0  0
  4  7  4  0  0  0  0
  5  6  4  0  0  0  0
  5  9  4  0  0  0  0
  6 25  1  0  0  0  0
  7  8  4  0  0  0  0
  7 26  1  0  0  0  0
  8  9  4  0  0  0  0
  9 10  1  0  0  0  0
 10 11  4  0  0  0  0
 10 15  4  0  0  0  0
 11 12  4  0  0  0  0
 11 27  1  0  0  0  0
 12 13  4  0  0  0  0
 12 28  1  0  0  0  0
 13 14  4  0  0  0  0
 13 16  1  0  0  0  0
 14 15  4  0  0  0  0
 14 29  1  0  0  0  0
 15 30  1  0  0  0  0
 16 17  1  0  0  0  0
 17 31  1  0  0  0  0
 17 32  1  0  0  0  0
 17 33  1  0  0  0  0
 18 19  1  0  0  0  0
 18 34  1  0  0  0  0
 19 20  1  0  0  0  0
 19 23  1  0  0  0  0
 19 35  1  0  0  0  0
 20 21  1  0  0  0  0
 20 36  1  0  0  0  0
 20 37  1  0  0  0  0
 21 22  1  0  0  0  0
 21 24  1  0  0  0  0
 21 38  1  0  0  0  0
 22 23  1  0  0  0  0
 22 39  1  0  0  0  0
 22 40  1  0  0  0  0
 23 41  1  0  0  0  0
 23 42  1  0  0  0  0
 24 43  1  0  0  0  0
 24 44  1  0  0  0  0
M  END
> <ConfClashScore>
0 

> <ConfOneFourInteractionScore>
-0.984337 

> <ConfScore>
-0.111618 

> <ConfScorePBest>
0.00505933 

> <ConfTolerance>
0.282504 

$$$$
c13.sdf
 OpenBabel04162418043D

 44 47  0  0  0  0  0  0  0  0999 V2000
    2.7265    2.3774   -4.4114 N   0  0  0  1  0  0  0  0  0  0  0  0
    3.0012    2.3209   -3.1192 C   0  0  0  1  0  0  0  0  0  0  0  0
    2.3528    3.0359   -2.2285 N   0  0  0  1  0  0  0  0  0  0  0  0
    1.3739    3.8611   -2.6084 C   0  0  0  1  0  0  0  0  0  0  0  0
    1.0536    3.9470   -3.9800 C   0  0  0  1  0  0  0  0  0  0  0  0
    1.7742    3.1658   -4.8786 C   0  0  0  1  0  0  0  0  0  0  0  0
    0.5048    4.7436   -1.9303 C   0  0  0  1  0  0  0  0  0  0  0  0
   -0.2746    5.3164   -2.8032 N   0  0  0  1  0  0  0  0  0  0  0  0
    0.0313    4.8512   -4.0888 N   0  0  0  1  0  0  0  0  0  0  0  0
   -0.6831    5.3267   -5.2253 C   0  0  0  1  0  0  0  0  0  0  0  0
   -1.3036    4.4312   -6.0757 C   0  0  0  1  0  0  0  0  0  0  0  0
   -2.0035    4.8943   -7.1789 C   0  0  0  1  0  0  0  0  0  0  0  0
   -2.0764    6.2512   -7.4316 C   0  0  0  1  0  0  0  0  0  0  0  0
   -1.4540    7.1493   -6.5785 C   0  0  0  1  0  0  0  0  0  0  0  0
   -0.7561    6.6876   -5.4785 C   0  0  0  1  0  0  0  0  0  0  0  0
   -2.7243    6.8190   -8.4764 O   0  0  0  1  0  0  0  0  0  0  0  0
   -3.5676    5.9668   -9.2671 C   0  0  0  1  0  0  0  0  0  0  0  0
    3.9813    1.5005   -2.6997 N   0  0  0  1  0  0  0  0  0  0  0  0
    4.4063    1.2086   -1.3366 C   0  0  0  1  0  0  0  0  0  0  0  0
    5.0363   -0.1878   -1.2580 C   0  0  0  1  0  0  0  0  0  0  0  0
    6.4248   -0.0045   -0.6408 C   0  0  0  1  0  0  0  0  0  0  0  0
    6.3940    1.3630    0.0461 C   0  0  0  1  0  0  0  0  0  0  0  0
    5.5114    2.1768   -0.9003 C   0  0  0  1  0  0  0  0  0  0  0  0
    6.6983   -1.0835    0.3575 N   0  0  0  1  0  0  0  0  0  0  0  0
    1.5674    3.2017   -5.8972 H   0  0  0  1  0  0  0  0  0  0  0  0
    0.4894    4.9091   -0.9037 H   0  0  0  1  0  0  0  0  0  0  0  0
   -1.2455    3.4099   -5.8879 H   0  0  0  1  0  0  0  0  0  0  0  0
   -2.4739    4.2207   -7.8166 H   0  0  0  1  0  0  0  0  0  0  0  0
   -1.5121    8.1706   -6.7663 H   0  0  0  1  0  0  0  0  0  0  0  0
   -0.2857    7.3612   -4.8408 H   0  0  0  1  0  0  0  0  0  0  0  0
   -4.0640    6.5496  -10.0145 H   0  0  0  1  0  0  0  0  0  0  0  0
   -4.2957    5.5014   -8.6361 H   0  0  0  1  0  0  0  0  0  0  0  0
   -2.9713    5.2144   -9.7396 H   0  0  0  1  0  0  0  0  0  0  0  0
    4.4766    1.0362   -3.4065 H   0  0  0  1  0  0  0  0  0  0  0  0
    3.5660    1.2780   -0.6778 H   0  0  0  1  0  0  0  0  0  0  0  0
    5.1202   -0.6109   -2.2372 H   0  0  0  1  0  0  0  0  0  0  0  0
    4.4399   -0.8280   -0.6422 H   0  0  0  1  0  0  0  0  0  0  0  0
    7.1768   -0.0230   -1.4018 H   0  0  0  1  0  0  0  0  0  0  0  0
    7.3754    1.7829    0.1192 H   0  0  0  1  0  0  0  0  0  0  0  0
    5.9599    1.2976    1.0219 H   0  0  0  1  0  0  0  0  0  0  0  0
    6.0747    2.5113   -1.7463 H   0  0  0  1  0  0  0  0  0  0  0  0
    5.0936    3.0212   -0.3929 H   0  0  0  1  0  0  0  0  0  0  0  0
    5.9899   -1.0899    1.0347 H   0  0  0  1  0  0  0  0  0  0  0  0
    7.5618   -0.9170    0.7899 H   0  0  0  1  0  0  0  0  0  0  0  0
  1  2  4  0  0  0  0
  1  6  4  0  0  0  0
  2  3  4  0  0  0  0
  2 18  1  0  0  0  0
  3  4  4  0  0  0  0
  4  5  4  0  0  0  0
  4  7  4  0  0  0  0
  5  6  4  0  0  0  0
  5  9  4  0  0  0  0
  6 25  1  0  0  0  0
  7  8  4  0  0  0  0
  7 26  1  0  0  0  0
  8  9  4  0  0  0  0
  9 10  1  0  0  0  0
 10 11  4  0  0  0  0
 10 15  4  0  0  0  0
 11 12  4  0  0  0  0
 11 27  1  0  0  0  0
 12 13  4  0  0  0  0
 12 28  1  0  0  0  0
 13 14  4  0  0  0  0
 13 16  1  0  0  0  0
 14 15  4  0  0  0  0
 14 29  1  0  0  0  0
 15 30  1  0  0  0  0
 16 17  1  0  0  0  0
 17 31  1  0  0  0  0
 17 32  1  0  0  0  0
 17 33  1  0  0  0  0
 18 19  1  0  0  0  0
 18 34  1  0  0  0  0
 19 20  1  0  0  0  0
 19 23  1  0  0  0  0
 19 35  1  0  0  0  0
 20 21  1  0  0  0  0
 20 36  1  0  0  0  0
 20 37  1  0  0  0  0
 21 22  1  0  0  0  0
 21 24  1  0  0  0  0
 21 38  1  0  0  0  0
 22 23  1  0  0  0  0
 22 39  1  0  0  0  0
 22 40  1  0  0  0  0
 23 41  1  0  0  0  0
 23 42  1  0  0  0  0
 24 43  1  0  0  0  0
 24 44  1  0  0  0  0
M  END
> <ConfClashScore>
0 

> <ConfOneFourInteractionScore>
-0.984337 

> <ConfScore>
-0.111618 

> <ConfScorePBest>
0.005046 

> <ConfTolerance>
0.290922 

$$$$
c13.sdf
 OpenBabel04162418043D

 44 47  0  0  0  0  0  0  0  0999 V2000
    1.4602    1.2586   -3.1545 N   0  0  0  1  0  0  0  0  0  0  0  0
    2.3048    0.7860   -2.2535 C   0  0  0  1  0  0  0  0  0  0  0  0
    2.0420   -0.2788   -1.5309 N   0  0  0  1  0  0  0  0  0  0  0  0
    0.8877   -0.9322   -1.6867 C   0  0  0  1  0  0  0  0  0  0  0  0
   -0.0378   -0.4559   -2.6396 C   0  0  0  1  0  0  0  0  0  0  0  0
    0.2944    0.6770   -3.3767 C   0  0  0  1  0  0  0  0  0  0  0  0
    0.3088   -2.0741   -1.0910 C   0  0  0  1  0  0  0  0  0  0  0  0
   -0.8607   -2.2787   -1.6275 N   0  0  0  1  0  0  0  0  0  0  0  0
   -1.1167   -1.2975   -2.5942 N   0  0  0  1  0  0  0  0  0  0  0  0
   -2.2841   -1.3697   -3.3809 C   0  0  0  1  0  0  0  0  0  0  0  0
   -2.9012   -0.2449   -3.8947 C   0  0  0  1  0  0  0  0  0  0  0  0
   -4.0450   -0.3738   -4.6671 C   0  0  0  1  0  0  0  0  0  0  0  0
   -4.5714   -1.6268   -4.9190 C   0  0  0  1  0  0  0  0  0  0  0  0
   -3.9523   -2.7549   -4.4035 C   0  0  0  1  0  0  0  0  0  0  0  0
   -2.8118   -2.6264   -3.6333 C   0  0  0  1  0  0  0  0  0  0  0  0
   -5.6918   -1.7523   -5.6692 O   0  0  0  1  0  0  0  0  0  0  0  0
   -6.4047   -0.5477   -5.9905 C   0  0  0  1  0  0  0  0  0  0  0  0
    3.4776    1.4185   -2.0692 N   0  0  0  1  0  0  0  0  0  0  0  0
    4.4283    1.0737   -1.0265 C   0  0  0  1  0  0  0  0  0  0  0  0
    5.2721   -0.1376   -1.4236 C   0  0  0  1  0  0  0  0  0  0  0  0
    6.5326   -0.0390   -0.5574 C   0  0  0  1  0  0  0  0  0  0  0  0
    6.7184    1.4583   -0.2806 C   0  0  0  1  0  0  0  0  0  0  0  0
    5.4902    2.1635   -0.8606 C   0  0  0  1  0  0  0  0  0  0  0  0
    6.3481   -0.7881    0.7215 N   0  0  0  1  0  0  0  0  0  0  0  0
   -0.3616    1.0582   -4.0880 H   0  0  0  1  0  0  0  0  0  0  0  0
    0.7441   -2.6557   -0.3468 H   0  0  0  1  0  0  0  0  0  0  0  0
   -2.5075    0.6982   -3.7019 H   0  0  0  1  0  0  0  0  0  0  0  0
   -4.5072    0.4723   -5.0571 H   0  0  0  1  0  0  0  0  0  0  0  0
   -4.3460   -3.6980   -4.5963 H   0  0  0  1  0  0  0  0  0  0  0  0
   -2.3497   -3.4725   -3.2433 H   0  0  0  1  0  0  0  0  0  0  0  0
   -5.8469    0.0169   -6.7081 H   0  0  0  1  0  0  0  0  0  0  0  0
   -6.5372    0.0354   -5.1032 H   0  0  0  1  0  0  0  0  0  0  0  0
   -7.3612   -0.7981   -6.3996 H   0  0  0  1  0  0  0  0  0  0  0  0
    3.7040    2.1555   -2.6741 H   0  0  0  1  0  0  0  0  0  0  0  0
    3.9051    0.8987   -0.1097 H   0  0  0  1  0  0  0  0  0  0  0  0
    5.5248   -0.0963   -2.4625 H   0  0  0  1  0  0  0  0  0  0  0  0
    4.7454   -1.0465   -1.2200 H   0  0  0  1  0  0  0  0  0  0  0  0
    7.3790   -0.4308   -1.0819 H   0  0  0  1  0  0  0  0  0  0  0  0
    6.7823    1.6341    0.7729 H   0  0  0  1  0  0  0  0  0  0  0  0
    7.6080    1.8144   -0.7567 H   0  0  0  1  0  0  0  0  0  0  0  0
    5.1445    2.9225   -0.1903 H   0  0  0  1  0  0  0  0  0  0  0  0
    5.7248    2.6032   -1.8075 H   0  0  0  1  0  0  0  0  0  0  0  0
    6.0689   -1.7067    0.5252 H   0  0  0  1  0  0  0  0  0  0  0  0
    5.6604   -0.3464    1.2622 H   0  0  0  1  0  0  0  0  0  0  0  0
  1  2  4  0  0  0  0
  1  6  4  0  0  0  0
  2  3  4  0  0  0  0
  2 18  1  0  0  0  0
  3  4  4  0  0  0  0
  4  5  4  0  0  0  0
  4  7  4  0  0  0  0
  5  6  4  0  0  0  0
  5  9  4  0  0  0  0
  6 25  1  0  0  0  0
  7  8  4  0  0  0  0
  7 26  1  0  0  0  0
  8  9  4  0  0  0  0
  9 10  1  0  0  0  0
 10 11  4  0  0  0  0
 10 15  4  0  0  0  0
 11 12  4  0  0  0  0
 11 27  1  0  0  0  0
 12 13  4  0  0  0  0
 12 28  1  0  0  0  0
 13 14  4  0  0  0  0
 13 16  1  0  0  0  0
 14 15  4  0  0  0  0
 14 29  1  0  0  0  0
 15 30  1  0  0  0  0
 16 17  1  0  0  0  0
 17 31  1  0  0  0  0
 17 32  1  0  0  0  0
 17 33  1  0  0  0  0
 18 19  1  0  0  0  0
 18 34  1  0  0  0  0
 19 20  1  0  0  0  0
 19 23  1  0  0  0  0
 19 35  1  0  0  0  0
 20 21  1  0  0  0  0
 20 36  1  0  0  0  0
 20 37  1  0  0  0  0
 21 22  1  0  0  0  0
 21 24  1  0  0  0  0
 21 38  1  0  0  0  0
 22 23  1  0  0  0  0
 22 39  1  0  0  0  0
 22 40  1  0  0  0  0
 23 41  1  0  0  0  0
 23 42  1  0  0  0  0
 24 43  1  0  0  0  0
 24 44  1  0  0  0  0
M  END
> <ConfClashScore>
0 

> <ConfOneFourInteractionScore>
-0.984337 

> <ConfScore>
-0.111001 

> <ConfScorePBest>
0.00503268 

> <ConfTolerance>
0.224708 

$$$$
c13.sdf
 OpenBabel04162418043D

 44 47  0  0  0  0  0  0  0  0999 V2000
    1.4073    1.5076   -2.9943 N   0  0  0  1  0  0  0  0  0  0  0  0
    2.2236    1.0223   -2.0742 C   0  0  0  1  0  0  0  0  0  0  0  0
    1.8274    0.1649   -1.1616 N   0  0  0  1  0  0  0  0  0  0  0  0
    0.5594   -0.2531   -1.1335 C   0  0  0  1  0  0  0  0  0  0  0  0
   -0.3400    0.2440   -2.1006 C   0  0  0  1  0  0  0  0  0  0  0  0
    0.1357    1.1505   -3.0434 C   0  0  0  1  0  0  0  0  0  0  0  0
   -0.1722   -1.1403   -0.3138 C   0  0  0  1  0  0  0  0  0  0  0  0
   -1.4033   -1.1832   -0.7380 N   0  0  0  1  0  0  0  0  0  0  0  0
   -1.5525   -0.3388   -1.8460 N   0  0  0  1  0  0  0  0  0  0  0  0
   -2.8252   -0.1420   -2.4310 C   0  0  0  1  0  0  0  0  0  0  0  0
   -3.0947    1.0235   -3.1231 C   0  0  0  1  0  0  0  0  0  0  0  0
   -4.3402    1.2140   -3.7010 C   0  0  0  1  0  0  0  0  0  0  0  0
   -5.3142    0.2408   -3.5806 C   0  0  0  1  0  0  0  0  0  0  0  0
   -5.0437   -0.9281   -2.8863 C   0  0  0  1  0  0  0  0  0  0  0  0
   -3.8019   -1.1182   -2.3101 C   0  0  0  1  0  0  0  0  0  0  0  0
   -6.5642    0.3168   -4.0959 O   0  0  0  1  0  0  0  0  0  0  0  0
   -6.8477    1.4204   -4.9701 C   0  0  0  1  0  0  0  0  0  0  0  0
    3.5083    1.4210   -2.0716 N   0  0  0  1  0  0  0  0  0  0  0  0
    4.4614    1.0749   -1.0316 C   0  0  0  1  0  0  0  0  0  0  0  0
    5.2689   -0.1555   -1.4366 C   0  0  0  1  0  0  0  0  0  0  0  0
    6.5301   -0.0320   -0.5604 C   0  0  0  1  0  0  0  0  0  0  0  0
    6.7076    1.4541   -0.2918 C   0  0  0  1  0  0  0  0  0  0  0  0
    5.4785    2.1883   -0.8525 C   0  0  0  1  0  0  0  0  0  0  0  0
    6.3434   -0.7807    0.7361 N   0  0  0  1  0  0  0  0  0  0  0  0
   -0.4966    1.5392   -3.7719 H   0  0  0  1  0  0  0  0  0  0  0  0
    0.2089   -1.6716    0.4949 H   0  0  0  1  0  0  0  0  0  0  0  0
   -2.3632    1.7576   -3.2104 H   0  0  0  1  0  0  0  0  0  0  0  0
   -4.5417    2.0893   -4.2253 H   0  0  0  1  0  0  0  0  0  0  0  0
   -5.7752   -1.6622   -2.7991 H   0  0  0  1  0  0  0  0  0  0  0  0
   -3.6003   -1.9935   -1.7858 H   0  0  0  1  0  0  0  0  0  0  0  0
   -6.6227    2.3391   -4.4700 H   0  0  0  1  0  0  0  0  0  0  0  0
   -7.8832    1.4052   -5.2391 H   0  0  0  1  0  0  0  0  0  0  0  0
   -6.2482    1.3390   -5.8527 H   0  0  0  1  0  0  0  0  0  0  0  0
    3.8197    1.9778   -2.8155 H   0  0  0  1  0  0  0  0  0  0  0  0
    3.9399    0.8943   -0.1149 H   0  0  0  1  0  0  0  0  0  0  0  0
    5.5173   -0.1291   -2.4770 H   0  0  0  1  0  0  0  0  0  0  0  0
    4.7345   -1.0567   -1.2197 H   0  0  0  1  0  0  0  0  0  0  0  0
    7.3821   -0.4209   -1.0779 H   0  0  0  1  0  0  0  0  0  0  0  0
    6.7838    1.6261    0.7616 H   0  0  0  1  0  0  0  0  0  0  0  0
    7.5937    1.8073   -0.7764 H   0  0  0  1  0  0  0  0  0  0  0  0
    5.1236    2.9247   -0.1621 H   0  0  0  1  0  0  0  0  0  0  0  0
    5.7046    2.6555   -1.7882 H   0  0  0  1  0  0  0  0  0  0  0  0
    6.1091   -1.7129    0.5448 H   0  0  0  1  0  0  0  0  0  0  0  0
    5.6237   -0.3629    1.2537 H   0  0  0  1  0  0  0  0  0  0  0  0
  1  2  4  0  0  0  0
  1  6  4  0  0  0  0
  2  3  4  0  0  0  0
  2 18  1  0  0  0  0
  3  4  4  0  0  0  0
  4  5  4  0  0  0  0
  4  7  4  0  0  0  0
  5  6  4  0  0  0  0
  5  9  4  0  0  0  0
  6 25  1  0  0  0  0
  7  8  4  0  0  0  0
  7 26  1  0  0  0  0
  8  9  4  0  0  0  0
  9 10  1  0  0  0  0
 10 11  4  0  0  0  0
 10 15  4  0  0  0  0
 11 12  4  0  0  0  0
 11 27  1  0  0  0  0
 12 13  4  0  0  0  0
 12 28  1  0  0  0  0
 13 14  4  0  0  0  0
 13 16  1  0  0  0  0
 14 15  4  0  0  0  0
 14 29  1  0  0  0  0
 15 30  1  0  0  0  0
 16 17  1  0  0  0  0
 17 31  1  0  0  0  0
 17 32  1  0  0  0  0
 17 33  1  0  0  0  0
 18 19  1  0  0  0  0
 18 34  1  0  0  0  0
 19 20  1  0  0  0  0
 19 23  1  0  0  0  0
 19 35  1  0  0  0  0
 20 21  1  0  0  0  0
 20 36  1  0  0  0  0
 20 37  1  0  0  0  0
 21 22  1  0  0  0  0
 21 24  1  0  0  0  0
 21 38  1  0  0  0  0
 22 23  1  0  0  0  0
 22 39  1  0  0  0  0
 22 40  1  0  0  0  0
 23 41  1  0  0  0  0
 23 42  1  0  0  0  0
 24 43  1  0  0  0  0
 24 44  1  0  0  0  0
M  END
> <ConfClashScore>
0 

> <ConfOneFourInteractionScore>
-0.984337 

> <ConfScore>
-0.110422 

> <ConfScorePBest>
0.00501935 

> <ConfTolerance>
0.280689 

$$$$
c13.sdf
 OpenBabel04162418043D

 44 47  0  0  0  0  0  0  0  0999 V2000
    2.4191    0.2538   -3.1880 N   0  0  0  1  0  0  0  0  0  0  0  0
    3.5632    0.6844   -3.6922 C   0  0  0  1  0  0  0  0  0  0  0  0
    3.8051    0.6956   -4.9831 N   0  0  0  1  0  0  0  0  0  0  0  0
    2.8827    0.2626   -5.8464 C   0  0  0  1  0  0  0  0  0  0  0  0
    1.6495   -0.2042   -5.3436 C   0  0  0  1  0  0  0  0  0  0  0  0
    1.4489   -0.1928   -3.9664 C   0  0  0  1  0  0  0  0  0  0  0  0
    2.8217    0.1430   -7.2521 C   0  0  0  1  0  0  0  0  0  0  0  0
    1.6615   -0.3503   -7.5803 N   0  0  0  1  0  0  0  0  0  0  0  0
    0.9012   -0.5813   -6.4263 N   0  0  0  1  0  0  0  0  0  0  0  0
   -0.3955   -1.1171   -6.5616 C   0  0  0  1  0  0  0  0  0  0  0  0
   -0.9469   -1.9672   -5.6217 C   0  0  0  1  0  0  0  0  0  0  0  0
   -2.2295   -2.4612   -5.8021 C   0  0  0  1  0  0  0  0  0  0  0  0
   -2.9548   -2.1080   -6.9243 C   0  0  0  1  0  0  0  0  0  0  0  0
   -2.4016   -1.2554   -7.8669 C   0  0  0  1  0  0  0  0  0  0  0  0
   -1.1228   -0.7627   -7.6872 C   0  0  0  1  0  0  0  0  0  0  0  0
   -4.2095   -2.5300   -7.2099 O   0  0  0  1  0  0  0  0  0  0  0  0
   -4.8263   -3.4324   -6.2784 C   0  0  0  1  0  0  0  0  0  0  0  0
    4.5592    1.1421   -2.9039 N   0  0  0  1  0  0  0  0  0  0  0  0
    4.4841    1.1973   -1.4543 C   0  0  0  1  0  0  0  0  0  0  0  0
    4.9226   -0.1381   -0.8432 C   0  0  0  1  0  0  0  0  0  0  0  0
    6.4255    0.0136   -0.6076 C   0  0  0  1  0  0  0  0  0  0  0  0
    6.5290    1.4610   -0.1205 C   0  0  0  1  0  0  0  0  0  0  0  0
    5.4687    2.2374   -0.9049 C   0  0  0  1  0  0  0  0  0  0  0  0
    6.9068   -0.9361    0.4226 N   0  0  0  1  0  0  0  0  0  0  0  0
    0.5534   -0.5290   -3.5580 H   0  0  0  1  0  0  0  0  0  0  0  0
    3.5782    0.4054   -7.9158 H   0  0  0  1  0  0  0  0  0  0  0  0
   -0.3997   -2.2362   -4.7792 H   0  0  0  1  0  0  0  0  0  0  0  0
   -2.6460   -3.0977   -5.0928 H   0  0  0  1  0  0  0  0  0  0  0  0
   -2.9488   -0.9864   -8.7094 H   0  0  0  1  0  0  0  0  0  0  0  0
   -0.7063   -0.1262   -8.3964 H   0  0  0  1  0  0  0  0  0  0  0  0
   -4.3550   -4.3908   -6.3441 H   0  0  0  1  0  0  0  0  0  0  0  0
   -5.8660   -3.5298   -6.5117 H   0  0  0  1  0  0  0  0  0  0  0  0
   -4.7174   -3.0490   -5.2854 H   0  0  0  1  0  0  0  0  0  0  0  0
    5.3814    1.4556   -3.3352 H   0  0  0  1  0  0  0  0  0  0  0  0
    3.4840    1.4347   -1.1572 H   0  0  0  1  0  0  0  0  0  0  0  0
    4.4126   -0.3151    0.0806 H   0  0  0  1  0  0  0  0  0  0  0  0
    4.7269   -0.9440   -1.5193 H   0  0  0  1  0  0  0  0  0  0  0  0
    6.9770   -0.1317   -1.5129 H   0  0  0  1  0  0  0  0  0  0  0  0
    6.3312    1.5163    0.9296 H   0  0  0  1  0  0  0  0  0  0  0  0
    7.5038    1.8536   -0.3215 H   0  0  0  1  0  0  0  0  0  0  0  0
    4.9600    2.9229   -0.2597 H   0  0  0  1  0  0  0  0  0  0  0  0
    5.9247    2.7755   -1.7095 H   0  0  0  1  0  0  0  0  0  0  0  0
    6.8304   -1.8525    0.0840 H   0  0  0  1  0  0  0  0  0  0  0  0
    6.3640   -0.8412    1.2331 H   0  0  0  1  0  0  0  0  0  0  0  0
  1  2  4  0  0  0  0
  1  6  4  0  0  0  0
  2  3  4  0  0  0  0
  2 18  1  0  0  0  0
  3  4  4  0  0  0  0
  4  5  4  0  0  0  0
  4  7  4  0  0  0  0
  5  6  4  0  0  0  0
  5  9  4  0  0  0  0
  6 25  1  0  0  0  0
  7  8  4  0  0  0  0
  7 26  1  0  0  0  0
  8  9  4  0  0  0  0
  9 10  1  0  0  0  0
 10 11  4  0  0  0  0
 10 15  4  0  0  0  0
 11 12  4  0  0  0  0
 11 27  1  0  0  0  0
 12 13  4  0  0  0  0
 12 28  1  0  0  0  0
 13 14  4  0  0  0  0
 13 16  1  0  0  0  0
 14 15  4  0  0  0  0
 14 29  1  0  0  0  0
 15 30  1  0  0  0  0
 16 17  1  0  0  0  0
 17 31  1  0  0  0  0
 17 32  1  0  0  0  0
 17 33  1  0  0  0  0
 18 19  1  0  0  0  0
 18 34  1  0  0  0  0
 19 20  1  0  0  0  0
 19 23  1  0  0  0  0
 19 35  1  0  0  0  0
 20 21  1  0  0  0  0
 20 36  1  0  0  0  0
 20 37  1  0  0  0  0
 21 22  1  0  0  0  0
 21 24  1  0  0  0  0
 21 38  1  0  0  0  0
 22 23  1  0  0  0  0
 22 39  1  0  0  0  0
 22 40  1  0  0  0  0
 23 41  1  0  0  0  0
 23 42  1  0  0  0  0
 24 43  1  0  0  0  0
 24 44  1  0  0  0  0
M  END
> <ConfClashScore>
0 

> <ConfOneFourInteractionScore>
-0.984337 

> <ConfScore>
-0.110422 

> <ConfScorePBest>
0.00500602 

> <ConfTolerance>
0.263481 

$$$$
c13.sdf
 OpenBabel04162418043D

 44 47  0  0  0  0  0  0  0  0999 V2000
    2.6080    0.7962   -3.4085 N   0  0  0  1  0  0  0  0  0  0  0  0
    3.7437    1.3877   -3.7382 C   0  0  0  1  0  0  0  0  0  0  0  0
    3.9811    1.8319   -4.9512 N   0  0  0  1  0  0  0  0  0  0  0  0
    3.0625    1.6971   -5.9112 C   0  0  0  1  0  0  0  0  0  0  0  0
    1.8382    1.0706   -5.5950 C   0  0  0  1  0  0  0  0  0  0  0  0
    1.6420    0.6195   -4.2930 C   0  0  0  1  0  0  0  0  0  0  0  0
    2.9987    2.0517   -7.2765 C   0  0  0  1  0  0  0  0  0  0  0  0
    1.8449    1.6780   -7.7525 N   0  0  0  1  0  0  0  0  0  0  0  0
    1.0921    1.0643   -6.7429 N   0  0  0  1  0  0  0  0  0  0  0  0
   -0.1745    0.4635   -6.9936 C   0  0  0  1  0  0  0  0  0  0  0  0
   -0.9625    0.9207   -8.0329 C   0  0  0  1  0  0  0  0  0  0  0  0
   -2.1930    0.3324   -8.2801 C   0  0  0  1  0  0  0  0  0  0  0  0
   -2.6343   -0.7078   -7.4842 C   0  0  0  1  0  0  0  0  0  0  0  0
   -1.8439   -1.1663   -6.4418 C   0  0  0  1  0  0  0  0  0  0  0  0
   -0.6169   -0.5797   -6.1951 C   0  0  0  1  0  0  0  0  0  0  0  0
   -3.8394   -1.1623   -7.8471 O   0  0  0  1  0  0  0  0  0  0  0  0
   -4.4676   -2.3043   -7.1732 C   0  0  0  1  0  0  0  0  0  0  0  0
    4.6924    1.5409   -2.7970 N   0  0  0  1  0  0  0  0  0  0  0  0
    4.5109    1.1820   -1.3896 C   0  0  0  1  0  0  0  0  0  0  0  0
    5.0370   -0.2316   -1.1191 C   0  0  0  1  0  0  0  0  0  0  0  0
    6.4751   -0.0647   -0.6102 C   0  0  0  1  0  0  0  0  0  0  0  0
    6.7394    1.4435   -0.6213 C   0  0  0  1  0  0  0  0  0  0  0  0
    5.3504    2.0785   -0.4943 C   0  0  0  1  0  0  0  0  0  0  0  0
    6.6050   -0.6079    0.7768 N   0  0  0  1  0  0  0  0  0  0  0  0
    0.7531    0.1527   -4.0217 H   0  0  0  1  0  0  0  0  0  0  0  0
    3.7489    2.5318   -7.8135 H   0  0  0  1  0  0  0  0  0  0  0  0
   -0.6323    1.7061   -8.6293 H   0  0  0  1  0  0  0  0  0  0  0  0
   -2.7843    0.6737   -9.0647 H   0  0  0  1  0  0  0  0  0  0  0  0
   -2.1741   -1.9516   -5.8453 H   0  0  0  1  0  0  0  0  0  0  0  0
   -0.0256   -0.9210   -5.4106 H   0  0  0  1  0  0  0  0  0  0  0  0
   -5.3843   -2.5504   -7.6671 H   0  0  0  1  0  0  0  0  0  0  0  0
   -4.6694   -2.0496   -6.1537 H   0  0  0  1  0  0  0  0  0  0  0  0
   -3.8074   -3.1456   -7.2072 H   0  0  0  1  0  0  0  0  0  0  0  0
    5.5562    1.9148   -3.0697 H   0  0  0  1  0  0  0  0  0  0  0  0
    3.4747    1.2552   -1.1331 H   0  0  0  1  0  0  0  0  0  0  0  0
    4.4355   -0.7154   -0.3781 H   0  0  0  1  0  0  0  0  0  0  0  0
    5.0274   -0.8092   -2.0198 H   0  0  0  1  0  0  0  0  0  0  0  0
    7.1617   -0.5695   -1.2573 H   0  0  0  1  0  0  0  0  0  0  0  0
    7.3602    1.7245    0.2037 H   0  0  0  1  0  0  0  0  0  0  0  0
    7.2075    1.7384   -1.5372 H   0  0  0  1  0  0  0  0  0  0  0  0
    5.3511    3.0888   -0.8468 H   0  0  0  1  0  0  0  0  0  0  0  0
    5.0024    2.0534    0.5172 H   0  0  0  1  0  0  0  0  0  0  0  0
    6.4034   -1.5669    0.7728 H   0  0  0  1  0  0  0  0  0  0  0  0
    5.9764   -0.1446    1.3690 H   0  0  0  1  0  0  0  0  0  0  0  0
  1  2  4  0  0  0  0
  1  6  4  0  0  0  0
  2  3  4  0  0  0  0
  2 18  1  0  0  0  0
  3  4  4  0  0  0  0
  4  5  4  0  0  0  0
  4  7  4  0  0  0  0
  5  6  4  0  0  0  0
  5  9  4  0  0  0  0
  6 25  1  0  0  0  0
  7  8  4  0  0  0  0
  7 26  1  0  0  0  0
  8  9  4  0  0  0  0
  9 10  1  0  0  0  0
 10 11  4  0  0  0  0
 10 15  4  0  0  0  0
 11 12  4  0  0  0  0
 11 27  1  0  0  0  0
 12 13  4  0  0  0  0
 12 28  1  0  0  0  0
 13 14  4  0  0  0  0
 13 16  1  0  0  0  0
 14 15  4  0  0  0  0
 14 29  1  0  0  0  0
 15 30  1  0  0  0  0
 16 17  1  0  0  0  0
 17 31  1  0  0  0  0
 17 32  1  0  0  0  0
 17 33  1  0  0  0  0
 18 19  1  0  0  0  0
 18 34  1  0  0  0  0
 19 20  1  0  0  0  0
 19 23  1  0  0  0  0
 19 35  1  0  0  0  0
 20 21  1  0  0  0  0
 20 36  1  0  0  0  0
 20 37  1  0  0  0  0
 21 22  1  0  0  0  0
 21 24  1  0  0  0  0
 21 38  1  0  0  0  0
 22 23  1  0  0  0  0
 22 39  1  0  0  0  0
 22 40  1  0  0  0  0
 23 41  1  0  0  0  0
 23 42  1  0  0  0  0
 24 43  1  0  0  0  0
 24 44  1  0  0  0  0
M  END
> <ConfClashScore>
0 

> <ConfOneFourInteractionScore>
-0.984337 

> <ConfScore>
-0.110422 

> <ConfScorePBest>
0.00499269 

> <ConfTolerance>
0.360181 

$$$$
c13.sdf
 OpenBabel04162418043D

 44 47  0  0  0  0  0  0  0  0999 V2000
    3.5934    0.7590   -4.9606 N   0  0  0  1  0  0  0  0  0  0  0  0
    3.4632    0.8063   -3.6456 C   0  0  0  1  0  0  0  0  0  0  0  0
    2.3247    0.5563   -3.0403 N   0  0  0  1  0  0  0  0  0  0  0  0
    1.2385    0.2394   -3.7497 C   0  0  0  1  0  0  0  0  0  0  0  0
    1.3407    0.1794   -5.1559 C   0  0  0  1  0  0  0  0  0  0  0  0
    2.5725    0.4541   -5.7427 C   0  0  0  1  0  0  0  0  0  0  0  0
   -0.0984   -0.0776   -3.4240 C   0  0  0  1  0  0  0  0  0  0  0  0
   -0.7539   -0.3100   -4.5256 N   0  0  0  1  0  0  0  0  0  0  0  0
    0.1008   -0.1617   -5.6258 N   0  0  0  1  0  0  0  0  0  0  0  0
   -0.3757   -0.3624   -6.9496 C   0  0  0  1  0  0  0  0  0  0  0  0
   -1.4307   -1.2259   -7.1762 C   0  0  0  1  0  0  0  0  0  0  0  0
   -1.9627   -1.3507   -8.4502 C   0  0  0  1  0  0  0  0  0  0  0  0
   -1.4346   -0.6158   -9.4948 C   0  0  0  1  0  0  0  0  0  0  0  0
   -0.3763    0.2502   -9.2674 C   0  0  0  1  0  0  0  0  0  0  0  0
    0.1541    0.3748   -7.9972 C   0  0  0  1  0  0  0  0  0  0  0  0
   -2.0282   -0.8236  -10.6862 O   0  0  0  1  0  0  0  0  0  0  0  0
   -1.5892    0.0528  -11.7500 C   0  0  0  1  0  0  0  0  0  0  0  0
    4.5514    1.1268   -2.8879 N   0  0  0  1  0  0  0  0  0  0  0  0
    4.4749    1.2110   -1.4355 C   0  0  0  1  0  0  0  0  0  0  0  0
    4.8647   -0.1605   -0.7962 C   0  0  0  1  0  0  0  0  0  0  0  0
    6.4204    0.0114   -0.6255 C   0  0  0  1  0  0  0  0  0  0  0  0
    6.5339    1.4543   -0.1528 C   0  0  0  1  0  0  0  0  0  0  0  0
    5.4774    2.2429   -0.9145 C   0  0  0  1  0  0  0  0  0  0  0  0
    6.9618   -0.9377    0.3953 N   0  0  0  1  0  0  0  0  0  0  0  0
    2.6873    0.4201   -6.7757 H   0  0  0  1  0  0  0  0  0  0  0  0
   -0.4945   -0.1188   -2.4632 H   0  0  0  1  0  0  0  0  0  0  0  0
   -1.8256   -1.7819   -6.3910 H   0  0  0  1  0  0  0  0  0  0  0  0
   -2.7592   -1.9975   -8.6199 H   0  0  0  1  0  0  0  0  0  0  0  0
    0.0185    0.8062  -10.0526 H   0  0  0  1  0  0  0  0  0  0  0  0
    0.9507    1.0215   -7.8274 H   0  0  0  1  0  0  0  0  0  0  0  0
   -0.5645   -0.1513  -11.9809 H   0  0  0  1  0  0  0  0  0  0  0  0
   -1.6880    1.0711  -11.4366 H   0  0  0  1  0  0  0  0  0  0  0  0
   -2.1904   -0.1132  -12.6195 H   0  0  0  1  0  0  0  0  0  0  0  0
    5.4066    1.3049   -3.3321 H   0  0  0  1  0  0  0  0  0  0  0  0
    3.4817    1.4835   -1.1454 H   0  0  0  1  0  0  0  0  0  0  0  0
    4.3806   -0.3047    0.1471 H   0  0  0  1  0  0  0  0  0  0  0  0
    4.6297   -0.9769   -1.4467 H   0  0  0  1  0  0  0  0  0  0  0  0
    6.9310   -0.1338   -1.5545 H   0  0  0  1  0  0  0  0  0  0  0  0
    7.5090    1.8383   -0.3690 H   0  0  0  1  0  0  0  0  0  0  0  0
    6.3519    1.5137    0.8999 H   0  0  0  1  0  0  0  0  0  0  0  0
    5.9245    2.7715   -1.7303 H   0  0  0  1  0  0  0  0  0  0  0  0
    4.9905    2.9378   -0.2626 H   0  0  0  1  0  0  0  0  0  0  0  0
    6.8529   -1.8580    0.0766 H   0  0  0  1  0  0  0  0  0  0  0  0
    6.4742   -0.8241    1.2377 H   0  0  0  1  0  0  0  0  0  0  0  0
  1  2  4  0  0  0  0
  1  6  4  0  0  0  0
  2  3  4  0  0  0  0
  2 18  1  0  0  0  0
  3  4  4  0  0  0  0
  4  5  4  0  0  0  0
  4  7  4  0  0  0  0
  5  6  4  0  0  0  0
  5  9  4  0  0  0  0
  6 25  1  0  0  0  0
  7  8  4  0  0  0  0
  7 26  1  0  0  0  0
  8  9  4  0  0  0  0
  9 10  1  0  0  0  0
 10 11  4  0  0  0  0
 10 15  4  0  0  0  0
 11 12  4  0  0  0  0
 11 27  1  0  0  0  0
 12 13  4  0  0  0  0
 12 28  1  0  0  0  0
 13 14  4  0  0  0  0
 13 16  1  0  0  0  0
 14 15  4  0  0  0  0
 14 29  1  0  0  0  0
 15 30  1  0  0  0  0
 16 17  1  0  0  0  0
 17 31  1  0  0  0  0
 17 32  1  0  0  0  0
 17 33  1  0  0  0  0
 18 19  1  0  0  0  0
 18 34  1  0  0  0  0
 19 20  1  0  0  0  0
 19 23  1  0  0  0  0
 19 35  1  0  0  0  0
 20 21  1  0  0  0  0
 20 36  1  0  0  0  0
 20 37  1  0  0  0  0
 21 22  1  0  0  0  0
 21 24  1  0  0  0  0
 21 38  1  0  0  0  0
 22 23  1  0  0  0  0
 22 39  1  0  0  0  0
 22 40  1  0  0  0  0
 23 41  1  0  0  0  0
 23 42  1  0  0  0  0
 24 43  1  0  0  0  0
 24 44  1  0  0  0  0
M  END
> <ConfClashScore>
0 

> <ConfOneFourInteractionScore>
-0.984337 

> <ConfScore>
-0.110422 

> <ConfScorePBest>
0.00497936 

> <ConfTolerance>
0.206675 

$$$$
c13.sdf
 OpenBabel04162418043D

 44 47  0  0  0  0  0  0  0  0999 V2000
    1.8224    1.0629   -2.3077 N   0  0  0  1  0  0  0  0  0  0  0  0
    2.7382    1.4191   -3.1924 C   0  0  0  1  0  0  0  0  0  0  0  0
    2.4397    1.7112   -4.4376 N   0  0  0  1  0  0  0  0  0  0  0  0
    1.1736    1.6562   -4.8588 C   0  0  0  1  0  0  0  0  0  0  0  0
    0.1696    1.2798   -3.9415 C   0  0  0  1  0  0  0  0  0  0  0  0
    0.5445    0.9815   -2.6348 C   0  0  0  1  0  0  0  0  0  0  0  0
    0.5295    1.8994   -6.0917 C   0  0  0  1  0  0  0  0  0  0  0  0
   -0.7483    1.6918   -5.9445 N   0  0  0  1  0  0  0  0  0  0  0  0
   -1.0166    1.3052   -4.6248 N   0  0  0  1  0  0  0  0  0  0  0  0
   -2.3343    0.9301   -4.2365 C   0  0  0  1  0  0  0  0  0  0  0  0
   -3.4229    1.4442   -4.9153 C   0  0  0  1  0  0  0  0  0  0  0  0
   -4.7017    1.0077   -4.6060 C   0  0  0  1  0  0  0  0  0  0  0  0
   -4.8886    0.0623   -3.6152 C   0  0  0  1  0  0  0  0  0  0  0  0
   -3.7967   -0.4532   -2.9345 C   0  0  0  1  0  0  0  0  0  0  0  0
   -2.5216   -0.0180   -3.2428 C   0  0  0  1  0  0  0  0  0  0  0  0
   -6.1384   -0.3602   -3.3095 O   0  0  0  1  0  0  0  0  0  0  0  0
   -6.2773   -1.2340   -2.1783 C   0  0  0  1  0  0  0  0  0  0  0  0
    4.0218    1.4714   -2.7528 N   0  0  0  1  0  0  0  0  0  0  0  0
    4.4228    1.2068   -1.3672 C   0  0  0  1  0  0  0  0  0  0  0  0
    5.0288   -0.1968   -1.2423 C   0  0  0  1  0  0  0  0  0  0  0  0
    6.4101   -0.0193   -0.6074 C   0  0  0  1  0  0  0  0  0  0  0  0
    6.3904    1.3659    0.0434 C   0  0  0  1  0  0  0  0  0  0  0  0
    5.5362    2.1686   -0.9380 C   0  0  0  1  0  0  0  0  0  0  0  0
    6.6465   -1.0603    0.4073 N   0  0  0  1  0  0  0  0  0  0  0  0
   -0.1666    0.7002   -1.9300 H   0  0  0  1  0  0  0  0  0  0  0  0
    0.9977    2.1953   -6.9719 H   0  0  0  1  0  0  0  0  0  0  0  0
   -3.2827    2.1585   -5.6580 H   0  0  0  1  0  0  0  0  0  0  0  0
   -5.5205    1.3916   -5.1195 H   0  0  0  1  0  0  0  0  0  0  0  0
   -3.9369   -1.1675   -2.1917 H   0  0  0  1  0  0  0  0  0  0  0  0
   -1.7027   -0.4019   -2.7292 H   0  0  0  1  0  0  0  0  0  0  0  0
   -5.5766   -2.0386   -2.2603 H   0  0  0  1  0  0  0  0  0  0  0  0
   -7.2716   -1.6285   -2.1526 H   0  0  0  1  0  0  0  0  0  0  0  0
   -6.0871   -0.6861   -1.2792 H   0  0  0  1  0  0  0  0  0  0  0  0
    4.7217    1.6993   -3.3998 H   0  0  0  1  0  0  0  0  0  0  0  0
    3.5733    1.3065   -0.7242 H   0  0  0  1  0  0  0  0  0  0  0  0
    4.4124   -0.8113   -0.6200 H   0  0  0  1  0  0  0  0  0  0  0  0
    5.1215   -0.6465   -2.2087 H   0  0  0  1  0  0  0  0  0  0  0  0
    7.1737   -0.0695   -1.3552 H   0  0  0  1  0  0  0  0  0  0  0  0
    5.9398    1.3328    1.0134 H   0  0  0  1  0  0  0  0  0  0  0  0
    7.3772    1.7721    0.1217 H   0  0  0  1  0  0  0  0  0  0  0  0
    6.1182    2.4720   -1.7830 H   0  0  0  1  0  0  0  0  0  0  0  0
    5.1241    3.0323   -0.4595 H   0  0  0  1  0  0  0  0  0  0  0  0
    5.9735   -0.9855    1.1157 H   0  0  0  1  0  0  0  0  0  0  0  0
    7.5401   -0.9437    0.7924 H   0  0  0  1  0  0  0  0  0  0  0  0
  1  2  4  0  0  0  0
  1  6  4  0  0  0  0
  2  3  4  0  0  0  0
  2 18  1  0  0  0  0
  3  4  4  0  0  0  0
  4  5  4  0  0  0  0
  4  7  4  0  0  0  0
  5  6  4  0  0  0  0
  5  9  4  0  0  0  0
  6 25  1  0  0  0  0
  7  8  4  0  0  0  0
  7 26  1  0  0  0  0
  8  9  4  0  0  0  0
  9 10  1  0  0  0  0
 10 11  4  0  0  0  0
 10 15  4  0  0  0  0
 11 12  4  0  0  0  0
 11 27  1  0  0  0  0
 12 13  4  0  0  0  0
 12 28  1  0  0  0  0
 13 14  4  0  0  0  0
 13 16  1  0  0  0  0
 14 15  4  0  0  0  0
 14 29  1  0  0  0  0
 15 30  1  0  0  0  0
 16 17  1  0  0  0  0
 17 31  1  0  0  0  0
 17 32  1  0  0  0  0
 17 33  1  0  0  0  0
 18 19  1  0  0  0  0
 18 34  1  0  0  0  0
 19 20  1  0  0  0  0
 19 23  1  0  0  0  0
 19 35  1  0  0  0  0
 20 21  1  0  0  0  0
 20 36  1  0  0  0  0
 20 37  1  0  0  0  0
 21 22  1  0  0  0  0
 21 24  1  0  0  0  0
 21 38  1  0  0  0  0
 22 23  1  0  0  0  0
 22 39  1  0  0  0  0
 22 40  1  0  0  0  0
 23 41  1  0  0  0  0
 23 42  1  0  0  0  0
 24 43  1  0  0  0  0
 24 44  1  0  0  0  0
M  END
> <ConfClashScore>
0 

> <ConfOneFourInteractionScore>
-0.984337 

> <ConfScore>
-0.107419 

> <ConfScorePBest>
0.00496604 

> <ConfTolerance>
0.273772 

$$$$
c13.sdf
 OpenBabel04162418043D

 44 47  0  0  0  0  0  0  0  0999 V2000
    4.6814    2.2656   -5.0150 N   0  0  0  1  0  0  0  0  0  0  0  0
    4.2762    1.6215   -3.9336 C   0  0  0  1  0  0  0  0  0  0  0  0
    3.2659    0.7824   -3.9498 N   0  0  0  1  0  0  0  0  0  0  0  0
    2.6013    0.5481   -5.0842 C   0  0  0  1  0  0  0  0  0  0  0  0
    3.0064    1.2182   -6.2582 C   0  0  0  1  0  0  0  0  0  0  0  0
    4.0836    2.0961   -6.1814 C   0  0  0  1  0  0  0  0  0  0  0  0
    1.5045   -0.2679   -5.4380 C   0  0  0  1  0  0  0  0  0  0  0  0
    1.2601   -0.1130   -6.7083 N   0  0  0  1  0  0  0  0  0  0  0  0
    2.1687    0.8011   -7.2576 N   0  0  0  1  0  0  0  0  0  0  0  0
    2.1548    1.1778   -8.6309 C   0  0  0  1  0  0  0  0  0  0  0  0
    1.8460    0.2428   -9.6007 C   0  0  0  1  0  0  0  0  0  0  0  0
    1.8273    0.6108  -10.9370 C   0  0  0  1  0  0  0  0  0  0  0  0
    2.1227    1.9113  -11.3001 C   0  0  0  1  0  0  0  0  0  0  0  0
    2.4325    2.8490  -10.3272 C   0  0  0  1  0  0  0  0  0  0  0  0
    2.4511    2.4822   -8.9948 C   0  0  0  1  0  0  0  0  0  0  0  0
    2.0782    2.1500  -12.6252 O   0  0  0  1  0  0  0  0  0  0  0  0
    2.6516    3.4118  -13.0395 C   0  0  0  1  0  0  0  0  0  0  0  0
    4.9219    1.8327   -2.7726 N   0  0  0  1  0  0  0  0  0  0  0  0
    4.5516    1.1994   -1.5061 C   0  0  0  1  0  0  0  0  0  0  0  0
    5.1374   -0.2136   -1.4156 C   0  0  0  1  0  0  0  0  0  0  0  0
    6.4610   -0.0818   -0.6504 C   0  0  0  1  0  0  0  0  0  0  0  0
    6.6056    1.4106   -0.3395 C   0  0  0  1  0  0  0  0  0  0  0  0
    5.1687    1.9433   -0.3332 C   0  0  0  1  0  0  0  0  0  0  0  0
    6.4159   -0.8572    0.5831 N   0  0  0  1  0  0  0  0  0  0  0  0
    4.4115    2.6085   -7.0250 H   0  0  0  1  0  0  0  0  0  0  0  0
    0.9786   -0.8898   -4.7913 H   0  0  0  1  0  0  0  0  0  0  0  0
    1.6276   -0.7367   -9.3280 H   0  0  0  1  0  0  0  0  0  0  0  0
    1.5909   -0.0917  -11.6665 H   0  0  0  1  0  0  0  0  0  0  0  0
    2.6508    3.8285  -10.6000 H   0  0  0  1  0  0  0  0  0  0  0  0
    2.6875    3.1847   -8.2652 H   0  0  0  1  0  0  0  0  0  0  0  0
    3.6871    3.4387  -12.7715 H   0  0  0  1  0  0  0  0  0  0  0  0
    2.1366    4.2140  -12.5535 H   0  0  0  1  0  0  0  0  0  0  0  0
    2.5551    3.5160  -14.1000 H   0  0  0  1  0  0  0  0  0  0  0  0
    5.6856    2.4469   -2.7750 H   0  0  0  1  0  0  0  0  0  0  0  0
    3.4855    1.1730   -1.4182 H   0  0  0  1  0  0  0  0  0  0  0  0
    5.3134   -0.6052   -2.3957 H   0  0  0  1  0  0  0  0  0  0  0  0
    4.4671   -0.8596   -0.8880 H   0  0  0  1  0  0  0  0  0  0  0  0
    7.2774   -0.4188   -1.2545 H   0  0  0  1  0  0  0  0  0  0  0  0
    7.1865    1.8992   -1.0937 H   0  0  0  1  0  0  0  0  0  0  0  0
    7.0663    1.5547    0.6155 H   0  0  0  1  0  0  0  0  0  0  0  0
    4.6701    1.7061    0.5834 H   0  0  0  1  0  0  0  0  0  0  0  0
    5.1458    3.0017   -0.4886 H   0  0  0  1  0  0  0  0  0  0  0  0
    5.6757   -0.5405    1.1417 H   0  0  0  1  0  0  0  0  0  0  0  0
    7.2605   -0.7485    1.0680 H   0  0  0  1  0  0  0  0  0  0  0  0
  1  2  4  0  0  0  0
  1  6  4  0  0  0  0
  2  3  4  0  0  0  0
  2 18  1  0  0  0  0
  3  4  4  0  0  0  0
  4  5  4  0  0  0  0
  4  7  4  0  0  0  0
  5  6  4  0  0  0  0
  5  9  4  0  0  0  0
  6 25  1  0  0  0  0
  7  8  4  0  0  0  0
  7 26  1  0  0  0  0
  8  9  4  0  0  0  0
  9 10  1  0  0  0  0
 10 11  4  0  0  0  0
 10 15  4  0  0  0  0
 11 12  4  0  0  0  0
 11 27  1  0  0  0  0
 12 13  4  0  0  0  0
 12 28  1  0  0  0  0
 13 14  4  0  0  0  0
 13 16  1  0  0  0  0
 14 15  4  0  0  0  0
 14 29  1  0  0  0  0
 15 30  1  0  0  0  0
 16 17  1  0  0  0  0
 17 31  1  0  0  0  0
 17 32  1  0  0  0  0
 17 33  1  0  0  0  0
 18 19  1  0  0  0  0
 18 34  1  0  0  0  0
 19 20  1  0  0  0  0
 19 23  1  0  0  0  0
 19 35  1  0  0  0  0
 20 21  1  0  0  0  0
 20 36  1  0  0  0  0
 20 37  1  0  0  0  0
 21 22  1  0  0  0  0
 21 24  1  0  0  0  0
 21 38  1  0  0  0  0
 22 23  1  0  0  0  0
 22 39  1  0  0  0  0
 22 40  1  0  0  0  0
 23 41  1  0  0  0  0
 23 42  1  0  0  0  0
 24 43  1  0  0  0  0
 24 44  1  0  0  0  0
M  END
> <ConfClashScore>
0 

> <ConfOneFourInteractionScore>
-0.984337 

> <ConfScore>
-0.107419 

> <ConfScorePBest>
0.00495271 

> <ConfTolerance>
0.336414 

$$$$
c13.sdf
 OpenBabel04162418043D

 44 47  0  0  0  0  0  0  0  0999 V2000
    2.1600    0.2316   -2.5505 N   0  0  0  1  0  0  0  0  0  0  0  0
    2.7849    1.2902   -3.0377 C   0  0  0  1  0  0  0  0  0  0  0  0
    2.3221    1.9741   -4.0591 N   0  0  0  1  0  0  0  0  0  0  0  0
    1.1804    1.6138   -4.6509 C   0  0  0  1  0  0  0  0  0  0  0  0
    0.4864    0.4886   -4.1572 C   0  0  0  1  0  0  0  0  0  0  0  0
    1.0242   -0.1977   -3.0724 C   0  0  0  1  0  0  0  0  0  0  0  0
    0.4275    2.1139   -5.7358 C   0  0  0  1  0  0  0  0  0  0  0  0
   -0.6281    1.3665   -5.8926 N   0  0  0  1  0  0  0  0  0  0  0  0
   -0.6319    0.3449   -4.9338 N   0  0  0  1  0  0  0  0  0  0  0  0
   -1.6318   -0.6554   -4.9563 C   0  0  0  1  0  0  0  0  0  0  0  0
   -1.3014   -1.9688   -4.6807 C   0  0  0  1  0  0  0  0  0  0  0  0
   -2.2822   -2.9482   -4.6975 C   0  0  0  1  0  0  0  0  0  0  0  0
   -3.5895   -2.6123   -4.9950 C   0  0  0  1  0  0  0  0  0  0  0  0
   -3.9207   -1.2949   -5.2714 C   0  0  0  1  0  0  0  0  0  0  0  0
   -2.9428   -0.3183   -5.2547 C   0  0  0  1  0  0  0  0  0  0  0  0
   -4.6227   -3.4753   -5.0460 O   0  0  0  1  0  0  0  0  0  0  0  0
   -4.2766   -4.8593   -4.8069 C   0  0  0  1  0  0  0  0  0  0  0  0
    3.9703    1.6935   -2.4509 N   0  0  0  1  0  0  0  0  0  0  0  0
    4.4438    1.0322   -1.2317 C   0  0  0  1  0  0  0  0  0  0  0  0
    5.3217   -0.1694   -1.5891 C   0  0  0  1  0  0  0  0  0  0  0  0
    6.5004   -0.1241   -0.6138 C   0  0  0  1  0  0  0  0  0  0  0  0
    6.7300    1.3793   -0.4586 C   0  0  0  1  0  0  0  0  0  0  0  0
    5.3245    1.9890   -0.4181 C   0  0  0  1  0  0  0  0  0  0  0  0
    6.1475   -0.7561    0.6926 N   0  0  0  1  0  0  0  0  0  0  0  0
    0.5420   -1.0316   -2.6804 H   0  0  0  1  0  0  0  0  0  0  0  0
    0.6747    2.9421   -6.3142 H   0  0  0  1  0  0  0  0  0  0  0  0
   -0.3170   -2.2223   -4.4607 H   0  0  0  1  0  0  0  0  0  0  0  0
   -2.0344   -3.9359   -4.4861 H   0  0  0  1  0  0  0  0  0  0  0  0
   -4.9050   -1.0414   -5.4913 H   0  0  0  1  0  0  0  0  0  0  0  0
   -3.1906    0.6694   -5.4660 H   0  0  0  1  0  0  0  0  0  0  0  0
   -3.9232   -4.9708   -3.8031 H   0  0  0  1  0  0  0  0  0  0  0  0
   -3.5093   -5.1581   -5.4902 H   0  0  0  1  0  0  0  0  0  0  0  0
   -5.1414   -5.4729   -4.9505 H   0  0  0  1  0  0  0  0  0  0  0  0
    4.4930    2.4203   -2.8496 H   0  0  0  1  0  0  0  0  0  0  0  0
    3.6046    0.7160   -0.6480 H   0  0  0  1  0  0  0  0  0  0  0  0
    5.6690   -0.0908   -2.5981 H   0  0  0  1  0  0  0  0  0  0  0  0
    4.7736   -1.0806   -1.4700 H   0  0  0  1  0  0  0  0  0  0  0  0
    7.3622   -0.6083   -1.0235 H   0  0  0  1  0  0  0  0  0  0  0  0
    7.2834    1.7635   -1.2899 H   0  0  0  1  0  0  0  0  0  0  0  0
    7.2574    1.5881    0.4487 H   0  0  0  1  0  0  0  0  0  0  0  0
    4.9737    2.0547    0.5906 H   0  0  0  1  0  0  0  0  0  0  0  0
    5.3261    2.9636   -0.8599 H   0  0  0  1  0  0  0  0  0  0  0  0
    5.2838   -0.4103    1.0006 H   0  0  0  1  0  0  0  0  0  0  0  0
    6.8385   -0.5449    1.3547 H   0  0  0  1  0  0  0  0  0  0  0  0
  1  2  4  0  0  0  0
  1  6  4  0  0  0  0
  2  3  4  0  0  0  0
  2 18  1  0  0  0  0
  3  4  4  0  0  0  0
  4  5  4  0  0  0  0
  4  7  4  0  0  0  0
  5  6  4  0  0  0  0
  5  9  4  0  0  0  0
  6 25  1  0  0  0  0
  7  8  4  0  0  0  0
  7 26  1  0  0  0  0
  8  9  4  0  0  0  0
  9 10  1  0  0  0  0
 10 11  4  0  0  0  0
 10 15  4  0  0  0  0
 11 12  4  0  0  0  0
 11 27  1  0  0  0  0
 12 13  4  0  0  0  0
 12 28  1  0  0  0  0
 13 14  4  0  0  0  0
 13 16  1  0  0  0  0
 14 15  4  0  0  0  0
 14 29  1  0  0  0  0
 15 30  1  0  0  0  0
 16 17  1  0  0  0  0
 17 31  1  0  0  0  0
 17 32  1  0  0  0  0
 17 33  1  0  0  0  0
 18 19  1  0  0  0  0
 18 34  1  0  0  0  0
 19 20  1  0  0  0  0
 19 23  1  0  0  0  0
 19 35  1  0  0  0  0
 20 21  1  0  0  0  0
 20 36  1  0  0  0  0
 20 37  1  0  0  0  0
 21 22  1  0  0  0  0
 21 24  1  0  0  0  0
 21 38  1  0  0  0  0
 22 23  1  0  0  0  0
 22 39  1  0  0  0  0
 22 40  1  0  0  0  0
 23 41  1  0  0  0  0
 23 42  1  0  0  0  0
 24 43  1  0  0  0  0
 24 44  1  0  0  0  0
M  END
> <ConfClashScore>
0 

> <ConfOneFourInteractionScore>
-0.984337 

> <ConfScore>
-0.107419 

> <ConfScorePBest>
0.00493938 

> <ConfTolerance>
0.265544 

$$$$
c13.sdf
 OpenBabel04162418043D

 44 47  0  0  0  0  0  0  0  0999 V2000
    1.7309    0.2528   -1.3525 N   0  0  0  1  0  0  0  0  0  0  0  0
    2.2224    1.0261   -2.3059 C   0  0  0  1  0  0  0  0  0  0  0  0
    1.5155    1.3938   -3.3500 N   0  0  0  1  0  0  0  0  0  0  0  0
    0.2499    0.9892   -3.4846 C   0  0  0  1  0  0  0  0  0  0  0  0
   -0.3076    0.1627   -2.4859 C   0  0  0  1  0  0  0  0  0  0  0  0
    0.4885   -0.1951   -1.4019 C   0  0  0  1  0  0  0  0  0  0  0  0
   -0.7571    1.1949   -4.4530 C   0  0  0  1  0  0  0  0  0  0  0  0
   -1.8302    0.5554   -4.0833 N   0  0  0  1  0  0  0  0  0  0  0  0
   -1.5961   -0.0997   -2.8672 N   0  0  0  1  0  0  0  0  0  0  0  0
   -2.6116   -0.8679   -2.2513 C   0  0  0  1  0  0  0  0  0  0  0  0
   -3.9034   -0.3809   -2.1869 C   0  0  0  1  0  0  0  0  0  0  0  0
   -4.8997   -1.1361   -1.5881 C   0  0  0  1  0  0  0  0  0  0  0  0
   -4.6002   -2.3738   -1.0507 C   0  0  0  1  0  0  0  0  0  0  0  0
   -3.3045   -2.8622   -1.1154 C   0  0  0  1  0  0  0  0  0  0  0  0
   -2.3110   -2.1092   -1.7125 C   0  0  0  1  0  0  0  0  0  0  0  0
   -5.6514   -3.0161   -0.4883 O   0  0  0  1  0  0  0  0  0  0  0  0
   -5.4081   -4.3239    0.0529 C   0  0  0  1  0  0  0  0  0  0  0  0
    3.4939    1.4530   -2.2039 N   0  0  0  1  0  0  0  0  0  0  0  0
    4.4051    1.0572   -1.1251 C   0  0  0  1  0  0  0  0  0  0  0  0
    5.2539   -0.1369   -1.5295 C   0  0  0  1  0  0  0  0  0  0  0  0
    6.4702   -0.0760   -0.5994 C   0  0  0  1  0  0  0  0  0  0  0  0
    6.6040    1.3890   -0.1626 C   0  0  0  1  0  0  0  0  0  0  0  0
    5.4682    2.1316   -0.8718 C   0  0  0  1  0  0  0  0  0  0  0  0
    6.2565   -0.9505    0.5870 N   0  0  0  1  0  0  0  0  0  0  0  0
    0.1133   -0.8028   -0.6459 H   0  0  0  1  0  0  0  0  0  0  0  0
   -0.6583    1.7631   -5.3184 H   0  0  0  1  0  0  0  0  0  0  0  0
   -4.1280    0.5522   -2.5876 H   0  0  0  1  0  0  0  0  0  0  0  0
   -5.8726   -0.7714   -1.5432 H   0  0  0  1  0  0  0  0  0  0  0  0
   -3.0799   -3.7952   -0.7147 H   0  0  0  1  0  0  0  0  0  0  0  0
   -1.3381   -2.4739   -1.7574 H   0  0  0  1  0  0  0  0  0  0  0  0
   -4.6990   -4.2539    0.8511 H   0  0  0  1  0  0  0  0  0  0  0  0
   -5.0194   -4.9605   -0.7143 H   0  0  0  1  0  0  0  0  0  0  0  0
   -6.3246   -4.7318    0.4250 H   0  0  0  1  0  0  0  0  0  0  0  0
    3.8314    2.0647   -2.8912 H   0  0  0  1  0  0  0  0  0  0  0  0
    3.8415    0.8514   -0.2391 H   0  0  0  1  0  0  0  0  0  0  0  0
    4.7143   -1.0499   -1.3869 H   0  0  0  1  0  0  0  0  0  0  0  0
    5.5561   -0.0567   -2.5528 H   0  0  0  1  0  0  0  0  0  0  0  0
    7.3509   -0.3893   -1.1201 H   0  0  0  1  0  0  0  0  0  0  0  0
    6.5006    1.4736    0.8990 H   0  0  0  1  0  0  0  0  0  0  0  0
    7.5527    1.7833   -0.4616 H   0  0  0  1  0  0  0  0  0  0  0  0
    5.8094    2.5507   -1.7953 H   0  0  0  1  0  0  0  0  0  0  0  0
    5.0784    2.9095   -0.2490 H   0  0  0  1  0  0  0  0  0  0  0  0
    5.4360   -0.6797    1.0495 H   0  0  0  1  0  0  0  0  0  0  0  0
    7.0186   -0.8648    1.1972 H   0  0  0  1  0  0  0  0  0  0  0  0
  1  2  4  0  0  0  0
  1  6  4  0  0  0  0
  2  3  4  0  0  0  0
  2 18  1  0  0  0  0
  3  4  4  0  0  0  0
  4  5  4  0  0  0  0
  4  7  4  0  0  0  0
  5  6  4  0  0  0  0
  5  9  4  0  0  0  0
  6 25  1  0  0  0  0
  7  8  4  0  0  0  0
  7 26  1  0  0  0  0
  8  9  4  0  0  0  0
  9 10  1  0  0  0  0
 10 11  4  0  0  0  0
 10 15  4  0  0  0  0
 11 12  4  0  0  0  0
 11 27  1  0  0  0  0
 12 13  4  0  0  0  0
 12 28  1  0  0  0  0
 13 14  4  0  0  0  0
 13 16  1  0  0  0  0
 14 15  4  0  0  0  0
 14 29  1  0  0  0  0
 15 30  1  0  0  0  0
 16 17  1  0  0  0  0
 17 31  1  0  0  0  0
 17 32  1  0  0  0  0
 17 33  1  0  0  0  0
 18 19  1  0  0  0  0
 18 34  1  0  0  0  0
 19 20  1  0  0  0  0
 19 23  1  0  0  0  0
 19 35  1  0  0  0  0
 20 21  1  0  0  0  0
 20 36  1  0  0  0  0
 20 37  1  0  0  0  0
 21 22  1  0  0  0  0
 21 24  1  0  0  0  0
 21 38  1  0  0  0  0
 22 23  1  0  0  0  0
 22 39  1  0  0  0  0
 22 40  1  0  0  0  0
 23 41  1  0  0  0  0
 23 42  1  0  0  0  0
 24 43  1  0  0  0  0
 24 44  1  0  0  0  0
M  END
> <ConfClashScore>
0 

> <ConfOneFourInteractionScore>
-0.984337 

> <ConfScore>
-0.107419 

> <ConfScorePBest>
0.00492605 

> <ConfTolerance>
0.248172 

$$$$
c13.sdf
 OpenBabel04162418043D

 44 47  0  0  0  0  0  0  0  0999 V2000
    1.4362    2.1816   -2.8893 N   0  0  0  1  0  0  0  0  0  0  0  0
    2.2098    1.8819   -1.8597 C   0  0  0  1  0  0  0  0  0  0  0  0
    1.8147    2.0256   -0.6154 N   0  0  0  1  0  0  0  0  0  0  0  0
    0.5919    2.4893   -0.3449 C   0  0  0  1  0  0  0  0  0  0  0  0
   -0.2612    2.8194   -1.4195 C   0  0  0  1  0  0  0  0  0  0  0  0
    0.2111    2.6466   -2.7172 C   0  0  0  1  0  0  0  0  0  0  0  0
   -0.1252    2.7557    0.8420 C   0  0  0  1  0  0  0  0  0  0  0  0
   -1.3059    3.2064    0.5255 N   0  0  0  1  0  0  0  0  0  0  0  0
   -1.4337    3.2624   -0.8686 N   0  0  0  1  0  0  0  0  0  0  0  0
   -2.6258    3.7190   -1.4662 C   0  0  0  1  0  0  0  0  0  0  0  0
   -3.7889    2.9724   -1.4625 C   0  0  0  1  0  0  0  0  0  0  0  0
   -4.9350    3.4722   -2.0607 C   0  0  0  1  0  0  0  0  0  0  0  0
   -4.9135    4.7148   -2.6656 C   0  0  0  1  0  0  0  0  0  0  0  0
   -3.7468    5.4635   -2.6692 C   0  0  0  1  0  0  0  0  0  0  0  0
   -2.6039    4.9653   -2.0727 C   0  0  0  1  0  0  0  0  0  0  0  0
   -6.0889    5.0949   -3.2203 O   0  0  0  1  0  0  0  0  0  0  0  0
   -6.1963    6.4574   -3.6611 C   0  0  0  1  0  0  0  0  0  0  0  0
    3.4484    1.4121   -2.0940 N   0  0  0  1  0  0  0  0  0  0  0  0
    4.4246    1.0784   -1.0232 C   0  0  0  1  0  0  0  0  0  0  0  0
    5.2642   -0.1427   -1.3989 C   0  0  0  1  0  0  0  0  0  0  0  0
    6.5280   -0.0297   -0.5393 C   0  0  0  1  0  0  0  0  0  0  0  0
    6.7183    1.4724   -0.2934 C   0  0  0  1  0  0  0  0  0  0  0  0
    5.4896    2.1688   -0.8831 C   0  0  0  1  0  0  0  0  0  0  0  0
    6.3465   -0.7520    0.7542 N   0  0  0  1  0  0  0  0  0  0  0  0
   -0.3879    2.8788   -3.5350 H   0  0  0  1  0  0  0  0  0  0  0  0
    0.2304    2.6154    1.8092 H   0  0  0  1  0  0  0  0  0  0  0  0
   -3.8041    2.0357   -1.0109 H   0  0  0  1  0  0  0  0  0  0  0  0
   -5.8113    2.9122   -2.0545 H   0  0  0  1  0  0  0  0  0  0  0  0
   -3.7316    6.4003   -3.1208 H   0  0  0  1  0  0  0  0  0  0  0  0
   -1.7276    5.5253   -2.0790 H   0  0  0  1  0  0  0  0  0  0  0  0
   -5.9060    7.1136   -2.8673 H   0  0  0  1  0  0  0  0  0  0  0  0
   -7.2085    6.6627   -3.9411 H   0  0  0  1  0  0  0  0  0  0  0  0
   -5.5546    6.6112   -4.5034 H   0  0  0  1  0  0  0  0  0  0  0  0
    3.7235    1.2821   -3.0255 H   0  0  0  1  0  0  0  0  0  0  0  0
    3.9043    0.9231   -0.1012 H   0  0  0  1  0  0  0  0  0  0  0  0
    4.7361   -1.0461   -1.1752 H   0  0  0  1  0  0  0  0  0  0  0  0
    5.5132   -0.1229   -2.4393 H   0  0  0  1  0  0  0  0  0  0  0  0
    7.3716   -0.4340   -1.0588 H   0  0  0  1  0  0  0  0  0  0  0  0
    6.7864    1.6692    0.7561 H   0  0  0  1  0  0  0  0  0  0  0  0
    7.6070    1.8167   -0.7798 H   0  0  0  1  0  0  0  0  0  0  0  0
    5.1481    2.9419   -0.2269 H   0  0  0  1  0  0  0  0  0  0  0  0
    5.7218    2.5887   -1.8395 H   0  0  0  1  0  0  0  0  0  0  0  0
    6.2720   -1.7142    0.5840 H   0  0  0  1  0  0  0  0  0  0  0  0
    5.5303   -0.4342    1.1938 H   0  0  0  1  0  0  0  0  0  0  0  0
  1  2  4  0  0  0  0
  1  6  4  0  0  0  0
  2  3  4  0  0  0  0
  2 18  1  0  0  0  0
  3  4  4  0  0  0  0
  4  5  4  0  0  0  0
  4  7  4  0  0  0  0
  5  6  4  0  0  0  0
  5  9  4  0  0  0  0
  6 25  1  0  0  0  0
  7  8  4  0  0  0  0
  7 26  1  0  0  0  0
  8  9  4  0  0  0  0
  9 10  1  0  0  0  0
 10 11  4  0  0  0  0
 10 15  4  0  0  0  0
 11 12  4  0  0  0  0
 11 27  1  0  0  0  0
 12 13  4  0  0  0  0
 12 28  1  0  0  0  0
 13 14  4  0  0  0  0
 13 16  1  0  0  0  0
 14 15  4  0  0  0  0
 14 29  1  0  0  0  0
 15 30  1  0  0  0  0
 16 17  1  0  0  0  0
 17 31  1  0  0  0  0
 17 32  1  0  0  0  0
 17 33  1  0  0  0  0
 18 19  1  0  0  0  0
 18 34  1  0  0  0  0
 19 20  1  0  0  0  0
 19 23  1  0  0  0  0
 19 35  1  0  0  0  0
 20 21  1  0  0  0  0
 20 36  1  0  0  0  0
 20 37  1  0  0  0  0
 21 22  1  0  0  0  0
 21 24  1  0  0  0  0
 21 38  1  0  0  0  0
 22 23  1  0  0  0  0
 22 39  1  0  0  0  0
 22 40  1  0  0  0  0
 23 41  1  0  0  0  0
 23 42  1  0  0  0  0
 24 43  1  0  0  0  0
 24 44  1  0  0  0  0
M  END
> <ConfClashScore>
0 

> <ConfOneFourInteractionScore>
-0.984337 

> <ConfScore>
-0.104873 

> <ConfScorePBest>
0.00491272 

> <ConfTolerance>
0.20665 

$$$$
c13.sdf
 OpenBabel04162418043D

 44 47  0  0  0  0  0  0  0  0999 V2000
    1.9406    2.5044   -0.8587 N   0  0  0  1  0  0  0  0  0  0  0  0
    2.4055    2.2131   -2.0618 C   0  0  0  1  0  0  0  0  0  0  0  0
    1.8256    2.6334   -3.1627 N   0  0  0  1  0  0  0  0  0  0  0  0
    0.7234    3.3849   -3.1003 C   0  0  0  1  0  0  0  0  0  0  0  0
    0.1990    3.7155   -1.8326 C   0  0  0  1  0  0  0  0  0  0  0  0
    0.8556    3.2422   -0.7004 C   0  0  0  1  0  0  0  0  0  0  0  0
   -0.1220    3.9833   -4.0602 C   0  0  0  1  0  0  0  0  0  0  0  0
   -1.0743    4.6204   -3.4401 N   0  0  0  1  0  0  0  0  0  0  0  0
   -0.9143    4.4808   -2.0552 N   0  0  0  1  0  0  0  0  0  0  0  0
   -1.9156    4.9764   -1.1959 C   0  0  0  1  0  0  0  0  0  0  0  0
   -2.1582    6.3369   -1.2128 C   0  0  0  1  0  0  0  0  0  0  0  0
   -3.1357    6.8768   -0.3916 C   0  0  0  1  0  0  0  0  0  0  0  0
   -3.8641    6.0554    0.4481 C   0  0  0  1  0  0  0  0  0  0  0  0
   -3.6207    4.6908    0.4649 C   0  0  0  1  0  0  0  0  0  0  0  0
   -2.6460    4.1524   -0.3539 C   0  0  0  1  0  0  0  0  0  0  0  0
   -4.8260    6.5185    1.2759 O   0  0  0  1  0  0  0  0  0  0  0  0
   -5.7002    5.5886    1.9343 C   0  0  0  1  0  0  0  0  0  0  0  0
    3.5133    1.4601   -2.2320 N   0  0  0  1  0  0  0  0  0  0  0  0
    4.3963    1.0457   -1.1369 C   0  0  0  1  0  0  0  0  0  0  0  0
    5.2736   -0.1366   -1.5488 C   0  0  0  1  0  0  0  0  0  0  0  0
    6.4674   -0.0928   -0.5888 C   0  0  0  1  0  0  0  0  0  0  0  0
    6.6241    1.3836   -0.2034 C   0  0  0  1  0  0  0  0  0  0  0  0
    5.4371    2.1236   -0.8245 C   0  0  0  1  0  0  0  0  0  0  0  0
    6.1973   -0.9161    0.6121 N   0  0  0  1  0  0  0  0  0  0  0  0
    0.4995    3.4645    0.2511 H   0  0  0  1  0  0  0  0  0  0  0  0
   -0.0038    3.9251   -5.0918 H   0  0  0  1  0  0  0  0  0  0  0  0
   -1.6073    6.9556   -1.8416 H   0  0  0  1  0  0  0  0  0  0  0  0
   -3.3210    7.9000   -0.4072 H   0  0  0  1  0  0  0  0  0  0  0  0
   -4.1715    4.0721    1.0938 H   0  0  0  1  0  0  0  0  0  0  0  0
   -2.4607    3.1292   -0.3383 H   0  0  0  1  0  0  0  0  0  0  0  0
   -6.1891    4.9790    1.2034 H   0  0  0  1  0  0  0  0  0  0  0  0
   -6.4336    6.1267    2.4979 H   0  0  0  1  0  0  0  0  0  0  0  0
   -5.1293    4.9674    2.5923 H   0  0  0  1  0  0  0  0  0  0  0  0
    3.7407    1.1735   -3.1412 H   0  0  0  1  0  0  0  0  0  0  0  0
    3.8090    0.8113   -0.2738 H   0  0  0  1  0  0  0  0  0  0  0  0
    5.6007   -0.0279   -2.5618 H   0  0  0  1  0  0  0  0  0  0  0  0
    4.7387   -1.0573   -1.4430 H   0  0  0  1  0  0  0  0  0  0  0  0
    7.3518   -0.4490   -1.0744 H   0  0  0  1  0  0  0  0  0  0  0  0
    6.6104    1.4910    0.8611 H   0  0  0  1  0  0  0  0  0  0  0  0
    7.5438    1.7707   -0.5896 H   0  0  0  1  0  0  0  0  0  0  0  0
    5.0393    2.8373   -0.1336 H   0  0  0  1  0  0  0  0  0  0  0  0
    5.7371    2.6238   -1.7215 H   0  0  0  1  0  0  0  0  0  0  0  0
    5.4669   -0.5139    1.1270 H   0  0  0  1  0  0  0  0  0  0  0  0
    7.0037   -0.9580    1.1674 H   0  0  0  1  0  0  0  0  0  0  0  0
  1  2  4  0  0  0  0
  1  6  4  0  0  0  0
  2  3  4  0  0  0  0
  2 18  1  0  0  0  0
  3  4  4  0  0  0  0
  4  5  4  0  0  0  0
  4  7  4  0  0  0  0
  5  6  4  0  0  0  0
  5  9  4  0  0  0  0
  6 25  1  0  0  0  0
  7  8  4  0  0  0  0
  7 26  1  0  0  0  0
  8  9  4  0  0  0  0
  9 10  1  0  0  0  0
 10 11  4  0  0  0  0
 10 15  4  0  0  0  0
 11 12  4  0  0  0  0
 11 27  1  0  0  0  0
 12 13  4  0  0  0  0
 12 28  1  0  0  0  0
 13 14  4  0  0  0  0
 13 16  1  0  0  0  0
 14 15  4  0  0  0  0
 14 29  1  0  0  0  0
 15 30  1  0  0  0  0
 16 17  1  0  0  0  0
 17 31  1  0  0  0  0
 17 32  1  0  0  0  0
 17 33  1  0  0  0  0
 18 19  1  0  0  0  0
 18 34  1  0  0  0  0
 19 20  1  0  0  0  0
 19 23  1  0  0  0  0
 19 35  1  0  0  0  0
 20 21  1  0  0  0  0
 20 36  1  0  0  0  0
 20 37  1  0  0  0  0
 21 22  1  0  0  0  0
 21 24  1  0  0  0  0
 21 38  1  0  0  0  0
 22 23  1  0  0  0  0
 22 39  1  0  0  0  0
 22 40  1  0  0  0  0
 23 41  1  0  0  0  0
 23 42  1  0  0  0  0
 24 43  1  0  0  0  0
 24 44  1  0  0  0  0
M  END
> <ConfClashScore>
0 

> <ConfOneFourInteractionScore>
-0.984337 

> <ConfScore>
-0.101871 

> <ConfScorePBest>
0.00489939 

> <ConfTolerance>
0.285531 

$$$$
c13.sdf
 OpenBabel04162418043D

 44 47  0  0  0  0  0  0  0  0999 V2000
    2.5791    3.1313   -2.1041 N   0  0  0  1  0  0  0  0  0  0  0  0
    3.0501    2.3636   -3.0722 C   0  0  0  1  0  0  0  0  0  0  0  0
    2.6558    2.4803   -4.3196 N   0  0  0  1  0  0  0  0  0  0  0  0
    1.7465    3.3984   -4.6569 C   0  0  0  1  0  0  0  0  0  0  0  0
    1.2219    4.2354   -3.6491 C   0  0  0  1  0  0  0  0  0  0  0  0
    1.6767    4.0664   -2.3447 C   0  0  0  1  0  0  0  0  0  0  0  0
    1.1239    3.7768   -5.8665 C   0  0  0  1  0  0  0  0  0  0  0  0
    0.2962    4.7531   -5.6238 N   0  0  0  1  0  0  0  0  0  0  0  0
    0.3247    5.0703   -4.2594 N   0  0  0  1  0  0  0  0  0  0  0  0
   -0.5125    6.1175   -3.7793 C   0  0  0  1  0  0  0  0  0  0  0  0
   -0.4133    6.5340   -2.4652 C   0  0  0  1  0  0  0  0  0  0  0  0
   -1.2245    7.5570   -1.9994 C   0  0  0  1  0  0  0  0  0  0  0  0
   -2.1362    8.1569   -2.8475 C   0  0  0  1  0  0  0  0  0  0  0  0
   -2.2356    7.7390   -4.1655 C   0  0  0  1  0  0  0  0  0  0  0  0
   -1.4269    6.7190   -4.6301 C   0  0  0  1  0  0  0  0  0  0  0  0
   -2.9323    9.1527   -2.3910 O   0  0  0  1  0  0  0  0  0  0  0  0
   -2.5890    9.7394   -1.1259 C   0  0  0  1  0  0  0  0  0  0  0  0
    3.9739    1.4340   -2.7174 N   0  0  0  1  0  0  0  0  0  0  0  0
    4.4118    1.2064   -1.3473 C   0  0  0  1  0  0  0  0  0  0  0  0
    5.0017   -0.2018   -1.1991 C   0  0  0  1  0  0  0  0  0  0  0  0
    6.4047   -0.0262   -0.6134 C   0  0  0  1  0  0  0  0  0  0  0  0
    6.4251    1.3779   -0.0044 C   0  0  0  1  0  0  0  0  0  0  0  0
    5.5516    2.1638   -0.9824 C   0  0  0  1  0  0  0  0  0  0  0  0
    6.6625   -1.0554    0.4402 N   0  0  0  1  0  0  0  0  0  0  0  0
    1.3138    4.6640   -1.5747 H   0  0  0  1  0  0  0  0  0  0  0  0
    1.2975    3.3470   -6.7976 H   0  0  0  1  0  0  0  0  0  0  0  0
    0.2699    6.0800   -1.8260 H   0  0  0  1  0  0  0  0  0  0  0  0
   -1.1470    7.8732   -1.0117 H   0  0  0  1  0  0  0  0  0  0  0  0
   -2.9188    8.1930   -4.8048 H   0  0  0  1  0  0  0  0  0  0  0  0
   -1.5043    6.4027   -5.6178 H   0  0  0  1  0  0  0  0  0  0  0  0
   -3.1905   10.6088   -0.9604 H   0  0  0  1  0  0  0  0  0  0  0  0
   -1.5555   10.0167   -1.1303 H   0  0  0  1  0  0  0  0  0  0  0  0
   -2.7652    9.0301   -0.3445 H   0  0  0  1  0  0  0  0  0  0  0  0
    4.3694    0.8836   -3.4253 H   0  0  0  1  0  0  0  0  0  0  0  0
    3.5846    1.3380   -0.6815 H   0  0  0  1  0  0  0  0  0  0  0  0
    4.3967   -0.7882   -0.5396 H   0  0  0  1  0  0  0  0  0  0  0  0
    5.0573   -0.6814   -2.1540 H   0  0  0  1  0  0  0  0  0  0  0  0
    7.1435   -0.1100   -1.3829 H   0  0  0  1  0  0  0  0  0  0  0  0
    7.4195    1.7715    0.0307 H   0  0  0  1  0  0  0  0  0  0  0  0
    6.0051    1.3804    0.9797 H   0  0  0  1  0  0  0  0  0  0  0  0
    5.1670    3.0474   -0.5175 H   0  0  0  1  0  0  0  0  0  0  0  0
    6.1108    2.4332   -1.8540 H   0  0  0  1  0  0  0  0  0  0  0  0
    5.9607   -1.0078    1.1226 H   0  0  0  1  0  0  0  0  0  0  0  0
    7.5338   -0.8862    0.8556 H   0  0  0  1  0  0  0  0  0  0  0  0
  1  2  4  0  0  0  0
  1  6  4  0  0  0  0
  2  3  4  0  0  0  0
  2 18  1  0  0  0  0
  3  4  4  0  0  0  0
  4  5  4  0  0  0  0
  4  7  4  0  0  0  0
  5  6  4  0  0  0  0
  5  9  4  0  0  0  0
  6 25  1  0  0  0  0
  7  8  4  0  0  0  0
  7 26  1  0  0  0  0
  8  9  4  0  0  0  0
  9 10  1  0  0  0  0
 10 11  4  0  0  0  0
 10 15  4  0  0  0  0
 11 12  4  0  0  0  0
 11 27  1  0  0  0  0
 12 13  4  0  0  0  0
 12 28  1  0  0  0  0
 13 14  4  0  0  0  0
 13 16  1  0  0  0  0
 14 15  4  0  0  0  0
 14 29  1  0  0  0  0
 15 30  1  0  0  0  0
 16 17  1  0  0  0  0
 17 31  1  0  0  0  0
 17 32  1  0  0  0  0
 17 33  1  0  0  0  0
 18 19  1  0  0  0  0
 18 34  1  0  0  0  0
 19 20  1  0  0  0  0
 19 23  1  0  0  0  0
 19 35  1  0  0  0  0
 20 21  1  0  0  0  0
 20 36  1  0  0  0  0
 20 37  1  0  0  0  0
 21 22  1  0  0  0  0
 21 24  1  0  0  0  0
 21 38  1  0  0  0  0
 22 23  1  0  0  0  0
 22 39  1  0  0  0  0
 22 40  1  0  0  0  0
 23 41  1  0  0  0  0
 23 42  1  0  0  0  0
 24 43  1  0  0  0  0
 24 44  1  0  0  0  0
M  END
> <ConfClashScore>
0 

> <ConfOneFourInteractionScore>
-0.984337 

> <ConfScore>
-0.100184 

> <ConfScorePBest>
0.00488607 

> <ConfTolerance>
0.315412 

$$$$
c13.sdf
 OpenBabel04162418043D

 44 47  0  0  0  0  0  0  0  0999 V2000
    4.7218    2.3671   -5.0813 N   0  0  0  1  0  0  0  0  0  0  0  0
    4.3193    2.2978   -3.8237 C   0  0  0  1  0  0  0  0  0  0  0  0
    3.3980    3.0950   -3.3332 N   0  0  0  1  0  0  0  0  0  0  0  0
    2.8259    4.0215   -4.1064 C   0  0  0  1  0  0  0  0  0  0  0  0
    3.2309    4.1240   -5.4543 C   0  0  0  1  0  0  0  0  0  0  0  0
    4.2115    3.2527   -5.9193 C   0  0  0  1  0  0  0  0  0  0  0  0
    1.8358    5.0073   -3.9017 C   0  0  0  1  0  0  0  0  0  0  0  0
    1.6511    5.6531   -5.0181 N   0  0  0  1  0  0  0  0  0  0  0  0
    2.4968    5.1378   -6.0091 N   0  0  0  1  0  0  0  0  0  0  0  0
    2.4524    5.7209   -7.3463 C   0  0  0  1  0  0  0  0  0  0  0  0
    3.1701    5.1986   -8.4057 C   0  0  0  1  0  0  0  0  0  0  0  0
    3.0871    5.7892   -9.6570 C   0  0  0  1  0  0  0  0  0  0  0  0
    2.2910    6.9035   -9.8440 C   0  0  0  1  0  0  0  0  0  0  0  0
    1.5713    7.4271   -8.7813 C   0  0  0  1  0  0  0  0  0  0  0  0
    1.6539    6.8383   -7.5336 C   0  0  0  1  0  0  0  0  0  0  0  0
    2.1358    7.5649  -11.0117 O   0  0  0  1  0  0  0  0  0  0  0  0
    2.7525    7.0513  -12.2026 C   0  0  0  1  0  0  0  0  0  0  0  0
    4.8735    1.3766   -3.0151 N   0  0  0  1  0  0  0  0  0  0  0  0
    4.5442    1.2323   -1.5968 C   0  0  0  1  0  0  0  0  0  0  0  0
    4.8961   -0.2092   -1.1071 C   0  0  0  1  0  0  0  0  0  0  0  0
    6.3876   -0.0191   -0.6399 C   0  0  0  1  0  0  0  0  0  0  0  0
    6.3369    1.3361    0.0523 C   0  0  0  1  0  0  0  0  0  0  0  0
    5.3829    2.2009   -0.7604 C   0  0  0  1  0  0  0  0  0  0  0  0
    6.8025   -1.1052    0.3164 N   0  0  0  1  0  0  0  0  0  0  0  0
    4.5363    3.2975   -6.9063 H   0  0  0  1  0  0  0  0  0  0  0  0
    1.3365    5.1880   -3.0075 H   0  0  0  1  0  0  0  0  0  0  0  0
    3.7723    4.3626   -8.2641 H   0  0  0  1  0  0  0  0  0  0  0  0
    3.6240    5.3939  -10.4551 H   0  0  0  1  0  0  0  0  0  0  0  0
    0.9690    8.2631   -8.9229 H   0  0  0  1  0  0  0  0  0  0  0  0
    1.1170    7.2336   -6.7354 H   0  0  0  1  0  0  0  0  0  0  0  0
    2.4922    6.0205  -12.3236 H   0  0  0  1  0  0  0  0  0  0  0  0
    3.8154    7.1435  -12.1218 H   0  0  0  1  0  0  0  0  0  0  0  0
    2.4092    7.6073  -13.0499 H   0  0  0  1  0  0  0  0  0  0  0  0
    5.5372    0.7660   -3.3987 H   0  0  0  1  0  0  0  0  0  0  0  0
    3.5022    1.4267   -1.4506 H   0  0  0  1  0  0  0  0  0  0  0  0
    4.8223   -0.9219   -1.9018 H   0  0  0  1  0  0  0  0  0  0  0  0
    4.2671   -0.5119   -0.2962 H   0  0  0  1  0  0  0  0  0  0  0  0
    7.0567   -0.0036   -1.4747 H   0  0  0  1  0  0  0  0  0  0  0  0
    5.9748    1.2266    1.0532 H   0  0  0  1  0  0  0  0  0  0  0  0
    7.3112    1.7781    0.0713 H   0  0  0  1  0  0  0  0  0  0  0  0
    5.9321    2.8625   -1.3973 H   0  0  0  1  0  0  0  0  0  0  0  0
    4.7533    2.7717   -0.1102 H   0  0  0  1  0  0  0  0  0  0  0  0
    6.2308   -1.0766    1.1119 H   0  0  0  1  0  0  0  0  0  0  0  0
    7.7363   -0.9684    0.5805 H   0  0  0  1  0  0  0  0  0  0  0  0
  1  2  4  0  0  0  0
  1  6  4  0  0  0  0
  2  3  4  0  0  0  0
  2 18  1  0  0  0  0
  3  4  4  0  0  0  0
  4  5  4  0  0  0  0
  4  7  4  0  0  0  0
  5  6  4  0  0  0  0
  5  9  4  0  0  0  0
  6 25  1  0  0  0  0
  7  8  4  0  0  0  0
  7 26  1  0  0  0  0
  8  9  4  0  0  0  0
  9 10  1  0  0  0  0
 10 11  4  0  0  0  0
 10 15  4  0  0  0  0
 11 12  4  0  0  0  0
 11 27  1  0  0  0  0
 12 13  4  0  0  0  0
 12 28  1  0  0  0  0
 13 14  4  0  0  0  0
 13 16  1  0  0  0  0
 14 15  4  0  0  0  0
 14 29  1  0  0  0  0
 15 30  1  0  0  0  0
 16 17  1  0  0  0  0
 17 31  1  0  0  0  0
 17 32  1  0  0  0  0
 17 33  1  0  0  0  0
 18 19  1  0  0  0  0
 18 34  1  0  0  0  0
 19 20  1  0  0  0  0
 19 23  1  0  0  0  0
 19 35  1  0  0  0  0
 20 21  1  0  0  0  0
 20 36  1  0  0  0  0
 20 37  1  0  0  0  0
 21 22  1  0  0  0  0
 21 24  1  0  0  0  0
 21 38  1  0  0  0  0
 22 23  1  0  0  0  0
 22 39  1  0  0  0  0
 22 40  1  0  0  0  0
 23 41  1  0  0  0  0
 23 42  1  0  0  0  0
 24 43  1  0  0  0  0
 24 44  1  0  0  0  0
M  END
> <ConfClashScore>
0 

> <ConfOneFourInteractionScore>
-0.984337 

> <ConfScore>
-0.100184 

> <ConfScorePBest>
0.00487274 

> <ConfTolerance>
0.256908 

$$$$
c13.sdf
 OpenBabel04162418043D

 44 47  0  0  0  0  0  0  0  0999 V2000
    1.6709    0.8162   -1.8083 N   0  0  0  1  0  0  0  0  0  0  0  0
    2.4341    1.2484   -2.7977 C   0  0  0  1  0  0  0  0  0  0  0  0
    1.9597    1.4990   -3.9965 N   0  0  0  1  0  0  0  0  0  0  0  0
    0.6626    1.3211   -4.2598 C   0  0  0  1  0  0  0  0  0  0  0  0
   -0.1819    0.8608   -3.2272 C   0  0  0  1  0  0  0  0  0  0  0  0
    0.3761    0.6118   -1.9767 C   0  0  0  1  0  0  0  0  0  0  0  0
   -0.1473    1.4906   -5.4041 C   0  0  0  1  0  0  0  0  0  0  0  0
   -1.3721    1.1652   -5.1020 N   0  0  0  1  0  0  0  0  0  0  0  0
   -1.4396    0.7679   -3.7602 N   0  0  0  1  0  0  0  0  0  0  0  0
   -2.6981    0.5167   -3.1770 C   0  0  0  1  0  0  0  0  0  0  0  0
   -3.1579    1.2176   -2.0782 C   0  0  0  1  0  0  0  0  0  0  0  0
   -4.4065    0.9332   -1.5477 C   0  0  0  1  0  0  0  0  0  0  0  0
   -5.1895   -0.0549   -2.1142 C   0  0  0  1  0  0  0  0  0  0  0  0
   -4.7281   -0.7579   -3.2163 C   0  0  0  1  0  0  0  0  0  0  0  0
   -3.4831   -0.4744   -3.7454 C   0  0  0  1  0  0  0  0  0  0  0  0
   -6.3584   -0.4013   -1.5409 O   0  0  0  1  0  0  0  0  0  0  0  0
   -7.1171   -1.4045   -2.2554 C   0  0  0  1  0  0  0  0  0  0  0  0
    3.7460    1.4390   -2.5694 N   0  0  0  1  0  0  0  0  0  0  0  0
    4.3989    1.1712   -1.2853 C   0  0  0  1  0  0  0  0  0  0  0  0
    5.1352   -0.1709   -1.3225 C   0  0  0  1  0  0  0  0  0  0  0  0
    6.3964    0.0309   -0.4719 C   0  0  0  1  0  0  0  0  0  0  0  0
    6.3589    1.4840    0.0129 C   0  0  0  1  0  0  0  0  0  0  0  0
    5.4966    2.2048   -1.0102 C   0  0  0  1  0  0  0  0  0  0  0  0
    6.3895   -0.9046    0.6945 N   0  0  0  1  0  0  0  0  0  0  0  0
   -0.2139    0.2716   -1.1907 H   0  0  0  1  0  0  0  0  0  0  0  0
    0.1800    1.8207   -6.3344 H   0  0  0  1  0  0  0  0  0  0  0  0
   -2.5671    1.9584   -1.6494 H   0  0  0  1  0  0  0  0  0  0  0  0
   -4.7543    1.4633   -0.7233 H   0  0  0  1  0  0  0  0  0  0  0  0
   -5.3189   -1.4987   -3.6451 H   0  0  0  1  0  0  0  0  0  0  0  0
   -3.1353   -1.0045   -4.5697 H   0  0  0  1  0  0  0  0  0  0  0  0
   -6.6445   -2.3577   -2.1420 H   0  0  0  1  0  0  0  0  0  0  0  0
   -7.1580   -1.1482   -3.2935 H   0  0  0  1  0  0  0  0  0  0  0  0
   -8.1100   -1.4496   -1.8593 H   0  0  0  1  0  0  0  0  0  0  0  0
    4.2977    1.7771   -3.3054 H   0  0  0  1  0  0  0  0  0  0  0  0
    3.6677    1.1796   -0.5042 H   0  0  0  1  0  0  0  0  0  0  0  0
    5.3988   -0.4251   -2.3278 H   0  0  0  1  0  0  0  0  0  0  0  0
    4.5237   -0.9445   -0.9070 H   0  0  0  1  0  0  0  0  0  0  0  0
    7.2725   -0.1404   -1.0619 H   0  0  0  1  0  0  0  0  0  0  0  0
    7.3444    1.9001    0.0370 H   0  0  0  1  0  0  0  0  0  0  0  0
    5.9211    1.5463    0.9873 H   0  0  0  1  0  0  0  0  0  0  0  0
    5.0881    3.1079   -0.6073 H   0  0  0  1  0  0  0  0  0  0  0  0
    6.0512    2.4284   -1.8976 H   0  0  0  1  0  0  0  0  0  0  0  0
    7.1332   -0.6855    1.2940 H   0  0  0  1  0  0  0  0  0  0  0  0
    6.4883   -1.8257    0.3749 H   0  0  0  1  0  0  0  0  0  0  0  0
  1  2  4  0  0  0  0
  1  6  4  0  0  0  0
  2  3  4  0  0  0  0
  2 18  1  0  0  0  0
  3  4  4  0  0  0  0
  4  5  4  0  0  0  0
  4  7  4  0  0  0  0
  5  6  4  0  0  0  0
  5  9  4  0  0  0  0
  6 25  1  0  0  0  0
  7  8  4  0  0  0  0
  7 26  1  0  0  0  0
  8  9  4  0  0  0  0
  9 10  1  0  0  0  0
 10 11  4  0  0  0  0
 10 15  4  0  0  0  0
 11 12  4  0  0  0  0
 11 27  1  0  0  0  0
 12 13  4  0  0  0  0
 12 28  1  0  0  0  0
 13 14  4  0  0  0  0
 13 16  1  0  0  0  0
 14 15  4  0  0  0  0
 14 29  1  0  0  0  0
 15 30  1  0  0  0  0
 16 17  1  0  0  0  0
 17 31  1  0  0  0  0
 17 32  1  0  0  0  0
 17 33  1  0  0  0  0
 18 19  1  0  0  0  0
 18 34  1  0  0  0  0
 19 20  1  0  0  0  0
 19 23  1  0  0  0  0
 19 35  1  0  0  0  0
 20 21  1  0  0  0  0
 20 36  1  0  0  0  0
 20 37  1  0  0  0  0
 21 22  1  0  0  0  0
 21 24  1  0  0  0  0
 21 38  1  0  0  0  0
 22 23  1  0  0  0  0
 22 39  1  0  0  0  0
 22 40  1  0  0  0  0
 23 41  1  0  0  0  0
 23 42  1  0  0  0  0
 24 43  1  0  0  0  0
 24 44  1  0  0  0  0
M  END
> <ConfClashScore>
0 

> <ConfOneFourInteractionScore>
-0.984337 

> <ConfScore>
-0.0977162 

> <ConfScorePBest>
0.00485941 

> <ConfTolerance>
0.241262 

$$$$
c13.sdf
 OpenBabel04162418043D

 44 47  0  0  0  0  0  0  0  0999 V2000
    4.5220    2.8767   -4.7862 N   0  0  0  1  0  0  0  0  0  0  0  0
    4.1124    2.4883   -3.5905 C   0  0  0  1  0  0  0  0  0  0  0  0
    2.9891    2.9120   -3.0579 N   0  0  0  1  0  0  0  0  0  0  0  0
    2.2079    3.7677   -3.7220 C   0  0  0  1  0  0  0  0  0  0  0  0
    2.6138    4.2037   -5.0012 C   0  0  0  1  0  0  0  0  0  0  0  0
    3.8137    3.7213   -5.5154 C   0  0  0  1  0  0  0  0  0  0  0  0
    0.9757    4.4004   -3.4472 C   0  0  0  1  0  0  0  0  0  0  0  0
    0.6562    5.1529   -4.4616 N   0  0  0  1  0  0  0  0  0  0  0  0
    1.6452    5.0612   -5.4497 N   0  0  0  1  0  0  0  0  0  0  0  0
    1.5325    5.7822   -6.6477 C   0  0  0  1  0  0  0  0  0  0  0  0
    1.4518    7.1549   -6.5083 C   0  0  0  1  0  0  0  0  0  0  0  0
    1.3432    7.9602   -7.6314 C   0  0  0  1  0  0  0  0  0  0  0  0
    1.3103    7.3902   -8.8901 C   0  0  0  1  0  0  0  0  0  0  0  0
    1.3913    6.0134   -9.0297 C   0  0  0  1  0  0  0  0  0  0  0  0
    1.4996    5.2104   -7.9100 C   0  0  0  1  0  0  0  0  0  0  0  0
    1.1970    8.2748   -9.9092 O   0  0  0  1  0  0  0  0  0  0  0  0
    1.1547    7.7376  -11.2457 C   0  0  0  1  0  0  0  0  0  0  0  0
    4.8845    1.6146   -2.8824 N   0  0  0  1  0  0  0  0  0  0  0  0
    4.5193    1.1862   -1.5282 C   0  0  0  1  0  0  0  0  0  0  0  0
    5.0627   -0.2171   -1.2393 C   0  0  0  1  0  0  0  0  0  0  0  0
    6.4048   -0.0188   -0.5220 C   0  0  0  1  0  0  0  0  0  0  0  0
    6.6017    1.4974   -0.4367 C   0  0  0  1  0  0  0  0  0  0  0  0
    5.1824    2.0732   -0.4873 C   0  0  0  1  0  0  0  0  0  0  0  0
    6.3591   -0.6177    0.8473 N   0  0  0  1  0  0  0  0  0  0  0  0
    4.1464    4.0195   -6.4546 H   0  0  0  1  0  0  0  0  0  0  0  0
    0.4157    4.2847   -2.5785 H   0  0  0  1  0  0  0  0  0  0  0  0
    1.4725    7.5836   -5.5610 H   0  0  0  1  0  0  0  0  0  0  0  0
    1.2865    8.9934   -7.5268 H   0  0  0  1  0  0  0  0  0  0  0  0
    1.3706    5.5847   -9.9770 H   0  0  0  1  0  0  0  0  0  0  0  0
    1.5563    4.1772   -8.0145 H   0  0  0  1  0  0  0  0  0  0  0  0
    1.3063    8.5263  -11.9526 H   0  0  0  1  0  0  0  0  0  0  0  0
    0.2011    7.2836  -11.4173 H   0  0  0  1  0  0  0  0  0  0  0  0
    1.9252    7.0039  -11.3595 H   0  0  0  1  0  0  0  0  0  0  0  0
    5.7044    1.2642   -3.2891 H   0  0  0  1  0  0  0  0  0  0  0  0
    3.4549    1.2088   -1.4214 H   0  0  0  1  0  0  0  0  0  0  0  0
    5.2070   -0.7541   -2.1534 H   0  0  0  1  0  0  0  0  0  0  0  0
    4.3834   -0.7556   -0.6121 H   0  0  0  1  0  0  0  0  0  0  0  0
    7.1982   -0.4680   -1.0821 H   0  0  0  1  0  0  0  0  0  0  0  0
    7.0856    1.7647    0.4794 H   0  0  0  1  0  0  0  0  0  0  0  0
    7.1823    1.8501   -1.2634 H   0  0  0  1  0  0  0  0  0  0  0  0
    5.1891    3.0974   -0.7968 H   0  0  0  1  0  0  0  0  0  0  0  0
    4.6950    1.9900    0.4616 H   0  0  0  1  0  0  0  0  0  0  0  0
    7.2194   -0.4767    1.2949 H   0  0  0  1  0  0  0  0  0  0  0  0
    6.1810   -1.5788    0.7774 H   0  0  0  1  0  0  0  0  0  0  0  0
  1  2  4  0  0  0  0
  1  6  4  0  0  0  0
  2  3  4  0  0  0  0
  2 18  1  0  0  0  0
  3  4  4  0  0  0  0
  4  5  4  0  0  0  0
  4  7  4  0  0  0  0
  5  6  4  0  0  0  0
  5  9  4  0  0  0  0
  6 25  1  0  0  0  0
  7  8  4  0  0  0  0
  7 26  1  0  0  0  0
  8  9  4  0  0  0  0
  9 10  1  0  0  0  0
 10 11  4  0  0  0  0
 10 15  4  0  0  0  0
 11 12  4  0  0  0  0
 11 27  1  0  0  0  0
 12 13  4  0  0  0  0
 12 28  1  0  0  0  0
 13 14  4  0  0  0  0
 13 16  1  0  0  0  0
 14 15  4  0  0  0  0
 14 29  1  0  0  0  0
 15 30  1  0  0  0  0
 16 17  1  0  0  0  0
 17 31  1  0  0  0  0
 17 32  1  0  0  0  0
 17 33  1  0  0  0  0
 18 19  1  0  0  0  0
 18 34  1  0  0  0  0
 19 20  1  0  0  0  0
 19 23  1  0  0  0  0
 19 35  1  0  0  0  0
 20 21  1  0  0  0  0
 20 36  1  0  0  0  0
 20 37  1  0  0  0  0
 21 22  1  0  0  0  0
 21 24  1  0  0  0  0
 21 38  1  0  0  0  0
 22 23  1  0  0  0  0
 22 39  1  0  0  0  0
 22 40  1  0  0  0  0
 23 41  1  0  0  0  0
 23 42  1  0  0  0  0
 24 43  1  0  0  0  0
 24 44  1  0  0  0  0
M  END
> <ConfClashScore>
0 

> <ConfOneFourInteractionScore>
-0.984337 

> <ConfScore>
-0.097258 

> <ConfScorePBest>
0.00484608 

> <ConfTolerance>
0.399782 

$$$$
c13.sdf
 OpenBabel04162418043D

 44 47  0  0  0  0  0  0  0  0999 V2000
    2.0216   -0.2809   -1.5248 N   0  0  0  1  0  0  0  0  0  0  0  0
    2.2936    0.7769   -2.2700 C   0  0  0  1  0  0  0  0  0  0  0  0
    1.4618    1.2319   -3.1789 N   0  0  0  1  0  0  0  0  0  0  0  0
    0.2890    0.6269   -3.3837 C   0  0  0  1  0  0  0  0  0  0  0  0
   -0.0347   -0.5054   -2.6062 C   0  0  0  1  0  0  0  0  0  0  0  0
    0.8853   -0.9426   -1.6579 C   0  0  0  1  0  0  0  0  0  0  0  0
   -0.8012    0.8502   -4.2529 C   0  0  0  1  0  0  0  0  0  0  0  0
   -1.7076   -0.0587   -4.0297 N   0  0  0  1  0  0  0  0  0  0  0  0
   -1.2734   -0.9216   -3.0149 N   0  0  0  1  0  0  0  0  0  0  0  0
   -2.0880   -2.0068   -2.5827 C   0  0  0  1  0  0  0  0  0  0  0  0
   -3.4364   -2.0220   -2.8855 C   0  0  0  1  0  0  0  0  0  0  0  0
   -4.2281   -3.0810   -2.4694 C   0  0  0  1  0  0  0  0  0  0  0  0
   -3.6704   -4.1189   -1.7470 C   0  0  0  1  0  0  0  0  0  0  0  0
   -2.3179   -4.1035   -1.4433 C   0  0  0  1  0  0  0  0  0  0  0  0
   -1.5283   -3.0477   -1.8582 C   0  0  0  1  0  0  0  0  0  0  0  0
   -4.4450   -5.1509   -1.3359 O   0  0  0  1  0  0  0  0  0  0  0  0
   -5.7717   -5.2327   -1.8798 C   0  0  0  1  0  0  0  0  0  0  0  0
    3.4659    1.4120   -2.0916 N   0  0  0  1  0  0  0  0  0  0  0  0
    4.4266    1.0762   -1.0309 C   0  0  0  1  0  0  0  0  0  0  0  0
    5.2724   -0.1387   -1.4128 C   0  0  0  1  0  0  0  0  0  0  0  0
    6.5314   -0.0289   -0.5457 C   0  0  0  1  0  0  0  0  0  0  0  0
    6.7151    1.4717   -0.2857 C   0  0  0  1  0  0  0  0  0  0  0  0
    5.4871    2.1690   -0.8757 C   0  0  0  1  0  0  0  0  0  0  0  0
    6.3436   -0.7710    0.7544 N   0  0  0  1  0  0  0  0  0  0  0  0
    0.6827   -1.7733   -1.0658 H   0  0  0  1  0  0  0  0  0  0  0  0
   -0.8695    1.6141   -4.9553 H   0  0  0  1  0  0  0  0  0  0  0  0
   -3.8569   -1.2391   -3.4256 H   0  0  0  1  0  0  0  0  0  0  0  0
   -5.2420   -3.0944   -2.7007 H   0  0  0  1  0  0  0  0  0  0  0  0
   -1.8973   -4.8865   -0.9032 H   0  0  0  1  0  0  0  0  0  0  0  0
   -0.5145   -3.0342   -1.6269 H   0  0  0  1  0  0  0  0  0  0  0  0
   -6.2786   -6.0761   -1.4595 H   0  0  0  1  0  0  0  0  0  0  0  0
   -5.7150   -5.3442   -2.9424 H   0  0  0  1  0  0  0  0  0  0  0  0
   -6.3099   -4.3389   -1.6426 H   0  0  0  1  0  0  0  0  0  0  0  0
    3.6930    2.1418   -2.7050 H   0  0  0  1  0  0  0  0  0  0  0  0
    3.9020    0.9110   -0.1131 H   0  0  0  1  0  0  0  0  0  0  0  0
    4.7463   -1.0458   -1.1998 H   0  0  0  1  0  0  0  0  0  0  0  0
    5.5268   -0.1089   -2.4517 H   0  0  0  1  0  0  0  0  0  0  0  0
    7.3790   -0.4256   -1.0643 H   0  0  0  1  0  0  0  0  0  0  0  0
    7.6051    1.8233   -0.7643 H   0  0  0  1  0  0  0  0  0  0  0  0
    6.7770    1.6595    0.7659 H   0  0  0  1  0  0  0  0  0  0  0  0
    5.1394    2.9351   -0.2146 H   0  0  0  1  0  0  0  0  0  0  0  0
    5.7228    2.5981   -1.8271 H   0  0  0  1  0  0  0  0  0  0  0  0
    6.2115   -1.7245    0.5706 H   0  0  0  1  0  0  0  0  0  0  0  0
    5.5585   -0.4169    1.2220 H   0  0  0  1  0  0  0  0  0  0  0  0
  1  2  4  0  0  0  0
  1  6  4  0  0  0  0
  2  3  4  0  0  0  0
  2 18  1  0  0  0  0
  3  4  4  0  0  0  0
  4  5  4  0  0  0  0
  4  7  4  0  0  0  0
  5  6  4  0  0  0  0
  5  9  4  0  0  0  0
  6 25  1  0  0  0  0
  7  8  4  0  0  0  0
  7 26  1  0  0  0  0
  8  9  4  0  0  0  0
  9 10  1  0  0  0  0
 10 11  4  0  0  0  0
 10 15  4  0  0  0  0
 11 12  4  0  0  0  0
 11 27  1  0  0  0  0
 12 13  4  0  0  0  0
 12 28  1  0  0  0  0
 13 14  4  0  0  0  0
 13 16  1  0  0  0  0
 14 15  4  0  0  0  0
 14 29  1  0  0  0  0
 15 30  1  0  0  0  0
 16 17  1  0  0  0  0
 17 31  1  0  0  0  0
 17 32  1  0  0  0  0
 17 33  1  0  0  0  0
 18 19  1  0  0  0  0
 18 34  1  0  0  0  0
 19 20  1  0  0  0  0
 19 23  1  0  0  0  0
 19 35  1  0  0  0  0
 20 21  1  0  0  0  0
 20 36  1  0  0  0  0
 20 37  1  0  0  0  0
 21 22  1  0  0  0  0
 21 24  1  0  0  0  0
 21 38  1  0  0  0  0
 22 23  1  0  0  0  0
 22 39  1  0  0  0  0
 22 40  1  0  0  0  0
 23 41  1  0  0  0  0
 23 42  1  0  0  0  0
 24 43  1  0  0  0  0
 24 44  1  0  0  0  0
M  END
> <ConfClashScore>
0 

> <ConfOneFourInteractionScore>
-0.984337 

> <ConfScore>
-0.0962907 

> <ConfScorePBest>
0.00483275 

> <ConfTolerance>
0.233511 

$$$$
c13.sdf
 OpenBabel04162418043D

 44 47  0  0  0  0  0  0  0  0999 V2000
    1.4079    1.4243   -3.0958 N   0  0  0  1  0  0  0  0  0  0  0  0
    2.1682    1.1073   -2.0615 C   0  0  0  1  0  0  0  0  0  0  0  0
    1.6922    0.5095   -0.9934 N   0  0  0  1  0  0  0  0  0  0  0  0
    0.3963    0.1960   -0.9164 C   0  0  0  1  0  0  0  0  0  0  0  0
   -0.4451    0.5195   -2.0022 C   0  0  0  1  0  0  0  0  0  0  0  0
    0.1145    1.1527   -3.1080 C   0  0  0  1  0  0  0  0  0  0  0  0
   -0.4146   -0.4291    0.0560 C   0  0  0  1  0  0  0  0  0  0  0  0
   -1.6371   -0.4839   -0.3908 N   0  0  0  1  0  0  0  0  0  0  0  0
   -1.7021    0.0939   -1.6655 N   0  0  0  1  0  0  0  0  0  0  0  0
   -2.9347    0.1586   -2.3742 C   0  0  0  1  0  0  0  0  0  0  0  0
   -3.8765   -0.8403   -2.2149 C   0  0  0  1  0  0  0  0  0  0  0  0
   -5.0791   -0.7744   -2.9010 C   0  0  0  1  0  0  0  0  0  0  0  0
   -5.3343    0.2873   -3.7484 C   0  0  0  1  0  0  0  0  0  0  0  0
   -4.3895    1.2890   -3.9080 C   0  0  0  1  0  0  0  0  0  0  0  0
   -3.1903    1.2235   -3.2240 C   0  0  0  1  0  0  0  0  0  0  0  0
   -6.5337    0.4394   -4.3584 O   0  0  0  1  0  0  0  0  0  0  0  0
   -7.5625   -0.5067   -4.0282 C   0  0  0  1  0  0  0  0  0  0  0  0
    3.4788    1.4077   -2.1036 N   0  0  0  1  0  0  0  0  0  0  0  0
    4.4283    1.0730   -1.0386 C   0  0  0  1  0  0  0  0  0  0  0  0
    5.2808   -0.1386   -1.4160 C   0  0  0  1  0  0  0  0  0  0  0  0
    6.5318   -0.0273   -0.5377 C   0  0  0  1  0  0  0  0  0  0  0  0
    6.7090    1.4731   -0.2724 C   0  0  0  1  0  0  0  0  0  0  0  0
    5.4842    2.1684   -0.8714 C   0  0  0  1  0  0  0  0  0  0  0  0
    6.3368   -0.7657    0.7458 N   0  0  0  1  0  0  0  0  0  0  0  0
   -0.4732    1.4071   -3.9274 H   0  0  0  1  0  0  0  0  0  0  0  0
   -0.0895   -0.7867    0.9769 H   0  0  0  1  0  0  0  0  0  0  0  0
   -3.6829   -1.6412   -1.5804 H   0  0  0  1  0  0  0  0  0  0  0  0
   -5.7895   -1.5240   -2.7782 H   0  0  0  1  0  0  0  0  0  0  0  0
   -4.5831    2.0900   -4.5425 H   0  0  0  1  0  0  0  0  0  0  0  0
   -2.4799    1.9730   -3.3468 H   0  0  0  1  0  0  0  0  0  0  0  0
   -8.4365   -0.3017   -4.6104 H   0  0  0  1  0  0  0  0  0  0  0  0
   -7.8001   -0.4264   -2.9881 H   0  0  0  1  0  0  0  0  0  0  0  0
   -7.2173   -1.4971   -4.2403 H   0  0  0  1  0  0  0  0  0  0  0  0
    3.8187    1.8783   -2.8931 H   0  0  0  1  0  0  0  0  0  0  0  0
    3.8961    0.9041   -0.1258 H   0  0  0  1  0  0  0  0  0  0  0  0
    4.7555   -1.0477   -1.2099 H   0  0  0  1  0  0  0  0  0  0  0  0
    5.5442   -0.1055   -2.4526 H   0  0  0  1  0  0  0  0  0  0  0  0
    7.3851   -0.4204   -1.0498 H   0  0  0  1  0  0  0  0  0  0  0  0
    7.6022    1.8284   -0.7423 H   0  0  0  1  0  0  0  0  0  0  0  0
    6.7611    1.6585    0.7801 H   0  0  0  1  0  0  0  0  0  0  0  0
    5.7270    2.6005   -1.8197 H   0  0  0  1  0  0  0  0  0  0  0  0
    5.1286    2.9319   -0.2115 H   0  0  0  1  0  0  0  0  0  0  0  0
    6.2219   -1.7210    0.5595 H   0  0  0  1  0  0  0  0  0  0  0  0
    5.5392   -0.4238    1.2012 H   0  0  0  1  0  0  0  0  0  0  0  0
  1  2  4  0  0  0  0
  1  6  4  0  0  0  0
  2  3  4  0  0  0  0
  2 18  1  0  0  0  0
  3  4  4  0  0  0  0
  4  5  4  0  0  0  0
  4  7  4  0  0  0  0
  5  6  4  0  0  0  0
  5  9  4  0  0  0  0
  6 25  1  0  0  0  0
  7  8  4  0  0  0  0
  7 26  1  0  0  0  0
  8  9  4  0  0  0  0
  9 10  1  0  0  0  0
 10 11  4  0  0  0  0
 10 15  4  0  0  0  0
 11 12  4  0  0  0  0
 11 27  1  0  0  0  0
 12 13  4  0  0  0  0
 12 28  1  0  0  0  0
 13 14  4  0  0  0  0
 13 16  1  0  0  0  0
 14 15  4  0  0  0  0
 14 29  1  0  0  0  0
 15 30  1  0  0  0  0
 16 17  1  0  0  0  0
 17 31  1  0  0  0  0
 17 32  1  0  0  0  0
 17 33  1  0  0  0  0
 18 19  1  0  0  0  0
 18 34  1  0  0  0  0
 19 20  1  0  0  0  0
 19 23  1  0  0  0  0
 19 35  1  0  0  0  0
 20 21  1  0  0  0  0
 20 36  1  0  0  0  0
 20 37  1  0  0  0  0
 21 22  1  0  0  0  0
 21 24  1  0  0  0  0
 21 38  1  0  0  0  0
 22 23  1  0  0  0  0
 22 39  1  0  0  0  0
 22 40  1  0  0  0  0
 23 41  1  0  0  0  0
 23 42  1  0  0  0  0
 24 43  1  0  0  0  0
 24 44  1  0  0  0  0
M  END
> <ConfClashScore>
0 

> <ConfOneFourInteractionScore>
-0.984337 

> <ConfScore>
-0.095711 

> <ConfScorePBest>
0.00481943 

> <ConfTolerance>
0.245613 

$$$$
c13.sdf
 OpenBabel04162418043D

 44 47  0  0  0  0  0  0  0  0999 V2000
    4.1359    1.7013   -5.0513 N   0  0  0  1  0  0  0  0  0  0  0  0
    3.7984    1.3093   -3.8345 C   0  0  0  1  0  0  0  0  0  0  0  0
    2.6301    0.7731   -3.5651 N   0  0  0  1  0  0  0  0  0  0  0  0
    1.7261    0.6031   -4.5333 C   0  0  0  1  0  0  0  0  0  0  0  0
    2.0524    1.0100   -5.8445 C   0  0  0  1  0  0  0  0  0  0  0  0
    3.3052    1.5721   -6.0711 C   0  0  0  1  0  0  0  0  0  0  0  0
    0.4172    0.0756   -4.5835 C   0  0  0  1  0  0  0  0  0  0  0  0
   -0.0180    0.1517   -5.8091 N   0  0  0  1  0  0  0  0  0  0  0  0
    0.9648    0.7257   -6.6261 N   0  0  0  1  0  0  0  0  0  0  0  0
    0.7335    0.9203   -8.0178 C   0  0  0  1  0  0  0  0  0  0  0  0
   -0.0395    0.0171   -8.7227 C   0  0  0  1  0  0  0  0  0  0  0  0
   -0.2690    0.2094  -10.0761 C   0  0  0  1  0  0  0  0  0  0  0  0
    0.2795    1.3014  -10.7219 C   0  0  0  1  0  0  0  0  0  0  0  0
    1.0548    2.2072  -10.0147 C   0  0  0  1  0  0  0  0  0  0  0  0
    1.2837    2.0155   -8.6652 C   0  0  0  1  0  0  0  0  0  0  0  0
    0.1423    1.4355  -12.0461 O   0  0  0  1  0  0  0  0  0  0  0  0
   -0.6127    0.4638  -12.8452 C   0  0  0  1  0  0  0  0  0  0  0  0
    4.7253    1.4871   -2.8584 N   0  0  0  1  0  0  0  0  0  0  0  0
    4.4885    1.1898   -1.4430 C   0  0  0  1  0  0  0  0  0  0  0  0
    4.9899   -0.2205   -1.0811 C   0  0  0  1  0  0  0  0  0  0  0  0
    6.4822   -0.0783   -0.6198 C   0  0  0  1  0  0  0  0  0  0  0  0
    6.7251    1.4269   -0.5740 C   0  0  0  1  0  0  0  0  0  0  0  0
    5.3542    2.1121   -0.5205 C   0  0  0  1  0  0  0  0  0  0  0  0
    6.6784   -0.6886    0.7365 N   0  0  0  1  0  0  0  0  0  0  0  0
    3.5822    1.8842   -7.0237 H   0  0  0  1  0  0  0  0  0  0  0  0
   -0.1120   -0.3100   -3.7755 H   0  0  0  1  0  0  0  0  0  0  0  0
   -0.4489   -0.8068   -8.2377 H   0  0  0  1  0  0  0  0  0  0  0  0
   -0.8540   -0.4680  -10.6057 H   0  0  0  1  0  0  0  0  0  0  0  0
    1.4643    3.0311  -10.4997 H   0  0  0  1  0  0  0  0  0  0  0  0
    1.8687    2.6930   -8.1356 H   0  0  0  1  0  0  0  0  0  0  0  0
   -0.6819    0.8092  -13.8556 H   0  0  0  1  0  0  0  0  0  0  0  0
   -1.5960    0.3544  -12.4378 H   0  0  0  1  0  0  0  0  0  0  0  0
   -0.1106   -0.4809  -12.8252 H   0  0  0  1  0  0  0  0  0  0  0  0
    5.6046    1.8349   -3.1156 H   0  0  0  1  0  0  0  0  0  0  0  0
    3.4463    1.2959   -1.2252 H   0  0  0  1  0  0  0  0  0  0  0  0
    4.3983   -0.6274   -0.2878 H   0  0  0  1  0  0  0  0  0  0  0  0
    4.9301   -0.8612   -1.9360 H   0  0  0  1  0  0  0  0  0  0  0  0
    7.1410   -0.5465   -1.3209 H   0  0  0  1  0  0  0  0  0  0  0  0
    7.2939    1.6789    0.2965 H   0  0  0  1  0  0  0  0  0  0  0  0
    7.2554    1.7383   -1.4496 H   0  0  0  1  0  0  0  0  0  0  0  0
    5.4035    3.1093   -0.9054 H   0  0  0  1  0  0  0  0  0  0  0  0
    4.9696    2.1332    0.4778 H   0  0  0  1  0  0  0  0  0  0  0  0
    6.3219   -1.6014    0.7392 H   0  0  0  1  0  0  0  0  0  0  0  0
    6.2068   -0.1520    1.4073 H   0  0  0  1  0  0  0  0  0  0  0  0
  1  2  4  0  0  0  0
  1  6  4  0  0  0  0
  2  3  4  0  0  0  0
  2 18  1  0  0  0  0
  3  4  4  0  0  0  0
  4  5  4  0  0  0  0
  4  7  4  0  0  0  0
  5  6  4  0  0  0  0
  5  9  4  0  0  0  0
  6 25  1  0  0  0  0
  7  8  4  0  0  0  0
  7 26  1  0  0  0  0
  8  9  4  0  0  0  0
  9 10  1  0  0  0  0
 10 11  4  0  0  0  0
 10 15  4  0  0  0  0
 11 12  4  0  0  0  0
 11 27  1  0  0  0  0
 12 13  4  0  0  0  0
 12 28  1  0  0  0  0
 13 14  4  0  0  0  0
 13 16  1  0  0  0  0
 14 15  4  0  0  0  0
 14 29  1  0  0  0  0
 15 30  1  0  0  0  0
 16 17  1  0  0  0  0
 17 31  1  0  0  0  0
 17 32  1  0  0  0  0
 17 33  1  0  0  0  0
 18 19  1  0  0  0  0
 18 34  1  0  0  0  0
 19 20  1  0  0  0  0
 19 23  1  0  0  0  0
 19 35  1  0  0  0  0
 20 21  1  0  0  0  0
 20 36  1  0  0  0  0
 20 37  1  0  0  0  0
 21 22  1  0  0  0  0
 21 24  1  0  0  0  0
 21 38  1  0  0  0  0
 22 23  1  0  0  0  0
 22 39  1  0  0  0  0
 22 40  1  0  0  0  0
 23 41  1  0  0  0  0
 23 42  1  0  0  0  0
 24 43  1  0  0  0  0
 24 44  1  0  0  0  0
M  END
> <ConfClashScore>
0 

> <ConfOneFourInteractionScore>
-0.984337 

> <ConfScore>
-0.095711 

> <ConfScorePBest>
0.0048061 

> <ConfTolerance>
0.290353 

$$$$
c13.sdf
 OpenBabel04162418043D

 44 47  0  0  0  0  0  0  0  0999 V2000
    1.5512    2.6735   -2.6605 N   0  0  0  1  0  0  0  0  0  0  0  0
    2.3830    2.1167   -1.7964 C   0  0  0  1  0  0  0  0  0  0  0  0
    2.1750    2.1436   -0.4999 N   0  0  0  1  0  0  0  0  0  0  0  0
    1.0929    2.7477   -0.0023 C   0  0  0  1  0  0  0  0  0  0  0  0
    0.1832    3.3528   -0.8954 C   0  0  0  1  0  0  0  0  0  0  0  0
    0.4550    3.2931   -2.2591 C   0  0  0  1  0  0  0  0  0  0  0  0
    0.5843    2.9524    1.2991 C   0  0  0  1  0  0  0  0  0  0  0  0
   -0.5313    3.6196    1.2123 N   0  0  0  1  0  0  0  0  0  0  0  0
   -0.8187    3.8896   -0.1321 N   0  0  0  1  0  0  0  0  0  0  0  0
   -1.9349    4.6853   -0.4807 C   0  0  0  1  0  0  0  0  0  0  0  0
   -1.7497    5.8797   -1.1509 C   0  0  0  1  0  0  0  0  0  0  0  0
   -2.8440    6.6569   -1.4972 C   0  0  0  1  0  0  0  0  0  0  0  0
   -4.1199    6.2401   -1.1676 C   0  0  0  1  0  0  0  0  0  0  0  0
   -4.3055    5.0421   -0.4954 C   0  0  0  1  0  0  0  0  0  0  0  0
   -3.2145    4.2671   -0.1500 C   0  0  0  1  0  0  0  0  0  0  0  0
   -5.1395    7.0435   -1.5280 O   0  0  0  1  0  0  0  0  0  0  0  0
   -6.4533    6.4458   -1.4316 C   0  0  0  1  0  0  0  0  0  0  0  0
    3.5418    1.4612   -2.2117 N   0  0  0  1  0  0  0  0  0  0  0  0
    4.4375    1.0441   -1.1250 C   0  0  0  1  0  0  0  0  0  0  0  0
    5.2700   -0.1612   -1.5535 C   0  0  0  1  0  0  0  0  0  0  0  0
    6.4733   -0.0959   -0.5936 C   0  0  0  1  0  0  0  0  0  0  0  0
    6.6321    1.3703   -0.2230 C   0  0  0  1  0  0  0  0  0  0  0  0
    5.4402    2.1414   -0.8137 C   0  0  0  1  0  0  0  0  0  0  0  0
    6.2121   -0.9029    0.6104 N   0  0  0  1  0  0  0  0  0  0  0  0
   -0.1916    3.7272   -2.9483 H   0  0  0  1  0  0  0  0  0  0  0  0
    1.0273    2.6246    2.1811 H   0  0  0  1  0  0  0  0  0  0  0  0
   -0.7894    6.1954   -1.3954 H   0  0  0  1  0  0  0  0  0  0  0  0
   -2.7049    7.5538   -2.0051 H   0  0  0  1  0  0  0  0  0  0  0  0
   -5.2658    4.7264   -0.2509 H   0  0  0  1  0  0  0  0  0  0  0  0
   -3.3535    3.3702    0.3579 H   0  0  0  1  0  0  0  0  0  0  0  0
   -6.6788    6.2425   -0.4055 H   0  0  0  1  0  0  0  0  0  0  0  0
   -6.4709    5.5321   -1.9881 H   0  0  0  1  0  0  0  0  0  0  0  0
   -7.1820    7.1206   -1.8297 H   0  0  0  1  0  0  0  0  0  0  0  0
    3.7429    1.2919   -3.1558 H   0  0  0  1  0  0  0  0  0  0  0  0
    3.8593    0.8089   -0.2559 H   0  0  0  1  0  0  0  0  0  0  0  0
    5.5835   -0.0715   -2.5726 H   0  0  0  1  0  0  0  0  0  0  0  0
    4.7238   -1.0726   -1.4268 H   0  0  0  1  0  0  0  0  0  0  0  0
    7.3566   -0.4546   -1.0793 H   0  0  0  1  0  0  0  0  0  0  0  0
    7.5468    1.7501   -0.6281 H   0  0  0  1  0  0  0  0  0  0  0  0
    6.6415    1.4767    0.8416 H   0  0  0  1  0  0  0  0  0  0  0  0
    5.7245    2.6647   -1.7026 H   0  0  0  1  0  0  0  0  0  0  0  0
    5.0418    2.8349   -0.1029 H   0  0  0  1  0  0  0  0  0  0  0  0
    5.3755   -0.6079    1.0269 H   0  0  0  1  0  0  0  0  0  0  0  0
    6.9502   -0.7903    1.2453 H   0  0  0  1  0  0  0  0  0  0  0  0
  1  2  4  0  0  0  0
  1  6  4  0  0  0  0
  2  3  4  0  0  0  0
  2 18  1  0  0  0  0
  3  4  4  0  0  0  0
  4  5  4  0  0  0  0
  4  7  4  0  0  0  0
  5  6  4  0  0  0  0
  5  9  4  0  0  0  0
  6 25  1  0  0  0  0
  7  8  4  0  0  0  0
  7 26  1  0  0  0  0
  8  9  4  0  0  0  0
  9 10  1  0  0  0  0
 10 11  4  0  0  0  0
 10 15  4  0  0  0  0
 11 12  4  0  0  0  0
 11 27  1  0  0  0  0
 12 13  4  0  0  0  0
 12 28  1  0  0  0  0
 13 14  4  0  0  0  0
 13 16  1  0  0  0  0
 14 15  4  0  0  0  0
 14 29  1  0  0  0  0
 15 30  1  0  0  0  0
 16 17  1  0  0  0  0
 17 31  1  0  0  0  0
 17 32  1  0  0  0  0
 17 33  1  0  0  0  0
 18 19  1  0  0  0  0
 18 34  1  0  0  0  0
 19 20  1  0  0  0  0
 19 23  1  0  0  0  0
 19 35  1  0  0  0  0
 20 21  1  0  0  0  0
 20 36  1  0  0  0  0
 20 37  1  0  0  0  0
 21 22  1  0  0  0  0
 21 24  1  0  0  0  0
 21 38  1  0  0  0  0
 22 23  1  0  0  0  0
 22 39  1  0  0  0  0
 22 40  1  0  0  0  0
 23 41  1  0  0  0  0
 23 42  1  0  0  0  0
 24 43  1  0  0  0  0
 24 44  1  0  0  0  0
M  END
> <ConfClashScore>
0 

> <ConfOneFourInteractionScore>
-0.984337 

> <ConfScore>
-0.0937748 

> <ConfScorePBest>
0.00479277 

> <ConfTolerance>
0.322753 

$$$$
c13.sdf
 OpenBabel04162418043D

 44 47  0  0  0  0  0  0  0  0999 V2000
    3.8655    1.8018   -5.0088 N   0  0  0  1  0  0  0  0  0  0  0  0
    3.7314    1.8802   -3.6957 C   0  0  0  1  0  0  0  0  0  0  0  0
    2.8297    2.6446   -3.1234 N   0  0  0  1  0  0  0  0  0  0  0  0
    2.0013    3.3833   -3.8662 C   0  0  0  1  0  0  0  0  0  0  0  0
    2.1158    3.3243   -5.2715 C   0  0  0  1  0  0  0  0  0  0  0  0
    3.0898    2.4968   -5.8225 C   0  0  0  1  0  0  0  0  0  0  0  0
    0.9520    4.2837   -3.5797 C   0  0  0  1  0  0  0  0  0  0  0  0
    0.4687    4.7343   -4.7026 N   0  0  0  1  0  0  0  0  0  0  0  0
    1.1618    4.1650   -5.7790 N   0  0  0  1  0  0  0  0  0  0  0  0
    0.7461    4.4308   -7.1149 C   0  0  0  1  0  0  0  0  0  0  0  0
    1.6866    4.7090   -8.0887 C   0  0  0  1  0  0  0  0  0  0  0  0
    1.2823    4.9624   -9.3902 C   0  0  0  1  0  0  0  0  0  0  0  0
   -0.0615    4.9420   -9.7130 C   0  0  0  1  0  0  0  0  0  0  0  0
   -1.0046    4.6630   -8.7361 C   0  0  0  1  0  0  0  0  0  0  0  0
   -0.6016    4.4103   -7.4384 C   0  0  0  1  0  0  0  0  0  0  0  0
   -0.5716    5.1768  -10.9375 O   0  0  0  1  0  0  0  0  0  0  0  0
    0.3933    5.5866  -11.9344 C   0  0  0  1  0  0  0  0  0  0  0  0
    4.5602    1.1399   -2.9045 N   0  0  0  1  0  0  0  0  0  0  0  0
    4.4841    1.1974   -1.4553 C   0  0  0  1  0  0  0  0  0  0  0  0
    4.9221   -0.1370   -0.8418 C   0  0  0  1  0  0  0  0  0  0  0  0
    6.4248    0.0152   -0.6053 C   0  0  0  1  0  0  0  0  0  0  0  0
    6.5278    1.4633   -0.1203 C   0  0  0  1  0  0  0  0  0  0  0  0
    5.4681    2.2384   -0.9068 C   0  0  0  1  0  0  0  0  0  0  0  0
    6.9065   -0.9353    0.4295 N   0  0  0  1  0  0  0  0  0  0  0  0
    3.2049    2.4268   -6.8537 H   0  0  0  1  0  0  0  0  0  0  0  0
    0.6197    4.5442   -2.6293 H   0  0  0  1  0  0  0  0  0  0  0  0
    2.6974    4.7283   -7.8450 H   0  0  0  1  0  0  0  0  0  0  0  0
    1.9902    5.1678  -10.1238 H   0  0  0  1  0  0  0  0  0  0  0  0
   -2.0155    4.6437   -8.9797 H   0  0  0  1  0  0  0  0  0  0  0  0
   -1.3095    4.2049   -6.7047 H   0  0  0  1  0  0  0  0  0  0  0  0
    0.4684    6.6539  -11.9413 H   0  0  0  1  0  0  0  0  0  0  0  0
    0.0772    5.2452  -12.8979 H   0  0  0  1  0  0  0  0  0  0  0  0
    1.3481    5.1636  -11.7012 H   0  0  0  1  0  0  0  0  0  0  0  0
    5.2241    0.5542   -3.3248 H   0  0  0  1  0  0  0  0  0  0  0  0
    3.4837    1.4352   -1.1594 H   0  0  0  1  0  0  0  0  0  0  0  0
    4.4113   -0.3125    0.0819 H   0  0  0  1  0  0  0  0  0  0  0  0
    4.7269   -0.9440   -1.5168 H   0  0  0  1  0  0  0  0  0  0  0  0
    6.9770   -0.1316   -1.5099 H   0  0  0  1  0  0  0  0  0  0  0  0
    6.3293    1.5203    0.9295 H   0  0  0  1  0  0  0  0  0  0  0  0
    7.5028    1.8556   -0.3212 H   0  0  0  1  0  0  0  0  0  0  0  0
    4.9590    2.9249   -0.2631 H   0  0  0  1  0  0  0  0  0  0  0  0
    5.9248    2.7753   -1.7119 H   0  0  0  1  0  0  0  0  0  0  0  0
    6.8571   -1.8502    0.0817 H   0  0  0  1  0  0  0  0  0  0  0  0
    6.3451   -0.8594    1.2292 H   0  0  0  1  0  0  0  0  0  0  0  0
  1  2  4  0  0  0  0
  1  6  4  0  0  0  0
  2  3  4  0  0  0  0
  2 18  1  0  0  0  0
  3  4  4  0  0  0  0
  4  5  4  0  0  0  0
  4  7  4  0  0  0  0
  5  6  4  0  0  0  0
  5  9  4  0  0  0  0
  6 25  1  0  0  0  0
  7  8  4  0  0  0  0
  7 26  1  0  0  0  0
  8  9  4  0  0  0  0
  9 10  1  0  0  0  0
 10 11  4  0  0  0  0
 10 15  4  0  0  0  0
 11 12  4  0  0  0  0
 11 27  1  0  0  0  0
 12 13  4  0  0  0  0
 12 28  1  0  0  0  0
 13 14  4  0  0  0  0
 13 16  1  0  0  0  0
 14 15  4  0  0  0  0
 14 29  1  0  0  0  0
 15 30  1  0  0  0  0
 16 17  1  0  0  0  0
 17 31  1  0  0  0  0
 17 32  1  0  0  0  0
 17 33  1  0  0  0  0
 18 19  1  0  0  0  0
 18 34  1  0  0  0  0
 19 20  1  0  0  0  0
 19 23  1  0  0  0  0
 19 35  1  0  0  0  0
 20 21  1  0  0  0  0
 20 36  1  0  0  0  0
 20 37  1  0  0  0  0
 21 22  1  0  0  0  0
 21 24  1  0  0  0  0
 21 38  1  0  0  0  0
 22 23  1  0  0  0  0
 22 39  1  0  0  0  0
 22 40  1  0  0  0  0
 23 41  1  0  0  0  0
 23 42  1  0  0  0  0
 24 43  1  0  0  0  0
 24 44  1  0  0  0  0
M  END
> <ConfClashScore>
0 

> <ConfOneFourInteractionScore>
-0.984337 

> <ConfScore>
-0.0931557 

> <ConfScorePBest>
0.00477944 

> <ConfTolerance>
0.235981 

$$$$
c13.sdf
 OpenBabel04162418043D

 44 47  0  0  0  0  0  0  0  0999 V2000
    2.5380    0.3693   -3.2875 N   0  0  0  1  0  0  0  0  0  0  0  0
    3.6454    0.8847   -3.7939 C   0  0  0  1  0  0  0  0  0  0  0  0
    3.8489    0.9854   -5.0875 N   0  0  0  1  0  0  0  0  0  0  0  0
    2.9231    0.5608   -5.9514 C   0  0  0  1  0  0  0  0  0  0  0  0
    1.7284    0.0051   -5.4462 C   0  0  0  1  0  0  0  0  0  0  0  0
    1.5676   -0.0763   -4.0662 C   0  0  0  1  0  0  0  0  0  0  0  0
    2.8270    0.5233   -7.3598 C   0  0  0  1  0  0  0  0  0  0  0  0
    1.6821   -0.0052   -7.6872 N   0  0  0  1  0  0  0  0  0  0  0  0
    0.9674   -0.3420   -6.5302 N   0  0  0  1  0  0  0  0  0  0  0  0
   -0.3586   -0.8587   -6.5840 C   0  0  0  1  0  0  0  0  0  0  0  0
   -0.8835   -1.5292   -5.4954 C   0  0  0  1  0  0  0  0  0  0  0  0
   -2.1761   -2.0274   -5.5458 C   0  0  0  1  0  0  0  0  0  0  0  0
   -2.9380   -1.8584   -6.6865 C   0  0  0  1  0  0  0  0  0  0  0  0
   -2.4113   -1.1859   -7.7783 C   0  0  0  1  0  0  0  0  0  0  0  0
   -1.1225   -0.6891   -7.7281 C   0  0  0  1  0  0  0  0  0  0  0  0
   -4.1811   -2.3915   -6.6210 O   0  0  0  1  0  0  0  0  0  0  0  0
   -5.0042   -2.2831   -7.7929 C   0  0  0  1  0  0  0  0  0  0  0  0
    4.6656    1.3531   -2.9860 N   0  0  0  1  0  0  0  0  0  0  0  0
    4.5088    1.2160   -1.5383 C   0  0  0  1  0  0  0  0  0  0  0  0
    4.9424   -0.1829   -1.0877 C   0  0  0  1  0  0  0  0  0  0  0  0
    6.3893   -0.0121   -0.6549 C   0  0  0  1  0  0  0  0  0  0  0  0
    6.3501    1.3445    0.0569 C   0  0  0  1  0  0  0  0  0  0  0  0
    5.4262    2.2061   -0.8083 C   0  0  0  1  0  0  0  0  0  0  0  0
    6.8113   -1.1068    0.2807 N   0  0  0  1  0  0  0  0  0  0  0  0
    0.7012   -0.4796   -3.6560 H   0  0  0  1  0  0  0  0  0  0  0  0
    3.5506    0.8617   -8.0256 H   0  0  0  1  0  0  0  0  0  0  0  0
   -0.3088   -1.6599   -4.6385 H   0  0  0  1  0  0  0  0  0  0  0  0
   -2.5725   -2.5284   -4.7252 H   0  0  0  1  0  0  0  0  0  0  0  0
   -2.9860   -1.0552   -8.6352 H   0  0  0  1  0  0  0  0  0  0  0  0
   -0.7260   -0.1881   -8.5487 H   0  0  0  1  0  0  0  0  0  0  0  0
   -5.0820   -1.2555   -8.0808 H   0  0  0  1  0  0  0  0  0  0  0  0
   -5.9795   -2.6685   -7.5803 H   0  0  0  1  0  0  0  0  0  0  0  0
   -4.5644   -2.8444   -8.5905 H   0  0  0  1  0  0  0  0  0  0  0  0
    5.4678    1.7637   -3.3712 H   0  0  0  1  0  0  0  0  0  0  0  0
    3.4875    1.3913   -1.2715 H   0  0  0  1  0  0  0  0  0  0  0  0
    4.8694   -0.8800   -1.8961 H   0  0  0  1  0  0  0  0  0  0  0  0
    4.3405   -0.5201   -0.2698 H   0  0  0  1  0  0  0  0  0  0  0  0
    7.0473    0.0103   -1.4984 H   0  0  0  1  0  0  0  0  0  0  0  0
    7.3291    1.7733    0.1073 H   0  0  0  1  0  0  0  0  0  0  0  0
    5.9541    1.2412    1.0456 H   0  0  0  1  0  0  0  0  0  0  0  0
    4.8501    2.8680   -0.1960 H   0  0  0  1  0  0  0  0  0  0  0  0
    5.9966    2.7760   -1.5118 H   0  0  0  1  0  0  0  0  0  0  0  0
    6.1540   -1.1916    1.0026 H   0  0  0  1  0  0  0  0  0  0  0  0
    7.6882   -0.8908    0.6613 H   0  0  0  1  0  0  0  0  0  0  0  0
  1  2  4  0  0  0  0
  1  6  4  0  0  0  0
  2  3  4  0  0  0  0
  2 18  1  0  0  0  0
  3  4  4  0  0  0  0
  4  5  4  0  0  0  0
  4  7  4  0  0  0  0
  5  6  4  0  0  0  0
  5  9  4  0  0  0  0
  6 25  1  0  0  0  0
  7  8  4  0  0  0  0
  7 26  1  0  0  0  0
  8  9  4  0  0  0  0
  9 10  1  0  0  0  0
 10 11  4  0  0  0  0
 10 15  4  0  0  0  0
 11 12  4  0  0  0  0
 11 27  1  0  0  0  0
 12 13  4  0  0  0  0
 12 28  1  0  0  0  0
 13 14  4  0  0  0  0
 13 16  1  0  0  0  0
 14 15  4  0  0  0  0
 14 29  1  0  0  0  0
 15 30  1  0  0  0  0
 16 17  1  0  0  0  0
 17 31  1  0  0  0  0
 17 32  1  0  0  0  0
 17 33  1  0  0  0  0
 18 19  1  0  0  0  0
 18 34  1  0  0  0  0
 19 20  1  0  0  0  0
 19 23  1  0  0  0  0
 19 35  1  0  0  0  0
 20 21  1  0  0  0  0
 20 36  1  0  0  0  0
 20 37  1  0  0  0  0
 21 22  1  0  0  0  0
 21 24  1  0  0  0  0
 21 38  1  0  0  0  0
 22 23  1  0  0  0  0
 22 39  1  0  0  0  0
 22 40  1  0  0  0  0
 23 41  1  0  0  0  0
 23 42  1  0  0  0  0
 24 43  1  0  0  0  0
 24 44  1  0  0  0  0
M  END
> <ConfClashScore>
0 

> <ConfOneFourInteractionScore>
-0.984337 

> <ConfScore>
-0.0927086 

> <ConfScorePBest>
0.00476611 

> <ConfTolerance>
0.306502 

$$$$
c13.sdf
 OpenBabel04162418043D

 44 47  0  0  0  0  0  0  0  0999 V2000
    3.7914    0.6818   -5.0815 N   0  0  0  1  0  0  0  0  0  0  0  0
    3.6543    0.6756   -3.7664 C   0  0  0  1  0  0  0  0  0  0  0  0
    2.5975    0.1731   -3.1700 N   0  0  0  1  0  0  0  0  0  0  0  0
    1.6060   -0.3592   -3.8891 C   0  0  0  1  0  0  0  0  0  0  0  0
    1.7186   -0.3698   -5.2957 C   0  0  0  1  0  0  0  0  0  0  0  0
    2.8611    0.1766   -5.8728 C   0  0  0  1  0  0  0  0  0  0  0  0
    0.3700   -0.9651   -3.5741 C   0  0  0  1  0  0  0  0  0  0  0  0
   -0.2195   -1.3142   -4.6822 N   0  0  0  1  0  0  0  0  0  0  0  0
    0.5824   -0.9636   -5.7763 N   0  0  0  1  0  0  0  0  0  0  0  0
    0.1197   -1.2586   -7.0904 C   0  0  0  1  0  0  0  0  0  0  0  0
    0.5298   -0.4824   -8.1579 C   0  0  0  1  0  0  0  0  0  0  0  0
    0.0836   -0.7730   -9.4377 C   0  0  0  1  0  0  0  0  0  0  0  0
   -0.7755   -1.8355   -9.6457 C   0  0  0  1  0  0  0  0  0  0  0  0
   -1.1867   -2.6139   -8.5749 C   0  0  0  1  0  0  0  0  0  0  0  0
   -0.7420   -2.3243   -7.2987 C   0  0  0  1  0  0  0  0  0  0  0  0
   -1.1473   -2.0188  -10.9349 O   0  0  0  1  0  0  0  0  0  0  0  0
   -2.0907   -3.0680  -11.2028 C   0  0  0  1  0  0  0  0  0  0  0  0
    4.6608    1.2184   -2.9884 N   0  0  0  1  0  0  0  0  0  0  0  0
    4.4885    1.1991   -1.5419 C   0  0  0  1  0  0  0  0  0  0  0  0
    4.8656   -0.1740   -0.9749 C   0  0  0  1  0  0  0  0  0  0  0  0
    6.3512   -0.0616   -0.6321 C   0  0  0  1  0  0  0  0  0  0  0  0
    6.4424    1.3562   -0.0628 C   0  0  0  1  0  0  0  0  0  0  0  0
    5.4487    2.1914   -0.8736 C   0  0  0  1  0  0  0  0  0  0  0  0
    6.7484   -1.0729    0.3765 N   0  0  0  1  0  0  0  0  0  0  0  0
    2.9804    0.1873   -6.9059 H   0  0  0  1  0  0  0  0  0  0  0  0
   -0.0074   -1.1090   -2.6157 H   0  0  0  1  0  0  0  0  0  0  0  0
    1.1731    0.3195   -8.0009 H   0  0  0  1  0  0  0  0  0  0  0  0
    0.3954   -0.1914  -10.2415 H   0  0  0  1  0  0  0  0  0  0  0  0
   -1.8300   -3.4159   -8.7319 H   0  0  0  1  0  0  0  0  0  0  0  0
   -1.0537   -2.9059   -6.4949 H   0  0  0  1  0  0  0  0  0  0  0  0
   -1.6244   -4.0174  -11.0415 H   0  0  0  1  0  0  0  0  0  0  0  0
   -2.4197   -3.0005  -12.2188 H   0  0  0  1  0  0  0  0  0  0  0  0
   -2.9309   -2.9677  -10.5479 H   0  0  0  1  0  0  0  0  0  0  0  0
    5.4640    1.6035   -3.3970 H   0  0  0  1  0  0  0  0  0  0  0  0
    3.4742    1.4386   -1.2997 H   0  0  0  1  0  0  0  0  0  0  0  0
    4.2919   -0.3897   -0.0978 H   0  0  0  1  0  0  0  0  0  0  0  0
    4.7043   -0.9398   -1.7045 H   0  0  0  1  0  0  0  0  0  0  0  0
    6.9603   -0.1694   -1.5052 H   0  0  0  1  0  0  0  0  0  0  0  0
    7.4342    1.7412   -0.1774 H   0  0  0  1  0  0  0  0  0  0  0  0
    6.1752    1.3603    0.9733 H   0  0  0  1  0  0  0  0  0  0  0  0
    5.9656    2.7625   -1.6163 H   0  0  0  1  0  0  0  0  0  0  0  0
    4.9076    2.8513   -0.2281 H   0  0  0  1  0  0  0  0  0  0  0  0
    6.1989   -0.9662    1.1808 H   0  0  0  1  0  0  0  0  0  0  0  0
    7.6928   -0.9499    0.6076 H   0  0  0  1  0  0  0  0  0  0  0  0
  1  2  4  0  0  0  0
  1  6  4  0  0  0  0
  2  3  4  0  0  0  0
  2 18  1  0  0  0  0
  3  4  4  0  0  0  0
  4  5  4  0  0  0  0
  4  7  4  0  0  0  0
  5  6  4  0  0  0  0
  5  9  4  0  0  0  0
  6 25  1  0  0  0  0
  7  8  4  0  0  0  0
  7 26  1  0  0  0  0
  8  9  4  0  0  0  0
  9 10  1  0  0  0  0
 10 11  4  0  0  0  0
 10 15  4  0  0  0  0
 11 12  4  0  0  0  0
 11 27  1  0  0  0  0
 12 13  4  0  0  0  0
 12 28  1  0  0  0  0
 13 14  4  0  0  0  0
 13 16  1  0  0  0  0
 14 15  4  0  0  0  0
 14 29  1  0  0  0  0
 15 30  1  0  0  0  0
 16 17  1  0  0  0  0
 17 31  1  0  0  0  0
 17 32  1  0  0  0  0
 17 33  1  0  0  0  0
 18 19  1  0  0  0  0
 18 34  1  0  0  0  0
 19 20  1  0  0  0  0
 19 23  1  0  0  0  0
 19 35  1  0  0  0  0
 20 21  1  0  0  0  0
 20 36  1  0  0  0  0
 20 37  1  0  0  0  0
 21 22  1  0  0  0  0
 21 24  1  0  0  0  0
 21 38  1  0  0  0  0
 22 23  1  0  0  0  0
 22 39  1  0  0  0  0
 22 40  1  0  0  0  0
 23 41  1  0  0  0  0
 23 42  1  0  0  0  0
 24 43  1  0  0  0  0
 24 44  1  0  0  0  0
M  END
> <ConfClashScore>
0 

> <ConfOneFourInteractionScore>
-0.984337 

> <ConfScore>
-0.0927086 

> <ConfScorePBest>
0.00475278 

> <ConfTolerance>
0.299884 

$$$$
c13.sdf
 OpenBabel04162418043D

 44 47  0  0  0  0  0  0  0  0999 V2000
    4.6057    1.3820   -5.2142 N   0  0  0  1  0  0  0  0  0  0  0  0
    4.2506    1.0855   -3.9755 C   0  0  0  1  0  0  0  0  0  0  0  0
    3.1913    0.3595   -3.7003 N   0  0  0  1  0  0  0  0  0  0  0  0
    2.4223   -0.1126   -4.6848 C   0  0  0  1  0  0  0  0  0  0  0  0
    2.7713    0.1841   -6.0195 C   0  0  0  1  0  0  0  0  0  0  0  0
    3.9047    0.9579   -6.2513 C   0  0  0  1  0  0  0  0  0  0  0  0
    1.2506   -0.8992   -4.7347 C   0  0  0  1  0  0  0  0  0  0  0  0
    0.9131   -1.0688   -5.9815 N   0  0  0  1  0  0  0  0  0  0  0  0
    1.8297   -0.4131   -6.8139 N   0  0  0  1  0  0  0  0  0  0  0  0
    1.8026   -0.6034   -8.2242 C   0  0  0  1  0  0  0  0  0  0  0  0
    2.8713   -1.2058   -8.8608 C   0  0  0  1  0  0  0  0  0  0  0  0
    2.8426   -1.3959  -10.2335 C   0  0  0  1  0  0  0  0  0  0  0  0
    1.7477   -0.9783  -10.9664 C   0  0  0  1  0  0  0  0  0  0  0  0
    0.6759   -0.3742  -10.3278 C   0  0  0  1  0  0  0  0  0  0  0  0
    0.7044   -0.1845   -8.9590 C   0  0  0  1  0  0  0  0  0  0  0  0
    1.7221   -1.1585  -12.3013 O   0  0  0  1  0  0  0  0  0  0  0  0
    2.8874   -1.8146  -12.8529 C   0  0  0  1  0  0  0  0  0  0  0  0
    5.0292    1.5609   -2.9206 N   0  0  0  1  0  0  0  0  0  0  0  0
    4.5401    1.2050   -1.5856 C   0  0  0  1  0  0  0  0  0  0  0  0
    4.9668   -0.2128   -1.1975 C   0  0  0  1  0  0  0  0  0  0  0  0
    6.3912   -0.0808   -0.6534 C   0  0  0  1  0  0  0  0  0  0  0  0
    6.5861    1.3981   -0.2959 C   0  0  0  1  0  0  0  0  0  0  0  0
    5.2145    2.0495   -0.5044 C   0  0  0  1  0  0  0  0  0  0  0  0
    6.5596   -0.9317    0.5625 N   0  0  0  1  0  0  0  0  0  0  0  0
    4.1941    1.1977   -7.2210 H   0  0  0  1  0  0  0  0  0  0  0  0
    0.7411   -1.2802   -3.9119 H   0  0  0  1  0  0  0  0  0  0  0  0
    3.6969   -1.5164   -8.3099 H   0  0  0  1  0  0  0  0  0  0  0  0
    3.6450   -1.8528  -10.7120 H   0  0  0  1  0  0  0  0  0  0  0  0
   -0.1498   -0.0636  -10.8787 H   0  0  0  1  0  0  0  0  0  0  0  0
   -0.0980    0.2723   -8.4805 H   0  0  0  1  0  0  0  0  0  0  0  0
    3.7676   -1.2754  -12.5713 H   0  0  0  1  0  0  0  0  0  0  0  0
    2.8107   -1.8395  -13.9199 H   0  0  0  1  0  0  0  0  0  0  0  0
    2.9456   -2.8141  -12.4755 H   0  0  0  1  0  0  0  0  0  0  0  0
    5.8407    2.0921   -3.0612 H   0  0  0  1  0  0  0  0  0  0  0  0
    3.4760    1.3124   -1.5547 H   0  0  0  1  0  0  0  0  0  0  0  0
    4.3150   -0.6060   -0.4456 H   0  0  0  1  0  0  0  0  0  0  0  0
    4.9524   -0.8543   -2.0537 H   0  0  0  1  0  0  0  0  0  0  0  0
    7.1001   -0.3774   -1.3979 H   0  0  0  1  0  0  0  0  0  0  0  0
    6.8978    1.4993    0.7226 H   0  0  0  1  0  0  0  0  0  0  0  0
    7.3149    1.8459   -0.9387 H   0  0  0  1  0  0  0  0  0  0  0  0
    4.6451    2.0265    0.4013 H   0  0  0  1  0  0  0  0  0  0  0  0
    5.3244    3.0624   -0.8315 H   0  0  0  1  0  0  0  0  0  0  0  0
    5.9984   -0.5829    1.2862 H   0  0  0  1  0  0  0  0  0  0  0  0
    7.4987   -0.9187    0.8425 H   0  0  0  1  0  0  0  0  0  0  0  0
  1  2  4  0  0  0  0
  1  6  4  0  0  0  0
  2  3  4  0  0  0  0
  2 18  1  0  0  0  0
  3  4  4  0  0  0  0
  4  5  4  0  0  0  0
  4  7  4  0  0  0  0
  5  6  4  0  0  0  0
  5  9  4  0  0  0  0
  6 25  1  0  0  0  0
  7  8  4  0  0  0  0
  7 26  1  0  0  0  0
  8  9  4  0  0  0  0
  9 10  1  0  0  0  0
 10 11  4  0  0  0  0
 10 15  4  0  0  0  0
 11 12  4  0  0  0  0
 11 27  1  0  0  0  0
 12 13  4  0  0  0  0
 12 28  1  0  0  0  0
 13 14  4  0  0  0  0
 13 16  1  0  0  0  0
 14 15  4  0  0  0  0
 14 29  1  0  0  0  0
 15 30  1  0  0  0  0
 16 17  1  0  0  0  0
 17 31  1  0  0  0  0
 17 32  1  0  0  0  0
 17 33  1  0  0  0  0
 18 19  1  0  0  0  0
 18 34  1  0  0  0  0
 19 20  1  0  0  0  0
 19 23  1  0  0  0  0
 19 35  1  0  0  0  0
 20 21  1  0  0  0  0
 20 36  1  0  0  0  0
 20 37  1  0  0  0  0
 21 22  1  0  0  0  0
 21 24  1  0  0  0  0
 21 38  1  0  0  0  0
 22 23  1  0  0  0  0
 22 39  1  0  0  0  0
 22 40  1  0  0  0  0
 23 41  1  0  0  0  0
 23 42  1  0  0  0  0
 24 43  1  0  0  0  0
 24 44  1  0  0  0  0
M  END
> <ConfClashScore>
0 

> <ConfOneFourInteractionScore>
-0.984337 

> <ConfScore>
-0.0923525 

> <ConfScorePBest>
0.00473946 

> <ConfTolerance>
0.34471 

$$$$
c13.sdf
 OpenBabel04162418043D

 44 47  0  0  0  0  0  0  0  0999 V2000
    1.5908    2.5886   -2.8079 N   0  0  0  1  0  0  0  0  0  0  0  0
    2.3671    2.1124   -1.8494 C   0  0  0  1  0  0  0  0  0  0  0  0
    2.0697    2.2333   -0.5758 N   0  0  0  1  0  0  0  0  0  0  0  0
    0.9489    2.8548   -0.2005 C   0  0  0  1  0  0  0  0  0  0  0  0
    0.0962    3.3756   -1.1970 C   0  0  0  1  0  0  0  0  0  0  0  0
    0.4623    3.2181   -2.5304 C   0  0  0  1  0  0  0  0  0  0  0  0
    0.3492    3.1482    1.0438 C   0  0  0  1  0  0  0  0  0  0  0  0
   -0.7655    3.7881    0.8308 N   0  0  0  1  0  0  0  0  0  0  0  0
   -0.9622    3.9514   -0.5467 N   0  0  0  1  0  0  0  0  0  0  0  0
   -2.0977    4.6137   -1.0364 C   0  0  0  1  0  0  0  0  0  0  0  0
   -2.8566    5.2710   -0.0866 C   0  0  0  1  0  0  0  0  0  0  0  0
   -3.9969    5.9612   -0.4670 C   0  0  0  1  0  0  0  0  0  0  0  0
   -4.3779    5.9878   -1.7953 C   0  0  0  1  0  0  0  0  0  0  0  0
   -3.6166    5.3285   -2.7479 C   0  0  0  1  0  0  0  0  0  0  0  0
   -2.4797    4.6402   -2.3687 C   0  0  0  1  0  0  0  0  0  0  0  0
   -5.4703    6.6220   -2.2836 O   0  0  0  1  0  0  0  0  0  0  0  0
   -6.3780    7.1944   -1.3292 C   0  0  0  1  0  0  0  0  0  0  0  0
    3.5367    1.4625   -2.1995 N   0  0  0  1  0  0  0  0  0  0  0  0
    4.4402    1.0456   -1.1192 C   0  0  0  1  0  0  0  0  0  0  0  0
    5.2707   -0.1589   -1.5540 C   0  0  0  1  0  0  0  0  0  0  0  0
    6.4805   -0.0930   -0.6024 C   0  0  0  1  0  0  0  0  0  0  0  0
    6.6407    1.3732   -0.2323 C   0  0  0  1  0  0  0  0  0  0  0  0
    5.4442    2.1436   -0.8144 C   0  0  0  1  0  0  0  0  0  0  0  0
    6.2236   -0.9159    0.6258 N   0  0  0  1  0  0  0  0  0  0  0  0
   -0.1401    3.5883   -3.2932 H   0  0  0  1  0  0  0  0  0  0  0  0
    0.7338    2.8951    1.9764 H   0  0  0  1  0  0  0  0  0  0  0  0
   -2.5722    5.2477    0.9135 H   0  0  0  1  0  0  0  0  0  0  0  0
   -4.5658    6.4592    0.2471 H   0  0  0  1  0  0  0  0  0  0  0  0
   -3.9010    5.3518   -3.7480 H   0  0  0  1  0  0  0  0  0  0  0  0
   -1.9108    4.1422   -3.0828 H   0  0  0  1  0  0  0  0  0  0  0  0
   -7.2775    7.4926   -1.8261 H   0  0  0  1  0  0  0  0  0  0  0  0
   -5.9232    8.0484   -0.8724 H   0  0  0  1  0  0  0  0  0  0  0  0
   -6.6097    6.4685   -0.5779 H   0  0  0  1  0  0  0  0  0  0  0  0
    3.7555    1.2857   -3.1383 H   0  0  0  1  0  0  0  0  0  0  0  0
    3.8682    0.8096   -0.2463 H   0  0  0  1  0  0  0  0  0  0  0  0
    5.5771   -0.0685   -2.5752 H   0  0  0  1  0  0  0  0  0  0  0  0
    4.7261   -1.0707   -1.4239 H   0  0  0  1  0  0  0  0  0  0  0  0
    7.3607   -0.4508   -1.0944 H   0  0  0  1  0  0  0  0  0  0  0  0
    7.5523    1.7538   -0.6435 H   0  0  0  1  0  0  0  0  0  0  0  0
    6.6574    1.4791    0.8323 H   0  0  0  1  0  0  0  0  0  0  0  0
    5.7219    2.6675   -1.7051 H   0  0  0  1  0  0  0  0  0  0  0  0
    5.0501    2.8364   -0.1006 H   0  0  0  1  0  0  0  0  0  0  0  0
    5.3444   -0.6883    0.9941 H   0  0  0  1  0  0  0  0  0  0  0  0
    6.9157   -0.7297    1.2942 H   0  0  0  1  0  0  0  0  0  0  0  0
  1  2  4  0  0  0  0
  1  6  4  0  0  0  0
  2  3  4  0  0  0  0
  2 18  1  0  0  0  0
  3  4  4  0  0  0  0
  4  5  4  0  0  0  0
  4  7  4  0  0  0  0
  5  6  4  0  0  0  0
  5  9  4  0  0  0  0
  6 25  1  0  0  0  0
  7  8  4  0  0  0  0
  7 26  1  0  0  0  0
  8  9  4  0  0  0  0
  9 10  1  0  0  0  0
 10 11  4  0  0  0  0
 10 15  4  0  0  0  0
 11 12  4  0  0  0  0
 11 27  1  0  0  0  0
 12 13  4  0  0  0  0
 12 28  1  0  0  0  0
 13 14  4  0  0  0  0
 13 16  1  0  0  0  0
 14 15  4  0  0  0  0
 14 29  1  0  0  0  0
 15 30  1  0  0  0  0
 16 17  1  0  0  0  0
 17 31  1  0  0  0  0
 17 32  1  0  0  0  0
 17 33  1  0  0  0  0
 18 19  1  0  0  0  0
 18 34  1  0  0  0  0
 19 20  1  0  0  0  0
 19 23  1  0  0  0  0
 19 35  1  0  0  0  0
 20 21  1  0  0  0  0
 20 36  1  0  0  0  0
 20 37  1  0  0  0  0
 21 22  1  0  0  0  0
 21 24  1  0  0  0  0
 21 38  1  0  0  0  0
 22 23  1  0  0  0  0
 22 39  1  0  0  0  0
 22 40  1  0  0  0  0
 23 41  1  0  0  0  0
 23 42  1  0  0  0  0
 24 43  1  0  0  0  0
 24 44  1  0  0  0  0
M  END
> <ConfClashScore>
0 

> <ConfOneFourInteractionScore>
-0.984337 

> <ConfScore>
-0.0920877 

> <ConfScorePBest>
0.00472613 

> <ConfTolerance>
0.316539 

$$$$
c13.sdf
 OpenBabel04162418043D

 44 47  0  0  0  0  0  0  0  0999 V2000
    2.1798    2.7986   -1.6624 N   0  0  0  1  0  0  0  0  0  0  0  0
    2.7005    2.2727   -2.7581 C   0  0  0  1  0  0  0  0  0  0  0  0
    2.2019    2.4951   -3.9527 N   0  0  0  1  0  0  0  0  0  0  0  0
    1.1294    3.2768   -4.1015 C   0  0  0  1  0  0  0  0  0  0  0  0
    0.5473    3.8552   -2.9535 C   0  0  0  1  0  0  0  0  0  0  0  0
    1.1184    3.5843   -1.7135 C   0  0  0  1  0  0  0  0  0  0  0  0
    0.3654    3.7084   -5.2079 C   0  0  0  1  0  0  0  0  0  0  0  0
   -0.5942    4.4783   -4.7791 N   0  0  0  1  0  0  0  0  0  0  0  0
   -0.5193    4.5971   -3.3851 N   0  0  0  1  0  0  0  0  0  0  0  0
   -1.4761    5.3951   -2.7154 C   0  0  0  1  0  0  0  0  0  0  0  0
   -1.6255    5.2908   -1.3453 C   0  0  0  1  0  0  0  0  0  0  0  0
   -2.5594    6.0766   -0.6883 C   0  0  0  1  0  0  0  0  0  0  0  0
   -3.3449    6.9606   -1.4038 C   0  0  0  1  0  0  0  0  0  0  0  0
   -3.1950    7.0650   -2.7780 C   0  0  0  1  0  0  0  0  0  0  0  0
   -2.2638    6.2815   -3.4332 C   0  0  0  1  0  0  0  0  0  0  0  0
   -4.2609    7.7245   -0.7626 O   0  0  0  1  0  0  0  0  0  0  0  0
   -4.9996    8.6673   -1.5551 C   0  0  0  1  0  0  0  0  0  0  0  0
    3.7720    1.4989   -2.5515 N   0  0  0  1  0  0  0  0  0  0  0  0
    4.3813    1.1897   -1.2640 C   0  0  0  1  0  0  0  0  0  0  0  0
    5.0768   -0.1811   -1.2982 C   0  0  0  1  0  0  0  0  0  0  0  0
    6.4286   -0.0392   -0.6164 C   0  0  0  1  0  0  0  0  0  0  0  0
    6.4568    1.3834   -0.0257 C   0  0  0  1  0  0  0  0  0  0  0  0
    5.5186    2.1478   -0.9558 C   0  0  0  1  0  0  0  0  0  0  0  0
    6.5703   -1.0443    0.4575 N   0  0  0  1  0  0  0  0  0  0  0  0
    0.7179    3.9921   -0.8446 H   0  0  0  1  0  0  0  0  0  0  0  0
    0.5398    3.4537   -6.2010 H   0  0  0  1  0  0  0  0  0  0  0  0
   -1.0372    4.6228   -0.8074 H   0  0  0  1  0  0  0  0  0  0  0  0
   -2.6691    6.0011    0.3431 H   0  0  0  1  0  0  0  0  0  0  0  0
   -3.7832    7.7330   -3.3159 H   0  0  0  1  0  0  0  0  0  0  0  0
   -2.1541    6.3570   -4.4646 H   0  0  0  1  0  0  0  0  0  0  0  0
   -5.5081    9.3541   -0.9113 H   0  0  0  1  0  0  0  0  0  0  0  0
   -5.7150    8.1450   -2.1554 H   0  0  0  1  0  0  0  0  0  0  0  0
   -4.3260    9.2050   -2.1891 H   0  0  0  1  0  0  0  0  0  0  0  0
    4.1884    1.1004   -3.3442 H   0  0  0  1  0  0  0  0  0  0  0  0
    3.6345    1.2220   -0.4984 H   0  0  0  1  0  0  0  0  0  0  0  0
    4.4820   -0.9029   -0.7784 H   0  0  0  1  0  0  0  0  0  0  0  0
    5.2127   -0.4939   -2.3123 H   0  0  0  1  0  0  0  0  0  0  0  0
    7.2186   -0.1625   -1.3275 H   0  0  0  1  0  0  0  0  0  0  0  0
    7.4449    1.7930   -0.0518 H   0  0  0  1  0  0  0  0  0  0  0  0
    6.0935    1.3910    0.9808 H   0  0  0  1  0  0  0  0  0  0  0  0
    6.0280    2.4247   -1.8551 H   0  0  0  1  0  0  0  0  0  0  0  0
    5.1463    3.0262   -0.4714 H   0  0  0  1  0  0  0  0  0  0  0  0
    5.8860   -0.8904    1.1419 H   0  0  0  1  0  0  0  0  0  0  0  0
    7.4596   -0.9668    0.8618 H   0  0  0  1  0  0  0  0  0  0  0  0
  1  2  4  0  0  0  0
  1  6  4  0  0  0  0
  2  3  4  0  0  0  0
  2 18  1  0  0  0  0
  3  4  4  0  0  0  0
  4  5  4  0  0  0  0
  4  7  4  0  0  0  0
  5  6  4  0  0  0  0
  5  9  4  0  0  0  0
  6 25  1  0  0  0  0
  7  8  4  0  0  0  0
  7 26  1  0  0  0  0
  8  9  4  0  0  0  0
  9 10  1  0  0  0  0
 10 11  4  0  0  0  0
 10 15  4  0  0  0  0
 11 12  4  0  0  0  0
 11 27  1  0  0  0  0
 12 13  4  0  0  0  0
 12 28  1  0  0  0  0
 13 14  4  0  0  0  0
 13 16  1  0  0  0  0
 14 15  4  0  0  0  0
 14 29  1  0  0  0  0
 15 30  1  0  0  0  0
 16 17  1  0  0  0  0
 17 31  1  0  0  0  0
 17 32  1  0  0  0  0
 17 33  1  0  0  0  0
 18 19  1  0  0  0  0
 18 34  1  0  0  0  0
 19 20  1  0  0  0  0
 19 23  1  0  0  0  0
 19 35  1  0  0  0  0
 20 21  1  0  0  0  0
 20 36  1  0  0  0  0
 20 37  1  0  0  0  0
 21 22  1  0  0  0  0
 21 24  1  0  0  0  0
 21 38  1  0  0  0  0
 22 23  1  0  0  0  0
 22 39  1  0  0  0  0
 22 40  1  0  0  0  0
 23 41  1  0  0  0  0
 23 42  1  0  0  0  0
 24 43  1  0  0  0  0
 24 44  1  0  0  0  0
M  END
> <ConfClashScore>
0 

> <ConfOneFourInteractionScore>
-0.984337 

> <ConfScore>
-0.0920877 

> <ConfScorePBest>
0.0047128 

> <ConfTolerance>
0.264248 

$$$$
c13.sdf
 OpenBabel04162418043D

 44 47  0  0  0  0  0  0  0  0999 V2000
    1.6461    2.8696   -2.5949 N   0  0  0  1  0  0  0  0  0  0  0  0
    2.4692    2.3472   -1.7017 C   0  0  0  1  0  0  0  0  0  0  0  0
    2.3798    2.6149   -0.4190 N   0  0  0  1  0  0  0  0  0  0  0  0
    1.4338    3.4417    0.0336 C   0  0  0  1  0  0  0  0  0  0  0  0
    0.5375    4.0178   -0.8917 C   0  0  0  1  0  0  0  0  0  0  0  0
    0.6798    3.6979   -2.2387 C   0  0  0  1  0  0  0  0  0  0  0  0
    1.0713    3.9271    1.3092 C   0  0  0  1  0  0  0  0  0  0  0  0
    0.0497    4.7250    1.1786 N   0  0  0  1  0  0  0  0  0  0  0  0
   -0.3151    4.8107   -0.1714 N   0  0  0  1  0  0  0  0  0  0  0  0
   -1.3431    5.6915   -0.5815 C   0  0  0  1  0  0  0  0  0  0  0  0
   -2.6096    5.5746   -0.0410 C   0  0  0  1  0  0  0  0  0  0  0  0
   -3.6156    6.4413   -0.4390 C   0  0  0  1  0  0  0  0  0  0  0  0
   -3.3535    7.4188   -1.3803 C   0  0  0  1  0  0  0  0  0  0  0  0
   -2.0831    7.5359   -1.9224 C   0  0  0  1  0  0  0  0  0  0  0  0
   -1.0799    6.6718   -1.5256 C   0  0  0  1  0  0  0  0  0  0  0  0
   -4.3129    8.3195   -1.6998 O   0  0  0  1  0  0  0  0  0  0  0  0
   -4.0515    9.1903   -2.8115 C   0  0  0  1  0  0  0  0  0  0  0  0
    3.4704    1.4790   -2.1365 N   0  0  0  1  0  0  0  0  0  0  0  0
    4.4024    1.0448   -1.0948 C   0  0  0  1  0  0  0  0  0  0  0  0
    5.2775   -0.1700   -1.5820 C   0  0  0  1  0  0  0  0  0  0  0  0
    6.4868   -0.0895   -0.5958 C   0  0  0  1  0  0  0  0  0  0  0  0
    6.6551    1.3846   -0.2216 C   0  0  0  1  0  0  0  0  0  0  0  0
    5.4560    2.1087   -0.8184 C   0  0  0  1  0  0  0  0  0  0  0  0
    6.2103   -0.8953    0.6174 N   0  0  0  1  0  0  0  0  0  0  0  0
    0.0386    4.1025   -2.9506 H   0  0  0  1  0  0  0  0  0  0  0  0
    1.5421    3.6872    2.2049 H   0  0  0  1  0  0  0  0  0  0  0  0
   -2.8080    4.8366    0.6644 H   0  0  0  1  0  0  0  0  0  0  0  0
   -4.5677    6.3559   -0.0293 H   0  0  0  1  0  0  0  0  0  0  0  0
   -1.8847    8.2740   -2.6277 H   0  0  0  1  0  0  0  0  0  0  0  0
   -0.1278    6.7571   -1.9353 H   0  0  0  1  0  0  0  0  0  0  0  0
   -3.9259    8.6074   -3.6999 H   0  0  0  1  0  0  0  0  0  0  0  0
   -3.1592    9.7502   -2.6235 H   0  0  0  1  0  0  0  0  0  0  0  0
   -4.8744    9.8621   -2.9392 H   0  0  0  1  0  0  0  0  0  0  0  0
    3.5441    1.1825   -3.0677 H   0  0  0  1  0  0  0  0  0  0  0  0
    3.8572    0.7990   -0.2075 H   0  0  0  1  0  0  0  0  0  0  0  0
    4.7516   -1.0966   -1.4822 H   0  0  0  1  0  0  0  0  0  0  0  0
    5.5909   -0.0448   -2.5974 H   0  0  0  1  0  0  0  0  0  0  0  0
    7.3742   -0.4523   -1.0710 H   0  0  0  1  0  0  0  0  0  0  0  0
    7.5646    1.7708   -0.6323 H   0  0  0  1  0  0  0  0  0  0  0  0
    6.6666    1.4990    0.8422 H   0  0  0  1  0  0  0  0  0  0  0  0
    5.7349    2.5978   -1.7283 H   0  0  0  1  0  0  0  0  0  0  0  0
    5.0784    2.8315   -0.1256 H   0  0  0  1  0  0  0  0  0  0  0  0
    5.3327   -0.6514    0.9791 H   0  0  0  1  0  0  0  0  0  0  0  0
    6.9009   -0.7200    1.2902 H   0  0  0  1  0  0  0  0  0  0  0  0
  1  2  4  0  0  0  0
  1  6  4  0  0  0  0
  2  3  4  0  0  0  0
  2 18  1  0  0  0  0
  3  4  4  0  0  0  0
  4  5  4  0  0  0  0
  4  7  4  0  0  0  0
  5  6  4  0  0  0  0
  5  9  4  0  0  0  0
  6 25  1  0  0  0  0
  7  8  4  0  0  0  0
  7 26  1  0  0  0  0
  8  9  4  0  0  0  0
  9 10  1  0  0  0  0
 10 11  4  0  0  0  0
 10 15  4  0  0  0  0
 11 12  4  0  0  0  0
 11 27  1  0  0  0  0
 12 13  4  0  0  0  0
 12 28  1  0  0  0  0
 13 14  4  0  0  0  0
 13 16  1  0  0  0  0
 14 15  4  0  0  0  0
 14 29  1  0  0  0  0
 15 30  1  0  0  0  0
 16 17  1  0  0  0  0
 17 31  1  0  0  0  0
 17 32  1  0  0  0  0
 17 33  1  0  0  0  0
 18 19  1  0  0  0  0
 18 34  1  0  0  0  0
 19 20  1  0  0  0  0
 19 23  1  0  0  0  0
 19 35  1  0  0  0  0
 20 21  1  0  0  0  0
 20 36  1  0  0  0  0
 20 37  1  0  0  0  0
 21 22  1  0  0  0  0
 21 24  1  0  0  0  0
 21 38  1  0  0  0  0
 22 23  1  0  0  0  0
 22 39  1  0  0  0  0
 22 40  1  0  0  0  0
 23 41  1  0  0  0  0
 23 42  1  0  0  0  0
 24 43  1  0  0  0  0
 24 44  1  0  0  0  0
M  END
> <ConfClashScore>
0 

> <ConfOneFourInteractionScore>
-0.984337 

> <ConfScore>
-0.0897286 

> <ConfScorePBest>
0.00469947 

> <ConfTolerance>
0.29062 

$$$$
c13.sdf
 OpenBabel04162418043D

 44 47  0  0  0  0  0  0  0  0999 V2000
    2.0487    0.5686   -2.9583 N   0  0  0  1  0  0  0  0  0  0  0  0
    3.0734    1.1227   -3.5839 C   0  0  0  1  0  0  0  0  0  0  0  0
    3.0473    1.4062   -4.8660 N   0  0  0  1  0  0  0  0  0  0  0  0
    1.9608    1.1377   -5.5946 C   0  0  0  1  0  0  0  0  0  0  0  0
    0.8478    0.5463   -4.9598 C   0  0  0  1  0  0  0  0  0  0  0  0
    0.9323    0.2681   -3.5988 C   0  0  0  1  0  0  0  0  0  0  0  0
    1.6125    1.3094   -6.9523 C   0  0  0  1  0  0  0  0  0  0  0  0
    0.4010    0.8654   -7.1330 N   0  0  0  1  0  0  0  0  0  0  0  0
   -0.1121    0.3822   -5.9222 N   0  0  0  1  0  0  0  0  0  0  0  0
   -1.4620   -0.0654   -5.8481 C   0  0  0  1  0  0  0  0  0  0  0  0
   -1.7655   -1.2380   -5.1824 C   0  0  0  1  0  0  0  0  0  0  0  0
   -3.0801   -1.6709   -5.1057 C   0  0  0  1  0  0  0  0  0  0  0  0
   -4.0866   -0.9329   -5.6994 C   0  0  0  1  0  0  0  0  0  0  0  0
   -3.7820    0.2432   -6.3670 C   0  0  0  1  0  0  0  0  0  0  0  0
   -2.4713    0.6749   -6.4436 C   0  0  0  1  0  0  0  0  0  0  0  0
   -5.3703   -1.3586   -5.6289 O   0  0  0  1  0  0  0  0  0  0  0  0
   -6.3456   -0.6313   -6.3920 C   0  0  0  1  0  0  0  0  0  0  0  0
    4.1851    1.4072   -2.8819 N   0  0  0  1  0  0  0  0  0  0  0  0
    4.4471    1.2014   -1.4566 C   0  0  0  1  0  0  0  0  0  0  0  0
    5.0735   -0.1786   -1.2197 C   0  0  0  1  0  0  0  0  0  0  0  0
    6.3767    0.0610   -0.4536 C   0  0  0  1  0  0  0  0  0  0  0  0
    6.2535    1.4659    0.1413 C   0  0  0  1  0  0  0  0  0  0  0  0
    5.4846    2.2097   -0.9508 C   0  0  0  1  0  0  0  0  0  0  0  0
    6.5364   -0.9516    0.6314 N   0  0  0  1  0  0  0  0  0  0  0  0
    0.1330   -0.1675   -3.0958 H   0  0  0  1  0  0  0  0  0  0  0  0
    2.2223    1.7221   -7.6867 H   0  0  0  1  0  0  0  0  0  0  0  0
   -1.0077   -1.7955   -4.7391 H   0  0  0  1  0  0  0  0  0  0  0  0
   -3.3091   -2.5511   -4.6014 H   0  0  0  1  0  0  0  0  0  0  0  0
   -4.5398    0.8007   -6.8103 H   0  0  0  1  0  0  0  0  0  0  0  0
   -2.2423    1.5552   -6.9479 H   0  0  0  1  0  0  0  0  0  0  0  0
   -6.4149    0.3700   -6.0213 H   0  0  0  1  0  0  0  0  0  0  0  0
   -7.2979   -1.1110   -6.3028 H   0  0  0  1  0  0  0  0  0  0  0  0
   -6.0508   -0.6110   -7.4203 H   0  0  0  1  0  0  0  0  0  0  0  0
    4.9190    1.8064   -3.3942 H   0  0  0  1  0  0  0  0  0  0  0  0
    3.5334    1.2971   -0.9080 H   0  0  0  1  0  0  0  0  0  0  0  0
    5.2773   -0.6573   -2.1547 H   0  0  0  1  0  0  0  0  0  0  0  0
    4.4124   -0.7901   -0.6419 H   0  0  0  1  0  0  0  0  0  0  0  0
    7.2145    0.0088   -1.1170 H   0  0  0  1  0  0  0  0  0  0  0  0
    5.7062    1.4517    1.0606 H   0  0  0  1  0  0  0  0  0  0  0  0
    7.2160    1.9038    0.3054 H   0  0  0  1  0  0  0  0  0  0  0  0
    5.0027    3.0762   -0.5485 H   0  0  0  1  0  0  0  0  0  0  0  0
    6.1427    2.5020   -1.7422 H   0  0  0  1  0  0  0  0  0  0  0  0
    7.3560   -0.7648    1.1351 H   0  0  0  1  0  0  0  0  0  0  0  0
    6.5926   -1.8468    0.2367 H   0  0  0  1  0  0  0  0  0  0  0  0
  1  2  4  0  0  0  0
  1  6  4  0  0  0  0
  2  3  4  0  0  0  0
  2 18  1  0  0  0  0
  3  4  4  0  0  0  0
  4  5  4  0  0  0  0
  4  7  4  0  0  0  0
  5  6  4  0  0  0  0
  5  9  4  0  0  0  0
  6 25  1  0  0  0  0
  7  8  4  0  0  0  0
  7 26  1  0  0  0  0
  8  9  4  0  0  0  0
  9 10  1  0  0  0  0
 10 11  4  0  0  0  0
 10 15  4  0  0  0  0
 11 12  4  0  0  0  0
 11 27  1  0  0  0  0
 12 13  4  0  0  0  0
 12 28  1  0  0  0  0
 13 14  4  0  0  0  0
 13 16  1  0  0  0  0
 14 15  4  0  0  0  0
 14 29  1  0  0  0  0
 15 30  1  0  0  0  0
 16 17  1  0  0  0  0
 17 31  1  0  0  0  0
 17 32  1  0  0  0  0
 17 33  1  0  0  0  0
 18 19  1  0  0  0  0
 18 34  1  0  0  0  0
 19 20  1  0  0  0  0
 19 23  1  0  0  0  0
 19 35  1  0  0  0  0
 20 21  1  0  0  0  0
 20 36  1  0  0  0  0
 20 37  1  0  0  0  0
 21 22  1  0  0  0  0
 21 24  1  0  0  0  0
 21 38  1  0  0  0  0
 22 23  1  0  0  0  0
 22 39  1  0  0  0  0
 22 40  1  0  0  0  0
 23 41  1  0  0  0  0
 23 42  1  0  0  0  0
 24 43  1  0  0  0  0
 24 44  1  0  0  0  0
M  END
> <ConfClashScore>
0 

> <ConfOneFourInteractionScore>
-0.984337 

> <ConfScore>
-0.0894317 

> <ConfScorePBest>
0.00468614 

> <ConfTolerance>
0.290729 

$$$$
c13.sdf
 OpenBabel04162418043D

 44 47  0  0  0  0  0  0  0  0999 V2000
    3.5071    2.8024   -3.9235 N   0  0  0  1  0  0  0  0  0  0  0  0
    4.7123    2.2636   -3.9977 C   0  0  0  1  0  0  0  0  0  0  0  0
    5.4772    2.3902   -5.0579 N   0  0  0  1  0  0  0  0  0  0  0  0
    5.0523    3.0824   -6.1180 C   0  0  0  1  0  0  0  0  0  0  0  0
    3.7707    3.6715   -6.0738 C   0  0  0  1  0  0  0  0  0  0  0  0
    3.0043    3.5043   -4.9242 C   0  0  0  1  0  0  0  0  0  0  0  0
    5.6050    3.4019   -7.3775 C   0  0  0  1  0  0  0  0  0  0  0  0
    4.7442    4.1189   -8.0426 N   0  0  0  1  0  0  0  0  0  0  0  0
    3.5906    4.3107   -7.2710 N   0  0  0  1  0  0  0  0  0  0  0  0
    2.5046    5.0579   -7.7702 C   0  0  0  1  0  0  0  0  0  0  0  0
    2.6669    6.3000   -8.3541 C   0  0  0  1  0  0  0  0  0  0  0  0
    1.5641    6.9897   -8.8334 C   0  0  0  1  0  0  0  0  0  0  0  0
    0.3018    6.4378   -8.7226 C   0  0  0  1  0  0  0  0  0  0  0  0
    0.1393    5.1920   -8.1369 C   0  0  0  1  0  0  0  0  0  0  0  0
    1.2387    4.5041   -7.6590 C   0  0  0  1  0  0  0  0  0  0  0  0
   -0.7760    7.1140   -9.1862 O   0  0  0  1  0  0  0  0  0  0  0  0
   -2.0452    6.4445   -9.1287 C   0  0  0  1  0  0  0  0  0  0  0  0
    5.1737    1.5591   -2.9487 N   0  0  0  1  0  0  0  0  0  0  0  0
    4.5774    1.2125   -1.6546 C   0  0  0  1  0  0  0  0  0  0  0  0
    5.0334   -0.1747   -1.1859 C   0  0  0  1  0  0  0  0  0  0  0  0
    6.3999   -0.0086   -0.5287 C   0  0  0  1  0  0  0  0  0  0  0  0
    6.4905    1.5210   -0.1941 C   0  0  0  1  0  0  0  0  0  0  0  0
    5.1171    2.1396   -0.5143 C   0  0  0  1  0  0  0  0  0  0  0  0
    6.4900   -0.8316    0.7228 N   0  0  0  1  0  0  0  0  0  0  0  0
    2.0550    3.9232   -4.8539 H   0  0  0  1  0  0  0  0  0  0  0  0
    6.5441    3.1127   -7.7180 H   0  0  0  1  0  0  0  0  0  0  0  0
    3.6162    6.7172   -8.4339 H   0  0  0  1  0  0  0  0  0  0  0  0
    1.6866    7.9226   -9.2765 H   0  0  0  1  0  0  0  0  0  0  0  0
   -0.8100    4.7748   -8.0571 H   0  0  0  1  0  0  0  0  0  0  0  0
    1.1163    3.5712   -7.2159 H   0  0  0  1  0  0  0  0  0  0  0  0
   -2.2511    6.1554   -8.1193 H   0  0  0  1  0  0  0  0  0  0  0  0
   -2.0174    5.5739   -9.7502 H   0  0  0  1  0  0  0  0  0  0  0  0
   -2.8127    7.1053   -9.4739 H   0  0  0  1  0  0  0  0  0  0  0  0
    6.0813    1.2112   -3.0731 H   0  0  0  1  0  0  0  0  0  0  0  0
    3.5112    1.2666   -1.7266 H   0  0  0  1  0  0  0  0  0  0  0  0
    5.1086   -0.8369   -2.0230 H   0  0  0  1  0  0  0  0  0  0  0  0
    4.3338   -0.5700   -0.4794 H   0  0  0  1  0  0  0  0  0  0  0  0
    7.1806   -0.2954   -1.2018 H   0  0  0  1  0  0  0  0  0  0  0  0
    7.2485    1.9826   -0.7917 H   0  0  0  1  0  0  0  0  0  0  0  0
    6.7207    1.6564    0.8420 H   0  0  0  1  0  0  0  0  0  0  0  0
    4.4739    2.1135    0.3405 H   0  0  0  1  0  0  0  0  0  0  0  0
    5.2188    3.1491   -0.8540 H   0  0  0  1  0  0  0  0  0  0  0  0
    7.3726   -0.7102    1.1312 H   0  0  0  1  0  0  0  0  0  0  0  0
    6.3599   -1.7774    0.5016 H   0  0  0  1  0  0  0  0  0  0  0  0
  1  2  4  0  0  0  0
  1  6  4  0  0  0  0
  2  3  4  0  0  0  0
  2 18  1  0  0  0  0
  3  4  4  0  0  0  0
  4  5  4  0  0  0  0
  4  7  4  0  0  0  0
  5  6  4  0  0  0  0
  5  9  4  0  0  0  0
  6 25  1  0  0  0  0
  7  8  4  0  0  0  0
  7 26  1  0  0  0  0
  8  9  4  0  0  0  0
  9 10  1  0  0  0  0
 10 11  4  0  0  0  0
 10 15  4  0  0  0  0
 11 12  4  0  0  0  0
 11 27  1  0  0  0  0
 12 13  4  0  0  0  0
 12 28  1  0  0  0  0
 13 14  4  0  0  0  0
 13 16  1  0  0  0  0
 14 15  4  0  0  0  0
 14 29  1  0  0  0  0
 15 30  1  0  0  0  0
 16 17  1  0  0  0  0
 17 31  1  0  0  0  0
 17 32  1  0  0  0  0
 17 33  1  0  0  0  0
 18 19  1  0  0  0  0
 18 34  1  0  0  0  0
 19 20  1  0  0  0  0
 19 23  1  0  0  0  0
 19 35  1  0  0  0  0
 20 21  1  0  0  0  0
 20 36  1  0  0  0  0
 20 37  1  0  0  0  0
 21 22  1  0  0  0  0
 21 24  1  0  0  0  0
 21 38  1  0  0  0  0
 22 23  1  0  0  0  0
 22 39  1  0  0  0  0
 22 40  1  0  0  0  0
 23 41  1  0  0  0  0
 23 42  1  0  0  0  0
 24 43  1  0  0  0  0
 24 44  1  0  0  0  0
M  END
> <ConfClashScore>
0 

> <ConfOneFourInteractionScore>
-0.984337 

> <ConfScore>
-0.0875106 

> <ConfScorePBest>
0.00467282 

> <ConfTolerance>
0.306498 

$$$$
c13.sdf
 OpenBabel04162418043D

 44 47  0  0  0  0  0  0  0  0999 V2000
    2.3396    0.9402   -3.1925 N   0  0  0  1  0  0  0  0  0  0  0  0
    3.5185    1.2016   -3.7314 C   0  0  0  1  0  0  0  0  0  0  0  0
    3.6773    1.3941   -5.0208 N   0  0  0  1  0  0  0  0  0  0  0  0
    2.6297    1.3303   -5.8468 C   0  0  0  1  0  0  0  0  0  0  0  0
    1.3560    1.0534   -5.3062 C   0  0  0  1  0  0  0  0  0  0  0  0
    1.2477    0.8582   -3.9325 C   0  0  0  1  0  0  0  0  0  0  0  0
    2.4575    1.4823   -7.2401 C   0  0  0  1  0  0  0  0  0  0  0  0
    1.1977    1.3145   -7.5268 N   0  0  0  1  0  0  0  0  0  0  0  0
    0.4769    1.0460   -6.3558 N   0  0  0  1  0  0  0  0  0  0  0  0
   -0.9289    0.8230   -6.4001 C   0  0  0  1  0  0  0  0  0  0  0  0
   -1.4626   -0.0387   -7.3397 C   0  0  0  1  0  0  0  0  0  0  0  0
   -2.8304   -0.2598   -7.3793 C   0  0  0  1  0  0  0  0  0  0  0  0
   -3.6612    0.3854   -6.4827 C   0  0  0  1  0  0  0  0  0  0  0  0
   -3.1258    1.2496   -5.5403 C   0  0  0  1  0  0  0  0  0  0  0  0
   -1.7619    1.4702   -5.5008 C   0  0  0  1  0  0  0  0  0  0  0  0
   -4.9768    0.0955   -6.6205 O   0  0  0  1  0  0  0  0  0  0  0  0
   -5.9008    0.8388   -5.8104 C   0  0  0  1  0  0  0  0  0  0  0  0
    4.6117    1.2744   -2.9186 N   0  0  0  1  0  0  0  0  0  0  0  0
    4.4919    1.2124   -1.4590 C   0  0  0  1  0  0  0  0  0  0  0  0
    4.9620   -0.1507   -0.9395 C   0  0  0  1  0  0  0  0  0  0  0  0
    6.4508    0.0346   -0.6455 C   0  0  0  1  0  0  0  0  0  0  0  0
    6.4861    1.4420   -0.0447 C   0  0  0  1  0  0  0  0  0  0  0  0
    5.4206    2.2400   -0.7999 C   0  0  0  1  0  0  0  0  0  0  0  0
    6.9418   -0.9850    0.3319 N   0  0  0  1  0  0  0  0  0  0  0  0
    0.3260    0.6520   -3.4970 H   0  0  0  1  0  0  0  0  0  0  0  0
    3.2117    1.6934   -7.9243 H   0  0  0  1  0  0  0  0  0  0  0  0
   -0.8380   -0.5211   -8.0170 H   0  0  0  1  0  0  0  0  0  0  0  0
   -3.2316   -0.9113   -8.0837 H   0  0  0  1  0  0  0  0  0  0  0  0
   -3.7504    1.7321   -4.8631 H   0  0  0  1  0  0  0  0  0  0  0  0
   -1.3607    2.1217   -4.7964 H   0  0  0  1  0  0  0  0  0  0  0  0
   -6.9025    0.6053   -6.1055 H   0  0  0  1  0  0  0  0  0  0  0  0
   -5.7261    1.8864   -5.9404 H   0  0  0  1  0  0  0  0  0  0  0  0
   -5.7624    0.5785   -4.7819 H   0  0  0  1  0  0  0  0  0  0  0  0
    5.5001    1.3706   -3.3210 H   0  0  0  1  0  0  0  0  0  0  0  0
    3.4754    1.3907   -1.1762 H   0  0  0  1  0  0  0  0  0  0  0  0
    4.8161   -0.9074   -1.6818 H   0  0  0  1  0  0  0  0  0  0  0  0
    4.4325   -0.4173   -0.0488 H   0  0  0  1  0  0  0  0  0  0  0  0
    7.0332   -0.0199   -1.5414 H   0  0  0  1  0  0  0  0  0  0  0  0
    6.2562    1.4078    0.9997 H   0  0  0  1  0  0  0  0  0  0  0  0
    7.4510    1.8830   -0.1839 H   0  0  0  1  0  0  0  0  0  0  0  0
    5.8793    2.8552   -1.5456 H   0  0  0  1  0  0  0  0  0  0  0  0
    4.8684    2.8545   -0.1200 H   0  0  0  1  0  0  0  0  0  0  0  0
    6.7189   -1.8826    0.0079 H   0  0  0  1  0  0  0  0  0  0  0  0
    6.5144   -0.8363    1.2011 H   0  0  0  1  0  0  0  0  0  0  0  0
  1  2  4  0  0  0  0
  1  6  4  0  0  0  0
  2  3  4  0  0  0  0
  2 18  1  0  0  0  0
  3  4  4  0  0  0  0
  4  5  4  0  0  0  0
  4  7  4  0  0  0  0
  5  6  4  0  0  0  0
  5  9  4  0  0  0  0
  6 25  1  0  0  0  0
  7  8  4  0  0  0  0
  7 26  1  0  0  0  0
  8  9  4  0  0  0  0
  9 10  1  0  0  0  0
 10 11  4  0  0  0  0
 10 15  4  0  0  0  0
 11 12  4  0  0  0  0
 11 27  1  0  0  0  0
 12 13  4  0  0  0  0
 12 28  1  0  0  0  0
 13 14  4  0  0  0  0
 13 16  1  0  0  0  0
 14 15  4  0  0  0  0
 14 29  1  0  0  0  0
 15 30  1  0  0  0  0
 16 17  1  0  0  0  0
 17 31  1  0  0  0  0
 17 32  1  0  0  0  0
 17 33  1  0  0  0  0
 18 19  1  0  0  0  0
 18 34  1  0  0  0  0
 19 20  1  0  0  0  0
 19 23  1  0  0  0  0
 19 35  1  0  0  0  0
 20 21  1  0  0  0  0
 20 36  1  0  0  0  0
 20 37  1  0  0  0  0
 21 22  1  0  0  0  0
 21 24  1  0  0  0  0
 21 38  1  0  0  0  0
 22 23  1  0  0  0  0
 22 39  1  0  0  0  0
 22 40  1  0  0  0  0
 23 41  1  0  0  0  0
 23 42  1  0  0  0  0
 24 43  1  0  0  0  0
 24 44  1  0  0  0  0
M  END
> <ConfClashScore>
0 

> <ConfOneFourInteractionScore>
-0.984337 

> <ConfScore>
-0.0858745 

> <ConfScorePBest>
0.00465949 

> <ConfTolerance>
0.233821 

$$$$
c13.sdf
 OpenBabel04162418043D

 44 47  0  0  0  0  0  0  0  0999 V2000
    2.1155    2.6007   -1.7598 N   0  0  0  1  0  0  0  0  0  0  0  0
    2.9172    2.3857   -2.7891 C   0  0  0  1  0  0  0  0  0  0  0  0
    2.6891    2.8935   -3.9787 N   0  0  0  1  0  0  0  0  0  0  0  0
    1.6162    3.6600   -4.1909 C   0  0  0  1  0  0  0  0  0  0  0  0
    0.7385    3.9107   -3.1147 C   0  0  0  1  0  0  0  0  0  0  0  0
    1.0306    3.3464   -1.8765 C   0  0  0  1  0  0  0  0  0  0  0  0
    1.0924    4.3406   -5.3118 C   0  0  0  1  0  0  0  0  0  0  0  0
   -0.0026    4.9509   -4.9568 N   0  0  0  1  0  0  0  0  0  0  0  0
   -0.2604    4.7112   -3.6007 N   0  0  0  1  0  0  0  0  0  0  0  0
   -1.4062    5.2704   -2.9664 C   0  0  0  1  0  0  0  0  0  0  0  0
   -1.7270    4.9053   -1.6727 C   0  0  0  1  0  0  0  0  0  0  0  0
   -2.8393    5.4537   -1.0535 C   0  0  0  1  0  0  0  0  0  0  0  0
   -3.6306    6.3617   -1.7316 C   0  0  0  1  0  0  0  0  0  0  0  0
   -3.3086    6.7279   -3.0292 C   0  0  0  1  0  0  0  0  0  0  0  0
   -2.1996    6.1810   -3.6468 C   0  0  0  1  0  0  0  0  0  0  0  0
   -4.7343    6.9546   -1.2365 O   0  0  0  1  0  0  0  0  0  0  0  0
   -5.0537    6.6089    0.1313 C   0  0  0  1  0  0  0  0  0  0  0  0
    4.0078    1.6183   -2.6127 N   0  0  0  1  0  0  0  0  0  0  0  0
    4.4062    1.0505   -1.3237 C   0  0  0  1  0  0  0  0  0  0  0  0
    5.3222   -0.1525   -1.5245 C   0  0  0  1  0  0  0  0  0  0  0  0
    6.4484   -0.0505   -0.4886 C   0  0  0  1  0  0  0  0  0  0  0  0
    6.6989    1.4936   -0.4253 C   0  0  0  1  0  0  0  0  0  0  0  0
    5.2750    2.0734   -0.5121 C   0  0  0  1  0  0  0  0  0  0  0  0
    6.0206   -0.5762    0.8189 N   0  0  0  1  0  0  0  0  0  0  0  0
    0.4077    3.5082   -1.0596 H   0  0  0  1  0  0  0  0  0  0  0  0
    1.5115    4.3528   -6.2635 H   0  0  0  1  0  0  0  0  0  0  0  0
   -1.1340    4.2190   -1.1638 H   0  0  0  1  0  0  0  0  0  0  0  0
   -3.0785    5.1820   -0.0785 H   0  0  0  1  0  0  0  0  0  0  0  0
   -3.9017    7.4141   -3.5382 H   0  0  0  1  0  0  0  0  0  0  0  0
   -1.9604    6.4527   -4.6217 H   0  0  0  1  0  0  0  0  0  0  0  0
   -5.9548    7.1060    0.4243 H   0  0  0  1  0  0  0  0  0  0  0  0
   -4.2534    6.9147    0.7724 H   0  0  0  1  0  0  0  0  0  0  0  0
   -5.1891    5.5504    0.2091 H   0  0  0  1  0  0  0  0  0  0  0  0
    4.5689    1.4281   -3.3933 H   0  0  0  1  0  0  0  0  0  0  0  0
    3.5333    0.7731   -0.7706 H   0  0  0  1  0  0  0  0  0  0  0  0
    4.7724   -1.0588   -1.3786 H   0  0  0  1  0  0  0  0  0  0  0  0
    5.7322   -0.1387   -2.5127 H   0  0  0  1  0  0  0  0  0  0  0  0
    7.3237   -0.5725   -0.8145 H   0  0  0  1  0  0  0  0  0  0  0  0
    7.2991    1.8208   -1.2485 H   0  0  0  1  0  0  0  0  0  0  0  0
    7.1722    1.7699    0.4938 H   0  0  0  1  0  0  0  0  0  0  0  0
    4.8702    2.1995    0.4704 H   0  0  0  1  0  0  0  0  0  0  0  0
    5.2939    3.0179   -1.0145 H   0  0  0  1  0  0  0  0  0  0  0  0
    6.6721   -0.3186    1.5041 H   0  0  0  1  0  0  0  0  0  0  0  0
    5.9625   -1.5535    0.7746 H   0  0  0  1  0  0  0  0  0  0  0  0
  1  2  4  0  0  0  0
  1  6  4  0  0  0  0
  2  3  4  0  0  0  0
  2 18  1  0  0  0  0
  3  4  4  0  0  0  0
  4  5  4  0  0  0  0
  4  7  4  0  0  0  0
  5  6  4  0  0  0  0
  5  9  4  0  0  0  0
  6 25  1  0  0  0  0
  7  8  4  0  0  0  0
  7 26  1  0  0  0  0
  8  9  4  0  0  0  0
  9 10  1  0  0  0  0
 10 11  4  0  0  0  0
 10 15  4  0  0  0  0
 11 12  4  0  0  0  0
 11 27  1  0  0  0  0
 12 13  4  0  0  0  0
 12 28  1  0  0  0  0
 13 14  4  0  0  0  0
 13 16  1  0  0  0  0
 14 15  4  0  0  0  0
 14 29  1  0  0  0  0
 15 30  1  0  0  0  0
 16 17  1  0  0  0  0
 17 31  1  0  0  0  0
 17 32  1  0  0  0  0
 17 33  1  0  0  0  0
 18 19  1  0  0  0  0
 18 34  1  0  0  0  0
 19 20  1  0  0  0  0
 19 23  1  0  0  0  0
 19 35  1  0  0  0  0
 20 21  1  0  0  0  0
 20 36  1  0  0  0  0
 20 37  1  0  0  0  0
 21 22  1  0  0  0  0
 21 24  1  0  0  0  0
 21 38  1  0  0  0  0
 22 23  1  0  0  0  0
 22 39  1  0  0  0  0
 22 40  1  0  0  0  0
 23 41  1  0  0  0  0
 23 42  1  0  0  0  0
 24 43  1  0  0  0  0
 24 44  1  0  0  0  0
M  END
> <ConfClashScore>
0 

> <ConfOneFourInteractionScore>
-0.984337 

> <ConfScore>
-0.0858234 

> <ConfScorePBest>
0.00464616 

> <ConfTolerance>
0.340573 

$$$$
c13.sdf
 OpenBabel04162418043D

 44 47  0  0  0  0  0  0  0  0999 V2000
    1.6865    0.8225   -1.5968 N   0  0  0  1  0  0  0  0  0  0  0  0
    2.4210    1.1685   -2.6404 C   0  0  0  1  0  0  0  0  0  0  0  0
    1.9189    1.2855   -3.8484 N   0  0  0  1  0  0  0  0  0  0  0  0
    0.6218    1.0533   -4.0656 C   0  0  0  1  0  0  0  0  0  0  0  0
   -0.1925    0.6819   -2.9746 C   0  0  0  1  0  0  0  0  0  0  0  0
    0.3941    0.5736   -1.7171 C   0  0  0  1  0  0  0  0  0  0  0  0
   -0.2125    1.0878   -5.2044 C   0  0  0  1  0  0  0  0  0  0  0  0
   -1.4235    0.7679   -4.8458 N   0  0  0  1  0  0  0  0  0  0  0  0
   -1.4571    0.5077   -3.4696 N   0  0  0  1  0  0  0  0  0  0  0  0
   -2.6698    0.1355   -2.8288 C   0  0  0  1  0  0  0  0  0  0  0  0
   -2.7847   -1.0268   -2.0900 C   0  0  0  1  0  0  0  0  0  0  0  0
   -3.9565   -1.2967   -1.4005 C   0  0  0  1  0  0  0  0  0  0  0  0
   -5.0120   -0.4060   -1.4561 C   0  0  0  1  0  0  0  0  0  0  0  0
   -4.8966    0.7597   -2.1972 C   0  0  0  1  0  0  0  0  0  0  0  0
   -3.7282    1.0289   -2.8848 C   0  0  0  1  0  0  0  0  0  0  0  0
   -6.2166   -0.5239   -0.8486 O   0  0  0  1  0  0  0  0  0  0  0  0
   -6.4639   -1.7306   -0.1103 C   0  0  0  1  0  0  0  0  0  0  0  0
    3.7319    1.4101   -2.4596 N   0  0  0  1  0  0  0  0  0  0  0  0
    4.4329    1.2003   -1.1919 C   0  0  0  1  0  0  0  0  0  0  0  0
    5.1025   -0.1758   -1.1736 C   0  0  0  1  0  0  0  0  0  0  0  0
    6.4902    0.0228   -0.5511 C   0  0  0  1  0  0  0  0  0  0  0  0
    6.5221    1.4840   -0.0898 C   0  0  0  1  0  0  0  0  0  0  0  0
    5.5689    2.2142   -1.0359 C   0  0  0  1  0  0  0  0  0  0  0  0
    6.6785   -0.8975    0.6123 N   0  0  0  1  0  0  0  0  0  0  0  0
   -0.1732    0.3023   -0.8888 H   0  0  0  1  0  0  0  0  0  0  0  0
    0.0898    1.3287   -6.1699 H   0  0  0  1  0  0  0  0  0  0  0  0
   -1.9920   -1.6990   -2.0513 H   0  0  0  1  0  0  0  0  0  0  0  0
   -4.0416   -2.1694   -0.8412 H   0  0  0  1  0  0  0  0  0  0  0  0
   -5.6893    1.4319   -2.2359 H   0  0  0  1  0  0  0  0  0  0  0  0
   -3.6432    1.9016   -3.4441 H   0  0  0  1  0  0  0  0  0  0  0  0
   -5.7483   -1.8186    0.6803 H   0  0  0  1  0  0  0  0  0  0  0  0
   -6.3776   -2.5728   -0.7646 H   0  0  0  1  0  0  0  0  0  0  0  0
   -7.4502   -1.6994    0.3035 H   0  0  0  1  0  0  0  0  0  0  0  0
    4.2481    1.7466   -3.2216 H   0  0  0  1  0  0  0  0  0  0  0  0
    3.7398    1.2889   -0.3815 H   0  0  0  1  0  0  0  0  0  0  0  0
    4.5273   -0.8587   -0.5840 H   0  0  0  1  0  0  0  0  0  0  0  0
    5.1953   -0.5547   -2.1700 H   0  0  0  1  0  0  0  0  0  0  0  0
    7.2556   -0.1576   -1.2768 H   0  0  0  1  0  0  0  0  0  0  0  0
    6.1850    1.5668    0.9223 H   0  0  0  1  0  0  0  0  0  0  0  0
    7.5117    1.8829   -0.1704 H   0  0  0  1  0  0  0  0  0  0  0  0
    5.2173    3.1278   -0.6039 H   0  0  0  1  0  0  0  0  0  0  0  0
    6.0370    2.4205   -1.9757 H   0  0  0  1  0  0  0  0  0  0  0  0
    6.6538   -1.8267    0.3017 H   0  0  0  1  0  0  0  0  0  0  0  0
    5.9607   -0.7518    1.2633 H   0  0  0  1  0  0  0  0  0  0  0  0
  1  2  4  0  0  0  0
  1  6  4  0  0  0  0
  2  3  4  0  0  0  0
  2 18  1  0  0  0  0
  3  4  4  0  0  0  0
  4  5  4  0  0  0  0
  4  7  4  0  0  0  0
  5  6  4  0  0  0  0
  5  9  4  0  0  0  0
  6 25  1  0  0  0  0
  7  8  4  0  0  0  0
  7 26  1  0  0  0  0
  8  9  4  0  0  0  0
  9 10  1  0  0  0  0
 10 11  4  0  0  0  0
 10 15  4  0  0  0  0
 11 12  4  0  0  0  0
 11 27  1  0  0  0  0
 12 13  4  0  0  0  0
 12 28  1  0  0  0  0
 13 14  4  0  0  0  0
 13 16  1  0  0  0  0
 14 15  4  0  0  0  0
 14 29  1  0  0  0  0
 15 30  1  0  0  0  0
 16 17  1  0  0  0  0
 17 31  1  0  0  0  0
 17 32  1  0  0  0  0
 17 33  1  0  0  0  0
 18 19  1  0  0  0  0
 18 34  1  0  0  0  0
 19 20  1  0  0  0  0
 19 23  1  0  0  0  0
 19 35  1  0  0  0  0
 20 21  1  0  0  0  0
 20 36  1  0  0  0  0
 20 37  1  0  0  0  0
 21 22  1  0  0  0  0
 21 24  1  0  0  0  0
 21 38  1  0  0  0  0
 22 23  1  0  0  0  0
 22 39  1  0  0  0  0
 22 40  1  0  0  0  0
 23 41  1  0  0  0  0
 23 42  1  0  0  0  0
 24 43  1  0  0  0  0
 24 44  1  0  0  0  0
M  END
> <ConfClashScore>
0 

> <ConfOneFourInteractionScore>
-0.984337 

> <ConfScore>
-0.0850278 

> <ConfScorePBest>
0.00463283 

> <ConfTolerance>
0.323465 

$$$$
c13.sdf
 OpenBabel04162418043D

 44 47  0  0  0  0  0  0  0  0999 V2000
    2.5383    3.2065   -1.0834 N   0  0  0  1  0  0  0  0  0  0  0  0
    2.6189    2.4661   -2.1759 C   0  0  0  1  0  0  0  0  0  0  0  0
    1.8611    2.6765   -3.2278 N   0  0  0  1  0  0  0  0  0  0  0  0
    0.9653    3.6670   -3.2269 C   0  0  0  1  0  0  0  0  0  0  0  0
    0.8519    4.4777   -2.0775 C   0  0  0  1  0  0  0  0  0  0  0  0
    1.6810    4.2082   -0.9926 C   0  0  0  1  0  0  0  0  0  0  0  0
    0.0236    4.1504   -4.1617 C   0  0  0  1  0  0  0  0  0  0  0  0
   -0.6073    5.1615   -3.6355 N   0  0  0  1  0  0  0  0  0  0  0  0
   -0.1250    5.3998   -2.3419 N   0  0  0  1  0  0  0  0  0  0  0  0
   -0.5651    6.5544   -1.6355 C   0  0  0  1  0  0  0  0  0  0  0  0
   -0.8740    6.4659   -0.2913 C   0  0  0  1  0  0  0  0  0  0  0  0
   -1.2974    7.5916    0.3979 C   0  0  0  1  0  0  0  0  0  0  0  0
   -1.4158    8.8012   -0.2602 C   0  0  0  1  0  0  0  0  0  0  0  0
   -1.1059    8.8897   -1.6084 C   0  0  0  1  0  0  0  0  0  0  0  0
   -0.6837    7.7674   -2.2957 C   0  0  0  1  0  0  0  0  0  0  0  0
   -1.8227    9.9628    0.3046 O   0  0  0  1  0  0  0  0  0  0  0  0
   -1.9580    9.9854    1.7341 C   0  0  0  1  0  0  0  0  0  0  0  0
    3.5100    1.4591   -2.2128 N   0  0  0  1  0  0  0  0  0  0  0  0
    4.3988    1.0445   -1.1262 C   0  0  0  1  0  0  0  0  0  0  0  0
    5.2725   -0.1381   -1.5449 C   0  0  0  1  0  0  0  0  0  0  0  0
    6.4731   -0.0955   -0.5932 C   0  0  0  1  0  0  0  0  0  0  0  0
    6.6333    1.3807   -0.2083 C   0  0  0  1  0  0  0  0  0  0  0  0
    5.4424    2.1217   -0.8206 C   0  0  0  1  0  0  0  0  0  0  0  0
    6.2124   -0.9149    0.6028 N   0  0  0  1  0  0  0  0  0  0  0  0
    1.6269    4.7835   -0.1279 H   0  0  0  1  0  0  0  0  0  0  0  0
   -0.1394    3.7631   -5.1130 H   0  0  0  1  0  0  0  0  0  0  0  0
   -0.7888    5.5549    0.2031 H   0  0  0  1  0  0  0  0  0  0  0  0
   -1.5260    7.5260    1.4104 H   0  0  0  1  0  0  0  0  0  0  0  0
   -1.1911    9.8008   -2.1028 H   0  0  0  1  0  0  0  0  0  0  0  0
   -0.4551    7.8330   -3.3082 H   0  0  0  1  0  0  0  0  0  0  0  0
   -2.2991   10.9506    2.0455 H   0  0  0  1  0  0  0  0  0  0  0  0
   -1.0097    9.7799    2.1852 H   0  0  0  1  0  0  0  0  0  0  0  0
   -2.6659    9.2424    2.0369 H   0  0  0  1  0  0  0  0  0  0  0  0
    3.5701    0.9531   -3.0499 H   0  0  0  1  0  0  0  0  0  0  0  0
    3.8175    0.8099   -0.2591 H   0  0  0  1  0  0  0  0  0  0  0  0
    5.5925   -0.0291   -2.5601 H   0  0  0  1  0  0  0  0  0  0  0  0
    4.7379   -1.0585   -1.4358 H   0  0  0  1  0  0  0  0  0  0  0  0
    7.3539   -0.4519   -1.0853 H   0  0  0  1  0  0  0  0  0  0  0  0
    6.6272    1.4876    0.8564 H   0  0  0  1  0  0  0  0  0  0  0  0
    7.5505    1.7674   -0.6008 H   0  0  0  1  0  0  0  0  0  0  0  0
    5.0499    2.8352   -0.1266 H   0  0  0  1  0  0  0  0  0  0  0  0
    5.7364    2.6221   -1.7195 H   0  0  0  1  0  0  0  0  0  0  0  0
    5.4177   -0.5754    1.0650 H   0  0  0  1  0  0  0  0  0  0  0  0
    6.9845   -0.8691    1.2046 H   0  0  0  1  0  0  0  0  0  0  0  0
  1  2  4  0  0  0  0
  1  6  4  0  0  0  0
  2  3  4  0  0  0  0
  2 18  1  0  0  0  0
  3  4  4  0  0  0  0
  4  5  4  0  0  0  0
  4  7  4  0  0  0  0
  5  6  4  0  0  0  0
  5  9  4  0  0  0  0
  6 25  1  0  0  0  0
  7  8  4  0  0  0  0
  7 26  1  0  0  0  0
  8  9  4  0  0  0  0
  9 10  1  0  0  0  0
 10 11  4  0  0  0  0
 10 15  4  0  0  0  0
 11 12  4  0  0  0  0
 11 27  1  0  0  0  0
 12 13  4  0  0  0  0
 12 28  1  0  0  0  0
 13 14  4  0  0  0  0
 13 16  1  0  0  0  0
 14 15  4  0  0  0  0
 14 29  1  0  0  0  0
 15 30  1  0  0  0  0
 16 17  1  0  0  0  0
 17 31  1  0  0  0  0
 17 32  1  0  0  0  0
 17 33  1  0  0  0  0
 18 19  1  0  0  0  0
 18 34  1  0  0  0  0
 19 20  1  0  0  0  0
 19 23  1  0  0  0  0
 19 35  1  0  0  0  0
 20 21  1  0  0  0  0
 20 36  1  0  0  0  0
 20 37  1  0  0  0  0
 21 22  1  0  0  0  0
 21 24  1  0  0  0  0
 21 38  1  0  0  0  0
 22 23  1  0  0  0  0
 22 39  1  0  0  0  0
 22 40  1  0  0  0  0
 23 41  1  0  0  0  0
 23 42  1  0  0  0  0
 24 43  1  0  0  0  0
 24 44  1  0  0  0  0
M  END
> <ConfClashScore>
0 

> <ConfOneFourInteractionScore>
-0.984337 

> <ConfScore>
-0.0836748 

> <ConfScorePBest>
0.0046195 

> <ConfTolerance>
0.241362 

$$$$
c13.sdf
 OpenBabel04162418043D

 44 47  0  0  0  0  0  0  0  0999 V2000
    2.6946    1.0013   -3.5845 N   0  0  0  1  0  0  0  0  0  0  0  0
    3.9308    1.3789   -3.8631 C   0  0  0  1  0  0  0  0  0  0  0  0
    4.3218    1.6681   -5.0831 N   0  0  0  1  0  0  0  0  0  0  0  0
    3.4639    1.5882   -6.1035 C   0  0  0  1  0  0  0  0  0  0  0  0
    2.1359    1.1885   -5.8431 C   0  0  0  1  0  0  0  0  0  0  0  0
    1.7781    0.8943   -4.5306 C   0  0  0  1  0  0  0  0  0  0  0  0
    3.5548    1.8213   -7.4932 C   0  0  0  1  0  0  0  0  0  0  0  0
    2.3928    1.5869   -8.0338 N   0  0  0  1  0  0  0  0  0  0  0  0
    1.4817    1.1912   -7.0458 N   0  0  0  1  0  0  0  0  0  0  0  0
    0.1432    0.8776   -7.3788 C   0  0  0  1  0  0  0  0  0  0  0  0
   -0.2630    0.6555   -8.6811 C   0  0  0  1  0  0  0  0  0  0  0  0
   -1.5870    0.3461   -8.9507 C   0  0  0  1  0  0  0  0  0  0  0  0
   -2.5020    0.2648   -7.9181 C   0  0  0  1  0  0  0  0  0  0  0  0
   -2.0944    0.4876   -6.6120 C   0  0  0  1  0  0  0  0  0  0  0  0
   -0.7743    0.7962   -6.3430 C   0  0  0  1  0  0  0  0  0  0  0  0
   -3.7525   -0.1574   -8.2210 O   0  0  0  1  0  0  0  0  0  0  0  0
   -4.6882   -0.2684   -7.1371 C   0  0  0  1  0  0  0  0  0  0  0  0
    4.8226    1.4706   -2.8602 N   0  0  0  1  0  0  0  0  0  0  0  0
    4.5026    1.2015   -1.4544 C   0  0  0  1  0  0  0  0  0  0  0  0
    4.9780   -0.1912   -1.0333 C   0  0  0  1  0  0  0  0  0  0  0  0
    6.4582   -0.0323   -0.6781 C   0  0  0  1  0  0  0  0  0  0  0  0
    6.6913    1.4652   -0.4413 C   0  0  0  1  0  0  0  0  0  0  0  0
    5.3027    2.1090   -0.5198 C   0  0  0  1  0  0  0  0  0  0  0  0
    6.7779   -0.8068    0.5603 N   0  0  0  1  0  0  0  0  0  0  0  0
    0.8089    0.5963   -4.2991 H   0  0  0  1  0  0  0  0  0  0  0  0
    4.4083    2.1294   -8.0014 H   0  0  0  1  0  0  0  0  0  0  0  0
    0.4247    0.7206   -9.4586 H   0  0  0  1  0  0  0  0  0  0  0  0
   -1.8918    0.1750   -9.9302 H   0  0  0  1  0  0  0  0  0  0  0  0
   -2.7820    0.4226   -5.8344 H   0  0  0  1  0  0  0  0  0  0  0  0
   -0.4694    0.9673   -5.3635 H   0  0  0  1  0  0  0  0  0  0  0  0
   -4.2856   -0.9109   -6.3821 H   0  0  0  1  0  0  0  0  0  0  0  0
   -5.6076   -0.6777   -7.5004 H   0  0  0  1  0  0  0  0  0  0  0  0
   -4.8684    0.7009   -6.7212 H   0  0  0  1  0  0  0  0  0  0  0  0
    5.7405    1.7327   -3.0820 H   0  0  0  1  0  0  0  0  0  0  0  0
    3.4501    1.3158   -1.2995 H   0  0  0  1  0  0  0  0  0  0  0  0
    4.4249   -0.5332   -0.1836 H   0  0  0  1  0  0  0  0  0  0  0  0
    4.8600   -0.8852   -1.8392 H   0  0  0  1  0  0  0  0  0  0  0  0
    7.0708   -0.3786   -1.4842 H   0  0  0  1  0  0  0  0  0  0  0  0
    7.1260    1.6287    0.5227 H   0  0  0  1  0  0  0  0  0  0  0  0
    7.3341    1.8681   -1.1958 H   0  0  0  1  0  0  0  0  0  0  0  0
    4.8493    2.1457    0.4487 H   0  0  0  1  0  0  0  0  0  0  0  0
    5.3685    3.0987   -0.9211 H   0  0  0  1  0  0  0  0  0  0  0  0
    6.4208   -1.7158    0.4790 H   0  0  0  1  0  0  0  0  0  0  0  0
    6.3726   -0.3649    1.3354 H   0  0  0  1  0  0  0  0  0  0  0  0
  1  2  4  0  0  0  0
  1  6  4  0  0  0  0
  2  3  4  0  0  0  0
  2 18  1  0  0  0  0
  3  4  4  0  0  0  0
  4  5  4  0  0  0  0
  4  7  4  0  0  0  0
  5  6  4  0  0  0  0
  5  9  4  0  0  0  0
  6 25  1  0  0  0  0
  7  8  4  0  0  0  0
  7 26  1  0  0  0  0
  8  9  4  0  0  0  0
  9 10  1  0  0  0  0
 10 11  4  0  0  0  0
 10 15  4  0  0  0  0
 11 12  4  0  0  0  0
 11 27  1  0  0  0  0
 12 13  4  0  0  0  0
 12 28  1  0  0  0  0
 13 14  4  0  0  0  0
 13 16  1  0  0  0  0
 14 15  4  0  0  0  0
 14 29  1  0  0  0  0
 15 30  1  0  0  0  0
 16 17  1  0  0  0  0
 17 31  1  0  0  0  0
 17 32  1  0  0  0  0
 17 33  1  0  0  0  0
 18 19  1  0  0  0  0
 18 34  1  0  0  0  0
 19 20  1  0  0  0  0
 19 23  1  0  0  0  0
 19 35  1  0  0  0  0
 20 21  1  0  0  0  0
 20 36  1  0  0  0  0
 20 37  1  0  0  0  0
 21 22  1  0  0  0  0
 21 24  1  0  0  0  0
 21 38  1  0  0  0  0
 22 23  1  0  0  0  0
 22 39  1  0  0  0  0
 22 40  1  0  0  0  0
 23 41  1  0  0  0  0
 23 42  1  0  0  0  0
 24 43  1  0  0  0  0
 24 44  1  0  0  0  0
M  END
> <ConfClashScore>
0 

> <ConfOneFourInteractionScore>
-0.984337 

> <ConfScore>
-0.0833407 

> <ConfScorePBest>
0.00460617 

> <ConfTolerance>
0.313779 

$$$$
c13.sdf
 OpenBabel04162418043D

 44 47  0  0  0  0  0  0  0  0999 V2000
    2.4897    3.0688   -2.1636 N   0  0  0  1  0  0  0  0  0  0  0  0
    3.0735    2.3464   -3.1046 C   0  0  0  1  0  0  0  0  0  0  0  0
    2.7959    2.4926   -4.3800 N   0  0  0  1  0  0  0  0  0  0  0  0
    1.8950    3.3957   -4.7753 C   0  0  0  1  0  0  0  0  0  0  0  0
    1.2520    4.1848   -3.7980 C   0  0  0  1  0  0  0  0  0  0  0  0
    1.5860    3.9861   -2.4616 C   0  0  0  1  0  0  0  0  0  0  0  0
    1.3787    3.7959   -6.0273 C   0  0  0  1  0  0  0  0  0  0  0  0
    0.5022    4.7406   -5.8359 N   0  0  0  1  0  0  0  0  0  0  0  0
    0.3916    5.0140   -4.4663 N   0  0  0  1  0  0  0  0  0  0  0  0
   -0.4006    6.0928   -3.9799 C   0  0  0  1  0  0  0  0  0  0  0  0
   -0.5257    7.2495   -4.7260 C   0  0  0  1  0  0  0  0  0  0  0  0
   -1.3012    8.2974   -4.2550 C   0  0  0  1  0  0  0  0  0  0  0  0
   -1.9449    8.1879   -3.0369 C   0  0  0  1  0  0  0  0  0  0  0  0
   -1.8194    7.0278   -2.2886 C   0  0  0  1  0  0  0  0  0  0  0  0
   -1.0462    5.9828   -2.7581 C   0  0  0  1  0  0  0  0  0  0  0  0
   -2.6164    9.2408   -2.5315 O   0  0  0  1  0  0  0  0  0  0  0  0
   -3.2588    9.0028   -1.2574 C   0  0  0  1  0  0  0  0  0  0  0  0
    3.9864    1.4266   -2.7436 N   0  0  0  1  0  0  0  0  0  0  0  0
    4.4156    1.2002   -1.3597 C   0  0  0  1  0  0  0  0  0  0  0  0
    5.0113   -0.1910   -1.2119 C   0  0  0  1  0  0  0  0  0  0  0  0
    6.4096   -0.0454   -0.5893 C   0  0  0  1  0  0  0  0  0  0  0  0
    6.3887    1.3605   -0.0152 C   0  0  0  1  0  0  0  0  0  0  0  0
    5.5390    2.1836   -0.9797 C   0  0  0  1  0  0  0  0  0  0  0  0
    6.6226   -1.0461    0.4713 N   0  0  0  1  0  0  0  0  0  0  0  0
    1.1337    4.5481   -1.7125 H   0  0  0  1  0  0  0  0  0  0  0  0
    1.6528    3.4015   -6.9497 H   0  0  0  1  0  0  0  0  0  0  0  0
   -0.0381    7.3335   -5.6408 H   0  0  0  1  0  0  0  0  0  0  0  0
   -1.3986    9.1662   -4.8183 H   0  0  0  1  0  0  0  0  0  0  0  0
   -2.3070    6.9437   -1.3739 H   0  0  0  1  0  0  0  0  0  0  0  0
   -0.9488    5.1139   -2.1949 H   0  0  0  1  0  0  0  0  0  0  0  0
   -2.5280    8.6877   -0.5422 H   0  0  0  1  0  0  0  0  0  0  0  0
   -4.0003    8.2395   -1.3693 H   0  0  0  1  0  0  0  0  0  0  0  0
   -3.7234    9.9051   -0.9184 H   0  0  0  1  0  0  0  0  0  0  0  0
    4.3884    0.8752   -3.4470 H   0  0  0  1  0  0  0  0  0  0  0  0
    3.5795    1.3186   -0.7025 H   0  0  0  1  0  0  0  0  0  0  0  0
    4.3906   -0.7859   -0.5749 H   0  0  0  1  0  0  0  0  0  0  0  0
    5.0882   -0.6569   -2.1720 H   0  0  0  1  0  0  0  0  0  0  0  0
    7.1727   -0.1448   -1.3327 H   0  0  0  1  0  0  0  0  0  0  0  0
    7.3812    1.7564    0.0397 H   0  0  0  1  0  0  0  0  0  0  0  0
    5.9503    1.3589    0.9609 H   0  0  0  1  0  0  0  0  0  0  0  0
    5.1441    3.0545   -0.4997 H   0  0  0  1  0  0  0  0  0  0  0  0
    6.1044    2.4753   -1.8400 H   0  0  0  1  0  0  0  0  0  0  0  0
    6.0615   -0.8277    1.2446 H   0  0  0  1  0  0  0  0  0  0  0  0
    7.5650   -1.0414    0.7401 H   0  0  0  1  0  0  0  0  0  0  0  0
  1  2  4  0  0  0  0
  1  6  4  0  0  0  0
  2  3  4  0  0  0  0
  2 18  1  0  0  0  0
  3  4  4  0  0  0  0
  4  5  4  0  0  0  0
  4  7  4  0  0  0  0
  5  6  4  0  0  0  0
  5  9  4  0  0  0  0
  6 25  1  0  0  0  0
  7  8  4  0  0  0  0
  7 26  1  0  0  0  0
  8  9  4  0  0  0  0
  9 10  1  0  0  0  0
 10 11  4  0  0  0  0
 10 15  4  0  0  0  0
 11 12  4  0  0  0  0
 11 27  1  0  0  0  0
 12 13  4  0  0  0  0
 12 28  1  0  0  0  0
 13 14  4  0  0  0  0
 13 16  1  0  0  0  0
 14 15  4  0  0  0  0
 14 29  1  0  0  0  0
 15 30  1  0  0  0  0
 16 17  1  0  0  0  0
 17 31  1  0  0  0  0
 17 32  1  0  0  0  0
 17 33  1  0  0  0  0
 18 19  1  0  0  0  0
 18 34  1  0  0  0  0
 19 20  1  0  0  0  0
 19 23  1  0  0  0  0
 19 35  1  0  0  0  0
 20 21  1  0  0  0  0
 20 36  1  0  0  0  0
 20 37  1  0  0  0  0
 21 22  1  0  0  0  0
 21 24  1  0  0  0  0
 21 38  1  0  0  0  0
 22 23  1  0  0  0  0
 22 39  1  0  0  0  0
 22 40  1  0  0  0  0
 23 41  1  0  0  0  0
 23 42  1  0  0  0  0
 24 43  1  0  0  0  0
 24 44  1  0  0  0  0
M  END
> <ConfClashScore>
0 

> <ConfOneFourInteractionScore>
-0.984337 

> <ConfScore>
-0.0826647 

> <ConfScorePBest>
0.00459285 

> <ConfTolerance>
0.34246 

$$$$
c13.sdf
 OpenBabel04162418043D

 44 47  0  0  0  0  0  0  0  0999 V2000
    1.9383    1.6289   -3.8227 N   0  0  0  1  0  0  0  0  0  0  0  0
    2.3761    1.4130   -2.5938 C   0  0  0  1  0  0  0  0  0  0  0  0
    1.5654    1.1762   -1.5879 N   0  0  0  1  0  0  0  0  0  0  0  0
    0.2440    1.1456   -1.7788 C   0  0  0  1  0  0  0  0  0  0  0  0
   -0.2588    1.3717   -3.0778 C   0  0  0  1  0  0  0  0  0  0  0  0
    0.6473    1.6175   -4.1052 C   0  0  0  1  0  0  0  0  0  0  0  0
   -0.8719    0.9260   -0.9419 C   0  0  0  1  0  0  0  0  0  0  0  0
   -1.9562    1.0096   -1.6593 N   0  0  0  1  0  0  0  0  0  0  0  0
   -1.6225    1.2852   -2.9919 N   0  0  0  1  0  0  0  0  0  0  0  0
   -2.6427    1.5162   -3.9583 C   0  0  0  1  0  0  0  0  0  0  0  0
   -3.5728    2.5181   -3.7551 C   0  0  0  1  0  0  0  0  0  0  0  0
   -4.5625    2.7464   -4.6984 C   0  0  0  1  0  0  0  0  0  0  0  0
   -4.6225    1.9688   -5.8395 C   0  0  0  1  0  0  0  0  0  0  0  0
   -3.6896    0.9639   -6.0431 C   0  0  0  1  0  0  0  0  0  0  0  0
   -2.7027    0.7362   -5.1026 C   0  0  0  1  0  0  0  0  0  0  0  0
   -5.5383    2.0940   -6.8196 O   0  0  0  1  0  0  0  0  0  0  0  0
   -6.4603    3.1970   -6.6586 C   0  0  0  1  0  0  0  0  0  0  0  0
    3.7013    1.4461   -2.4145 N   0  0  0  1  0  0  0  0  0  0  0  0
    4.4168    1.1953   -1.1594 C   0  0  0  1  0  0  0  0  0  0  0  0
    5.1190   -0.1637   -1.2077 C   0  0  0  1  0  0  0  0  0  0  0  0
    6.5058    0.0396   -0.5845 C   0  0  0  1  0  0  0  0  0  0  0  0
    6.5060    1.4786   -0.0572 C   0  0  0  1  0  0  0  0  0  0  0  0
    5.5294    2.2281   -0.9637 C   0  0  0  1  0  0  0  0  0  0  0  0
    6.7234   -0.9268    0.5332 N   0  0  0  1  0  0  0  0  0  0  0  0
    0.3151    1.7888   -5.0758 H   0  0  0  1  0  0  0  0  0  0  0  0
   -0.8345    0.7300    0.0788 H   0  0  0  1  0  0  0  0  0  0  0  0
   -3.5301    3.1006   -2.8947 H   0  0  0  1  0  0  0  0  0  0  0  0
   -5.2600    3.5030   -4.5475 H   0  0  0  1  0  0  0  0  0  0  0  0
   -3.7322    0.3814   -6.9035 H   0  0  0  1  0  0  0  0  0  0  0  0
   -2.0052   -0.0204   -5.2535 H   0  0  0  1  0  0  0  0  0  0  0  0
   -5.9443    4.1203   -6.8201 H   0  0  0  1  0  0  0  0  0  0  0  0
   -6.8636    3.1827   -5.6677 H   0  0  0  1  0  0  0  0  0  0  0  0
   -7.2549    3.1038   -7.3691 H   0  0  0  1  0  0  0  0  0  0  0  0
    4.2479    1.6591   -3.1995 H   0  0  0  1  0  0  0  0  0  0  0  0
    3.7273    1.2302   -0.3420 H   0  0  0  1  0  0  0  0  0  0  0  0
    5.2141   -0.4946   -2.2208 H   0  0  0  1  0  0  0  0  0  0  0  0
    4.5641   -0.8864   -0.6466 H   0  0  0  1  0  0  0  0  0  0  0  0
    7.2703   -0.0892   -1.3220 H   0  0  0  1  0  0  0  0  0  0  0  0
    7.4853    1.9044   -0.1251 H   0  0  0  1  0  0  0  0  0  0  0  0
    6.1738    1.5072    0.9595 H   0  0  0  1  0  0  0  0  0  0  0  0
    5.9862    2.4880   -1.8957 H   0  0  0  1  0  0  0  0  0  0  0  0
    5.1592    3.1124   -0.4885 H   0  0  0  1  0  0  0  0  0  0  0  0
    6.7256   -1.8408    0.1797 H   0  0  0  1  0  0  0  0  0  0  0  0
    6.0029   -0.8329    1.1909 H   0  0  0  1  0  0  0  0  0  0  0  0
  1  2  4  0  0  0  0
  1  6  4  0  0  0  0
  2  3  4  0  0  0  0
  2 18  1  0  0  0  0
  3  4  4  0  0  0  0
  4  5  4  0  0  0  0
  4  7  4  0  0  0  0
  5  6  4  0  0  0  0
  5  9  4  0  0  0  0
  6 25  1  0  0  0  0
  7  8  4  0  0  0  0
  7 26  1  0  0  0  0
  8  9  4  0  0  0  0
  9 10  1  0  0  0  0
 10 11  4  0  0  0  0
 10 15  4  0  0  0  0
 11 12  4  0  0  0  0
 11 27  1  0  0  0  0
 12 13  4  0  0  0  0
 12 28  1  0  0  0  0
 13 14  4  0  0  0  0
 13 16  1  0  0  0  0
 14 15  4  0  0  0  0
 14 29  1  0  0  0  0
 15 30  1  0  0  0  0
 16 17  1  0  0  0  0
 17 31  1  0  0  0  0
 17 32  1  0  0  0  0
 17 33  1  0  0  0  0
 18 19  1  0  0  0  0
 18 34  1  0  0  0  0
 19 20  1  0  0  0  0
 19 23  1  0  0  0  0
 19 35  1  0  0  0  0
 20 21  1  0  0  0  0
 20 36  1  0  0  0  0
 20 37  1  0  0  0  0
 21 22  1  0  0  0  0
 21 24  1  0  0  0  0
 21 38  1  0  0  0  0
 22 23  1  0  0  0  0
 22 39  1  0  0  0  0
 22 40  1  0  0  0  0
 23 41  1  0  0  0  0
 23 42  1  0  0  0  0
 24 43  1  0  0  0  0
 24 44  1  0  0  0  0
M  END
> <ConfClashScore>
0 

> <ConfOneFourInteractionScore>
-0.984337 

> <ConfScore>
-0.0825194 

> <ConfScorePBest>
0.00457952 

> <ConfTolerance>
0.324121 

$$$$
c13.sdf
 OpenBabel04162418043D

 44 47  0  0  0  0  0  0  0  0999 V2000
    3.1136    3.4904   -1.0985 N   0  0  0  1  0  0  0  0  0  0  0  0
    2.8328    2.6370   -2.0687 C   0  0  0  1  0  0  0  0  0  0  0  0
    1.9703    2.9106   -3.0207 N   0  0  0  1  0  0  0  0  0  0  0  0
    1.3355    4.0854   -3.0391 C   0  0  0  1  0  0  0  0  0  0  0  0
    1.6106    5.0208   -2.0190 C   0  0  0  1  0  0  0  0  0  0  0  0
    2.5338    4.6764   -1.0361 C   0  0  0  1  0  0  0  0  0  0  0  0
    0.3788    4.6800   -3.8908 C   0  0  0  1  0  0  0  0  0  0  0  0
    0.0943    5.8673   -3.4362 N   0  0  0  1  0  0  0  0  0  0  0  0
    0.8362    6.1205   -2.2750 N   0  0  0  1  0  0  0  0  0  0  0  0
    0.7687    7.3897   -1.6544 C   0  0  0  1  0  0  0  0  0  0  0  0
    1.9246    8.1166   -1.4405 C   0  0  0  1  0  0  0  0  0  0  0  0
    1.8579    9.3628   -0.8371 C   0  0  0  1  0  0  0  0  0  0  0  0
    0.6361    9.8762   -0.4446 C   0  0  0  1  0  0  0  0  0  0  0  0
   -0.5231    9.1470   -0.6592 C   0  0  0  1  0  0  0  0  0  0  0  0
   -0.4567    7.9044   -1.2608 C   0  0  0  1  0  0  0  0  0  0  0  0
    0.5719   11.0850    0.1465 O   0  0  0  1  0  0  0  0  0  0  0  0
   -0.7575   11.6460    0.2499 C   0  0  0  1  0  0  0  0  0  0  0  0
    3.4705    1.4101   -2.0829 N   0  0  0  1  0  0  0  0  0  0  0  0
    4.4276    1.0722   -1.0261 C   0  0  0  1  0  0  0  0  0  0  0  0
    5.2716   -0.1433   -1.4099 C   0  0  0  1  0  0  0  0  0  0  0  0
    6.5307   -0.0367   -0.5425 C   0  0  0  1  0  0  0  0  0  0  0  0
    6.7166    1.4632   -0.2801 C   0  0  0  1  0  0  0  0  0  0  0  0
    5.4896    2.1632   -0.8691 C   0  0  0  1  0  0  0  0  0  0  0  0
    6.3466   -0.7611    0.7223 N   0  0  0  1  0  0  0  0  0  0  0  0
    2.7629    5.3391   -0.2680 H   0  0  0  1  0  0  0  0  0  0  0  0
   -0.0309    4.2424   -4.7406 H   0  0  0  1  0  0  0  0  0  0  0  0
    2.8444    7.7286   -1.7322 H   0  0  0  1  0  0  0  0  0  0  0  0
    2.7272    9.9115   -0.6798 H   0  0  0  1  0  0  0  0  0  0  0  0
   -1.4429    9.5349   -0.3675 H   0  0  0  1  0  0  0  0  0  0  0  0
   -1.3260    7.3556   -1.4182 H   0  0  0  1  0  0  0  0  0  0  0  0
   -1.4071   10.9402    0.7241 H   0  0  0  1  0  0  0  0  0  0  0  0
   -1.1273   11.8691   -0.7290 H   0  0  0  1  0  0  0  0  0  0  0  0
   -0.7213   12.5436    0.8312 H   0  0  0  1  0  0  0  0  0  0  0  0
    3.2827    0.7676   -2.7986 H   0  0  0  1  0  0  0  0  0  0  0  0
    3.9027    0.9064   -0.1086 H   0  0  0  1  0  0  0  0  0  0  0  0
    4.7442   -1.0499   -1.1984 H   0  0  0  1  0  0  0  0  0  0  0  0
    5.5262   -0.1122   -2.4487 H   0  0  0  1  0  0  0  0  0  0  0  0
    7.3778   -0.4338   -1.0616 H   0  0  0  1  0  0  0  0  0  0  0  0
    7.6072    1.8143   -0.7580 H   0  0  0  1  0  0  0  0  0  0  0  0
    6.7786    1.6493    0.7718 H   0  0  0  1  0  0  0  0  0  0  0  0
    5.1430    2.9288   -0.2068 H   0  0  0  1  0  0  0  0  0  0  0  0
    5.7260    2.5935   -1.8198 H   0  0  0  1  0  0  0  0  0  0  0  0
    6.1513   -1.7029    0.5344 H   0  0  0  1  0  0  0  0  0  0  0  0
    5.6003   -0.3657    1.2193 H   0  0  0  1  0  0  0  0  0  0  0  0
  1  2  4  0  0  0  0
  1  6  4  0  0  0  0
  2  3  4  0  0  0  0
  2 18  1  0  0  0  0
  3  4  4  0  0  0  0
  4  5  4  0  0  0  0
  4  7  4  0  0  0  0
  5  6  4  0  0  0  0
  5  9  4  0  0  0  0
  6 25  1  0  0  0  0
  7  8  4  0  0  0  0
  7 26  1  0  0  0  0
  8  9  4  0  0  0  0
  9 10  1  0  0  0  0
 10 11  4  0  0  0  0
 10 15  4  0  0  0  0
 11 12  4  0  0  0  0
 11 27  1  0  0  0  0
 12 13  4  0  0  0  0
 12 28  1  0  0  0  0
 13 14  4  0  0  0  0
 13 16  1  0  0  0  0
 14 15  4  0  0  0  0
 14 29  1  0  0  0  0
 15 30  1  0  0  0  0
 16 17  1  0  0  0  0
 17 31  1  0  0  0  0
 17 32  1  0  0  0  0
 17 33  1  0  0  0  0
 18 19  1  0  0  0  0
 18 34  1  0  0  0  0
 19 20  1  0  0  0  0
 19 23  1  0  0  0  0
 19 35  1  0  0  0  0
 20 21  1  0  0  0  0
 20 36  1  0  0  0  0
 20 37  1  0  0  0  0
 21 22  1  0  0  0  0
 21 24  1  0  0  0  0
 21 38  1  0  0  0  0
 22 23  1  0  0  0  0
 22 39  1  0  0  0  0
 22 40  1  0  0  0  0
 23 41  1  0  0  0  0
 23 42  1  0  0  0  0
 24 43  1  0  0  0  0
 24 44  1  0  0  0  0
M  END
> <ConfClashScore>
0 

> <ConfOneFourInteractionScore>
-0.985399 

> <ConfScore>
-0.0802511 

> <ConfScorePBest>
0.00456619 

> <ConfTolerance>
0.24394 

$$$$
c13.sdf
 OpenBabel04162418043D

 44 47  0  0  0  0  0  0  0  0999 V2000
    4.4268    2.2300   -4.9469 N   0  0  0  1  0  0  0  0  0  0  0  0
    4.1902    2.3143   -3.6488 C   0  0  0  1  0  0  0  0  0  0  0  0
    3.5687    3.3385   -3.1104 N   0  0  0  1  0  0  0  0  0  0  0  0
    3.1469    4.3496   -3.8742 C   0  0  0  1  0  0  0  0  0  0  0  0
    3.3823    4.2932   -5.2644 C   0  0  0  1  0  0  0  0  0  0  0  0
    4.0457    3.1833   -5.7793 C   0  0  0  1  0  0  0  0  0  0  0  0
    2.4683    5.5624   -3.6241 C   0  0  0  1  0  0  0  0  0  0  0  0
    2.3032    6.1903   -4.7537 N   0  0  0  1  0  0  0  0  0  0  0  0
    2.8556    5.4384   -5.7989 N   0  0  0  1  0  0  0  0  0  0  0  0
    2.8056    5.9047   -7.1281 C   0  0  0  1  0  0  0  0  0  0  0  0
    2.2531    5.0686   -8.0798 C   0  0  0  1  0  0  0  0  0  0  0  0
    2.1741    5.4795   -9.4013 C   0  0  0  1  0  0  0  0  0  0  0  0
    2.6527    6.7231   -9.7682 C   0  0  0  1  0  0  0  0  0  0  0  0
    3.2068    7.5617   -8.8136 C   0  0  0  1  0  0  0  0  0  0  0  0
    3.2857    7.1520   -7.4959 C   0  0  0  1  0  0  0  0  0  0  0  0
    2.5802    7.1224  -11.0602 O   0  0  0  1  0  0  0  0  0  0  0  0
    3.1916    8.3783  -11.3942 C   0  0  0  1  0  0  0  0  0  0  0  0
    4.6449    1.2491   -2.9133 N   0  0  0  1  0  0  0  0  0  0  0  0
    4.4980    1.2007   -1.4638 C   0  0  0  1  0  0  0  0  0  0  0  0
    4.9359   -0.1776   -0.9351 C   0  0  0  1  0  0  0  0  0  0  0  0
    6.4560    0.0366   -0.6278 C   0  0  0  1  0  0  0  0  0  0  0  0
    6.4699    1.4526   -0.0390 C   0  0  0  1  0  0  0  0  0  0  0  0
    5.4276    2.2716   -0.7937 C   0  0  0  1  0  0  0  0  0  0  0  0
    6.9486   -0.9525    0.3474 N   0  0  0  1  0  0  0  0  0  0  0  0
    4.2376    3.1056   -6.7984 H   0  0  0  1  0  0  0  0  0  0  0  0
    2.1525    5.8990   -2.6921 H   0  0  0  1  0  0  0  0  0  0  0  0
    1.8967    4.1311   -7.8045 H   0  0  0  1  0  0  0  0  0  0  0  0
    1.7547    4.8519  -10.1167 H   0  0  0  1  0  0  0  0  0  0  0  0
    3.5633    8.4991   -9.0889 H   0  0  0  1  0  0  0  0  0  0  0  0
    3.7051    7.7796   -6.7804 H   0  0  0  1  0  0  0  0  0  0  0  0
    2.9212    9.1125  -10.6643 H   0  0  0  1  0  0  0  0  0  0  0  0
    2.8537    8.6937  -12.3592 H   0  0  0  1  0  0  0  0  0  0  0  0
    4.2554    8.2643  -11.4079 H   0  0  0  1  0  0  0  0  0  0  0  0
    5.0796    0.5015   -3.3742 H   0  0  0  1  0  0  0  0  0  0  0  0
    3.4773    1.3863   -1.2019 H   0  0  0  1  0  0  0  0  0  0  0  0
    4.7958   -0.9369   -1.6760 H   0  0  0  1  0  0  0  0  0  0  0  0
    4.3967   -0.4396   -0.0488 H   0  0  0  1  0  0  0  0  0  0  0  0
    7.0438   -0.0183   -1.5202 H   0  0  0  1  0  0  0  0  0  0  0  0
    6.2239    1.4180    1.0018 H   0  0  0  1  0  0  0  0  0  0  0  0
    7.4383    1.8904   -0.1627 H   0  0  0  1  0  0  0  0  0  0  0  0
    5.8939    2.8852   -1.5360 H   0  0  0  1  0  0  0  0  0  0  0  0
    4.8701    2.8877   -0.1196 H   0  0  0  1  0  0  0  0  0  0  0  0
    6.8844   -1.8514   -0.0376 H   0  0  0  1  0  0  0  0  0  0  0  0
    6.4054   -0.9065    1.1618 H   0  0  0  1  0  0  0  0  0  0  0  0
  1  2  4  0  0  0  0
  1  6  4  0  0  0  0
  2  3  4  0  0  0  0
  2 18  1  0  0  0  0
  3  4  4  0  0  0  0
  4  5  4  0  0  0  0
  4  7  4  0  0  0  0
  5  6  4  0  0  0  0
  5  9  4  0  0  0  0
  6 25  1  0  0  0  0
  7  8  4  0  0  0  0
  7 26  1  0  0  0  0
  8  9  4  0  0  0  0
  9 10  1  0  0  0  0
 10 11  4  0  0  0  0
 10 15  4  0  0  0  0
 11 12  4  0  0  0  0
 11 27  1  0  0  0  0
 12 13  4  0  0  0  0
 12 28  1  0  0  0  0
 13 14  4  0  0  0  0
 13 16  1  0  0  0  0
 14 15  4  0  0  0  0
 14 29  1  0  0  0  0
 15 30  1  0  0  0  0
 16 17  1  0  0  0  0
 17 31  1  0  0  0  0
 17 32  1  0  0  0  0
 17 33  1  0  0  0  0
 18 19  1  0  0  0  0
 18 34  1  0  0  0  0
 19 20  1  0  0  0  0
 19 23  1  0  0  0  0
 19 35  1  0  0  0  0
 20 21  1  0  0  0  0
 20 36  1  0  0  0  0
 20 37  1  0  0  0  0
 21 22  1  0  0  0  0
 21 24  1  0  0  0  0
 21 38  1  0  0  0  0
 22 23  1  0  0  0  0
 22 39  1  0  0  0  0
 22 40  1  0  0  0  0
 23 41  1  0  0  0  0
 23 42  1  0  0  0  0
 24 43  1  0  0  0  0
 24 44  1  0  0  0  0
M  END
> <ConfClashScore>
0 

> <ConfOneFourInteractionScore>
-0.981848 

> <ConfScore>
-0.0802511 

> <ConfScorePBest>
0.00455286 

> <ConfTolerance>
0.254137 

$$$$
c13.sdf
 OpenBabel04162418043D

 44 47  0  0  0  0  0  0  0  0999 V2000
    2.4060    2.2990   -4.2143 N   0  0  0  1  0  0  0  0  0  0  0  0
    2.8091    2.2385   -2.9564 C   0  0  0  1  0  0  0  0  0  0  0  0
    2.2319    2.9253   -1.9972 N   0  0  0  1  0  0  0  0  0  0  0  0
    1.1966    3.7243   -2.2681 C   0  0  0  1  0  0  0  0  0  0  0  0
    0.7394    3.8135   -3.6001 C   0  0  0  1  0  0  0  0  0  0  0  0
    1.3895    3.0628   -4.5751 C   0  0  0  1  0  0  0  0  0  0  0  0
    0.3739    4.5738   -1.4965 C   0  0  0  1  0  0  0  0  0  0  0  0
   -0.5046    5.1311   -2.2807 N   0  0  0  1  0  0  0  0  0  0  0  0
   -0.3144    4.6876   -3.5960 N   0  0  0  1  0  0  0  0  0  0  0  0
   -1.1508    5.1516   -4.6492 C   0  0  0  1  0  0  0  0  0  0  0  0
   -0.6035    5.8477   -5.7104 C   0  0  0  1  0  0  0  0  0  0  0  0
   -1.4177    6.2951   -6.7392 C   0  0  0  1  0  0  0  0  0  0  0  0
   -2.7774    6.0499   -6.7012 C   0  0  0  1  0  0  0  0  0  0  0  0
   -3.3261    5.3517   -5.6368 C   0  0  0  1  0  0  0  0  0  0  0  0
   -2.5144    4.9055   -4.6109 C   0  0  0  1  0  0  0  0  0  0  0  0
   -3.4705    6.5388   -7.7569 O   0  0  0  1  0  0  0  0  0  0  0  0
   -4.9015    6.4264   -7.7112 C   0  0  0  1  0  0  0  0  0  0  0  0
    3.8436    1.4485   -2.6478 N   0  0  0  1  0  0  0  0  0  0  0  0
    4.3732    1.1973   -1.3133 C   0  0  0  1  0  0  0  0  0  0  0  0
    5.0992   -0.1567   -1.2542 C   0  0  0  1  0  0  0  0  0  0  0  0
    6.3997    0.0404   -0.4910 C   0  0  0  1  0  0  0  0  0  0  0  0
    6.3576    1.4822    0.0503 C   0  0  0  1  0  0  0  0  0  0  0  0
    5.4664    2.1923   -0.9652 C   0  0  0  1  0  0  0  0  0  0  0  0
    6.4931   -0.9349    0.6362 N   0  0  0  1  0  0  0  0  0  0  0  0
    1.0817    3.1020   -5.5678 H   0  0  0  1  0  0  0  0  0  0  0  0
    0.4557    4.7291   -0.4714 H   0  0  0  1  0  0  0  0  0  0  0  0
    0.4190    6.0358   -5.7371 H   0  0  0  1  0  0  0  0  0  0  0  0
   -1.0054    6.8154   -7.5397 H   0  0  0  1  0  0  0  0  0  0  0  0
   -4.3486    5.1636   -5.6101 H   0  0  0  1  0  0  0  0  0  0  0  0
   -2.9267    4.3852   -3.8104 H   0  0  0  1  0  0  0  0  0  0  0  0
   -5.1750    5.4007   -7.5770 H   0  0  0  1  0  0  0  0  0  0  0  0
   -5.3169    6.7889   -8.6282 H   0  0  0  1  0  0  0  0  0  0  0  0
   -5.2786    7.0056   -6.8945 H   0  0  0  1  0  0  0  0  0  0  0  0
    4.2894    0.9936   -3.3927 H   0  0  0  1  0  0  0  0  0  0  0  0
    3.5769    1.2371   -0.5997 H   0  0  0  1  0  0  0  0  0  0  0  0
    5.3087   -0.4998   -2.2458 H   0  0  0  1  0  0  0  0  0  0  0  0
    4.4874   -0.8749   -0.7494 H   0  0  0  1  0  0  0  0  0  0  0  0
    7.2374   -0.0874   -1.1443 H   0  0  0  1  0  0  0  0  0  0  0  0
    7.3361    1.9145    0.0743 H   0  0  0  1  0  0  0  0  0  0  0  0
    5.9287    1.5147    1.0300 H   0  0  0  1  0  0  0  0  0  0  0  0
    6.0279    2.4512   -1.8385 H   0  0  0  1  0  0  0  0  0  0  0  0
    5.0437    3.0772   -0.5370 H   0  0  0  1  0  0  0  0  0  0  0  0
    7.3069   -0.7599    1.1535 H   0  0  0  1  0  0  0  0  0  0  0  0
    6.5240   -1.8464    0.2775 H   0  0  0  1  0  0  0  0  0  0  0  0
  1  2  4  0  0  0  0
  1  6  4  0  0  0  0
  2  3  4  0  0  0  0
  2 18  1  0  0  0  0
  3  4  4  0  0  0  0
  4  5  4  0  0  0  0
  4  7  4  0  0  0  0
  5  6  4  0  0  0  0
  5  9  4  0  0  0  0
  6 25  1  0  0  0  0
  7  8  4  0  0  0  0
  7 26  1  0  0  0  0
  8  9  4  0  0  0  0
  9 10  1  0  0  0  0
 10 11  4  0  0  0  0
 10 15  4  0  0  0  0
 11 12  4  0  0  0  0
 11 27  1  0  0  0  0
 12 13  4  0  0  0  0
 12 28  1  0  0  0  0
 13 14  4  0  0  0  0
 13 16  1  0  0  0  0
 14 15  4  0  0  0  0
 14 29  1  0  0  0  0
 15 30  1  0  0  0  0
 16 17  1  0  0  0  0
 17 31  1  0  0  0  0
 17 32  1  0  0  0  0
 17 33  1  0  0  0  0
 18 19  1  0  0  0  0
 18 34  1  0  0  0  0
 19 20  1  0  0  0  0
 19 23  1  0  0  0  0
 19 35  1  0  0  0  0
 20 21  1  0  0  0  0
 20 36  1  0  0  0  0
 20 37  1  0  0  0  0
 21 22  1  0  0  0  0
 21 24  1  0  0  0  0
 21 38  1  0  0  0  0
 22 23  1  0  0  0  0
 22 39  1  0  0  0  0
 22 40  1  0  0  0  0
 23 41  1  0  0  0  0
 23 42  1  0  0  0  0
 24 43  1  0  0  0  0
 24 44  1  0  0  0  0
M  END
> <ConfClashScore>
0 

> <ConfOneFourInteractionScore>
-0.984337 

> <ConfScore>
-0.0794146 

> <ConfScorePBest>
0.00453953 

> <ConfTolerance>
0.30917 

$$$$
c13.sdf
 OpenBabel04162418043D

 44 47  0  0  0  0  0  0  0  0999 V2000
    1.8314    2.4509   -1.2298 N   0  0  0  1  0  0  0  0  0  0  0  0
    2.3489    2.0155   -2.3660 C   0  0  0  1  0  0  0  0  0  0  0  0
    1.7356    2.1543   -3.5191 N   0  0  0  1  0  0  0  0  0  0  0  0
    0.5434    2.7529   -3.5816 C   0  0  0  1  0  0  0  0  0  0  0  0
   -0.0391    3.2302   -2.3882 C   0  0  0  1  0  0  0  0  0  0  0  0
    0.6566    3.0553   -1.1956 C   0  0  0  1  0  0  0  0  0  0  0  0
   -0.3585    3.0554   -4.6253 C   0  0  0  1  0  0  0  0  0  0  0  0
   -1.3956    3.6606   -4.1200 N   0  0  0  1  0  0  0  0  0  0  0  0
   -1.2397    3.7903   -2.7337 N   0  0  0  1  0  0  0  0  0  0  0  0
   -2.2576    4.4216   -1.9905 C   0  0  0  1  0  0  0  0  0  0  0  0
   -2.9433    3.7771   -0.9783 C   0  0  0  1  0  0  0  0  0  0  0  0
   -3.9322    4.4474   -0.2753 C   0  0  0  1  0  0  0  0  0  0  0  0
   -4.2363    5.7584   -0.5901 C   0  0  0  1  0  0  0  0  0  0  0  0
   -3.5485    6.4047   -1.6054 C   0  0  0  1  0  0  0  0  0  0  0  0
   -2.5624    5.7364   -2.3064 C   0  0  0  1  0  0  0  0  0  0  0  0
   -5.2218    6.3066    0.1596 O   0  0  0  1  0  0  0  0  0  0  0  0
   -5.5892    7.6643   -0.1308 C   0  0  0  1  0  0  0  0  0  0  0  0
    3.5485    1.4073   -2.3415 N   0  0  0  1  0  0  0  0  0  0  0  0
    4.3919    1.0896   -1.1882 C   0  0  0  1  0  0  0  0  0  0  0  0
    5.2667   -0.1228   -1.4611 C   0  0  0  1  0  0  0  0  0  0  0  0
    6.4241    0.0068   -0.4652 C   0  0  0  1  0  0  0  0  0  0  0  0
    6.5274    1.4981   -0.1184 C   0  0  0  1  0  0  0  0  0  0  0  0
    5.4349    2.1852   -0.9423 C   0  0  0  1  0  0  0  0  0  0  0  0
    6.1414   -0.7885    0.7595 N   0  0  0  1  0  0  0  0  0  0  0  0
    0.2599    3.3933   -0.2956 H   0  0  0  1  0  0  0  0  0  0  0  0
   -0.2180    2.8318   -5.6312 H   0  0  0  1  0  0  0  0  0  0  0  0
   -2.7173    2.7893   -0.7441 H   0  0  0  1  0  0  0  0  0  0  0  0
   -4.4455    3.9637    0.4890 H   0  0  0  1  0  0  0  0  0  0  0  0
   -3.7744    7.3924   -1.8397 H   0  0  0  1  0  0  0  0  0  0  0  0
   -2.0491    6.2200   -3.0708 H   0  0  0  1  0  0  0  0  0  0  0  0
   -6.4914    7.9093    0.3897 H   0  0  0  1  0  0  0  0  0  0  0  0
   -5.7440    7.7742   -1.1838 H   0  0  0  1  0  0  0  0  0  0  0  0
   -4.8057    8.3209    0.1855 H   0  0  0  1  0  0  0  0  0  0  0  0
    3.9063    1.1409   -3.2141 H   0  0  0  1  0  0  0  0  0  0  0  0
    3.7761    0.9386   -0.3262 H   0  0  0  1  0  0  0  0  0  0  0  0
    5.6303   -0.1078   -2.4673 H   0  0  0  1  0  0  0  0  0  0  0  0
    4.7218   -1.0280   -1.2917 H   0  0  0  1  0  0  0  0  0  0  0  0
    7.3356   -0.3342   -0.9100 H   0  0  0  1  0  0  0  0  0  0  0  0
    6.3596    1.6514    0.9271 H   0  0  0  1  0  0  0  0  0  0  0  0
    7.4915    1.8781   -0.3849 H   0  0  0  1  0  0  0  0  0  0  0  0
    5.8305    2.5452   -1.8691 H   0  0  0  1  0  0  0  0  0  0  0  0
    5.0060    2.9997   -0.3967 H   0  0  0  1  0  0  0  0  0  0  0  0
    6.8833   -0.6898    1.3922 H   0  0  0  1  0  0  0  0  0  0  0  0
    6.0408   -1.7333    0.5193 H   0  0  0  1  0  0  0  0  0  0  0  0
  1  2  4  0  0  0  0
  1  6  4  0  0  0  0
  2  3  4  0  0  0  0
  2 18  1  0  0  0  0
  3  4  4  0  0  0  0
  4  5  4  0  0  0  0
  4  7  4  0  0  0  0
  5  6  4  0  0  0  0
  5  9  4  0  0  0  0
  6 25  1  0  0  0  0
  7  8  4  0  0  0  0
  7 26  1  0  0  0  0
  8  9  4  0  0  0  0
  9 10  1  0  0  0  0
 10 11  4  0  0  0  0
 10 15  4  0  0  0  0
 11 12  4  0  0  0  0
 11 27  1  0  0  0  0
 12 13  4  0  0  0  0
 12 28  1  0  0  0  0
 13 14  4  0  0  0  0
 13 16  1  0  0  0  0
 14 15  4  0  0  0  0
 14 29  1  0  0  0  0
 15 30  1  0  0  0  0
 16 17  1  0  0  0  0
 17 31  1  0  0  0  0
 17 32  1  0  0  0  0
 17 33  1  0  0  0  0
 18 19  1  0  0  0  0
 18 34  1  0  0  0  0
 19 20  1  0  0  0  0
 19 23  1  0  0  0  0
 19 35  1  0  0  0  0
 20 21  1  0  0  0  0
 20 36  1  0  0  0  0
 20 37  1  0  0  0  0
 21 22  1  0  0  0  0
 21 24  1  0  0  0  0
 21 38  1  0  0  0  0
 22 23  1  0  0  0  0
 22 39  1  0  0  0  0
 22 40  1  0  0  0  0
 23 41  1  0  0  0  0
 23 42  1  0  0  0  0
 24 43  1  0  0  0  0
 24 44  1  0  0  0  0
M  END
> <ConfClashScore>
0 

> <ConfOneFourInteractionScore>
-0.984337 

> <ConfScore>
-0.0794146 

> <ConfScorePBest>
0.00452621 

> <ConfTolerance>
0.26323 

$$$$
c13.sdf
 OpenBabel04162418043D

 44 47  0  0  0  0  0  0  0  0999 V2000
    1.6269    2.5315   -3.0169 N   0  0  0  1  0  0  0  0  0  0  0  0
    2.3487    2.2010   -1.9594 C   0  0  0  1  0  0  0  0  0  0  0  0
    2.0103    2.5472   -0.7385 N   0  0  0  1  0  0  0  0  0  0  0  0
    0.9019    3.2601   -0.5219 C   0  0  0  1  0  0  0  0  0  0  0  0
    0.1071    3.6306   -1.6274 C   0  0  0  1  0  0  0  0  0  0  0  0
    0.5148    3.2356   -2.8982 C   0  0  0  1  0  0  0  0  0  0  0  0
    0.2696    3.7812    0.6282 C   0  0  0  1  0  0  0  0  0  0  0  0
   -0.8105    4.4114    0.2627 N   0  0  0  1  0  0  0  0  0  0  0  0
   -0.9506    4.3433   -1.1297 N   0  0  0  1  0  0  0  0  0  0  0  0
   -2.0498    4.9539   -1.7776 C   0  0  0  1  0  0  0  0  0  0  0  0
   -3.2559    4.9853   -1.1035 C   0  0  0  1  0  0  0  0  0  0  0  0
   -4.3849    5.4938   -1.7267 C   0  0  0  1  0  0  0  0  0  0  0  0
   -4.3057    5.9645   -3.0238 C   0  0  0  1  0  0  0  0  0  0  0  0
   -3.0958    5.9329   -3.6997 C   0  0  0  1  0  0  0  0  0  0  0  0
   -1.9701    5.4259   -3.0785 C   0  0  0  1  0  0  0  0  0  0  0  0
   -5.4456    6.4430   -3.5764 O   0  0  0  1  0  0  0  0  0  0  0  0
   -5.3537    6.9879   -4.9020 C   0  0  0  1  0  0  0  0  0  0  0  0
    3.4719    1.4830   -2.1394 N   0  0  0  1  0  0  0  0  0  0  0  0
    4.4008    1.0460   -1.0961 C   0  0  0  1  0  0  0  0  0  0  0  0
    5.2759   -0.1689   -1.5832 C   0  0  0  1  0  0  0  0  0  0  0  0
    6.4827   -0.0914   -0.5938 C   0  0  0  1  0  0  0  0  0  0  0  0
    6.6515    1.3818   -0.2164 C   0  0  0  1  0  0  0  0  0  0  0  0
    5.4548    2.1083   -0.8149 C   0  0  0  1  0  0  0  0  0  0  0  0
    6.2047   -0.8920    0.6063 N   0  0  0  1  0  0  0  0  0  0  0  0
   -0.0444    3.4895   -3.7375 H   0  0  0  1  0  0  0  0  0  0  0  0
    0.6099    3.6788    1.6056 H   0  0  0  1  0  0  0  0  0  0  0  0
   -3.3165    4.6275   -0.1289 H   0  0  0  1  0  0  0  0  0  0  0  0
   -5.2916    5.5212   -1.2181 H   0  0  0  1  0  0  0  0  0  0  0  0
   -3.0352    6.2907   -4.6743 H   0  0  0  1  0  0  0  0  0  0  0  0
   -1.0633    5.3985   -3.5870 H   0  0  0  1  0  0  0  0  0  0  0  0
   -6.2683    6.8066   -5.4269 H   0  0  0  1  0  0  0  0  0  0  0  0
   -4.5446    6.5212   -5.4239 H   0  0  0  1  0  0  0  0  0  0  0  0
   -5.1798    8.0420   -4.8428 H   0  0  0  1  0  0  0  0  0  0  0  0
    3.6899    1.2274   -3.0600 H   0  0  0  1  0  0  0  0  0  0  0  0
    3.8530    0.7991   -0.2107 H   0  0  0  1  0  0  0  0  0  0  0  0
    5.5921   -0.0421   -2.5976 H   0  0  0  1  0  0  0  0  0  0  0  0
    4.7488   -1.0951   -1.4866 H   0  0  0  1  0  0  0  0  0  0  0  0
    7.3709   -0.4543   -1.0673 H   0  0  0  1  0  0  0  0  0  0  0  0
    7.5625    1.7678   -0.6239 H   0  0  0  1  0  0  0  0  0  0  0  0
    6.6604    1.4942    0.8477 H   0  0  0  1  0  0  0  0  0  0  0  0
    5.0761    2.8301   -0.1218 H   0  0  0  1  0  0  0  0  0  0  0  0
    5.7366    2.5987   -1.7232 H   0  0  0  1  0  0  0  0  0  0  0  0
    5.3483   -0.6143    0.9936 H   0  0  0  1  0  0  0  0  0  0  0  0
    6.9194   -0.7554    1.2627 H   0  0  0  1  0  0  0  0  0  0  0  0
  1  2  4  0  0  0  0
  1  6  4  0  0  0  0
  2  3  4  0  0  0  0
  2 18  1  0  0  0  0
  3  4  4  0  0  0  0
  4  5  4  0  0  0  0
  4  7  4  0  0  0  0
  5  6  4  0  0  0  0
  5  9  4  0  0  0  0
  6 25  1  0  0  0  0
  7  8  4  0  0  0  0
  7 26  1  0  0  0  0
  8  9  4  0  0  0  0
  9 10  1  0  0  0  0
 10 11  4  0  0  0  0
 10 15  4  0  0  0  0
 11 12  4  0  0  0  0
 11 27  1  0  0  0  0
 12 13  4  0  0  0  0
 12 28  1  0  0  0  0
 13 14  4  0  0  0  0
 13 16  1  0  0  0  0
 14 15  4  0  0  0  0
 14 29  1  0  0  0  0
 15 30  1  0  0  0  0
 16 17  1  0  0  0  0
 17 31  1  0  0  0  0
 17 32  1  0  0  0  0
 17 33  1  0  0  0  0
 18 19  1  0  0  0  0
 18 34  1  0  0  0  0
 19 20  1  0  0  0  0
 19 23  1  0  0  0  0
 19 35  1  0  0  0  0
 20 21  1  0  0  0  0
 20 36  1  0  0  0  0
 20 37  1  0  0  0  0
 21 22  1  0  0  0  0
 21 24  1  0  0  0  0
 21 38  1  0  0  0  0
 22 23  1  0  0  0  0
 22 39  1  0  0  0  0
 22 40  1  0  0  0  0
 23 41  1  0  0  0  0
 23 42  1  0  0  0  0
 24 43  1  0  0  0  0
 24 44  1  0  0  0  0
M  END
> <ConfClashScore>
0 

> <ConfOneFourInteractionScore>
-0.984337 

> <ConfScore>
-0.07907 

> <ConfScorePBest>
0.00451288 

> <ConfTolerance>
0.254277 

$$$$
c13.sdf
 OpenBabel04162418043D

 44 47  0  0  0  0  0  0  0  0999 V2000
    1.6815    0.3800   -1.4956 N   0  0  0  1  0  0  0  0  0  0  0  0
    2.2372    1.1302   -2.4319 C   0  0  0  1  0  0  0  0  0  0  0  0
    1.5547    1.6162   -3.4433 N   0  0  0  1  0  0  0  0  0  0  0  0
    0.2488    1.3623   -3.5605 C   0  0  0  1  0  0  0  0  0  0  0  0
   -0.3776    0.5649   -2.5791 C   0  0  0  1  0  0  0  0  0  0  0  0
    0.3955    0.0770   -1.5297 C   0  0  0  1  0  0  0  0  0  0  0  0
   -0.7486    1.7183   -4.4946 C   0  0  0  1  0  0  0  0  0  0  0  0
   -1.8793    1.1895   -4.1215 N   0  0  0  1  0  0  0  0  0  0  0  0
   -1.6954    0.4646   -2.9368 N   0  0  0  1  0  0  0  0  0  0  0  0
   -2.8115   -0.1224   -2.2815 C   0  0  0  1  0  0  0  0  0  0  0  0
   -2.6324   -1.2208   -1.4619 C   0  0  0  1  0  0  0  0  0  0  0  0
   -3.7203   -1.7900   -0.8185 C   0  0  0  1  0  0  0  0  0  0  0  0
   -4.9848   -1.2626   -1.0007 C   0  0  0  1  0  0  0  0  0  0  0  0
   -5.1643   -0.1610   -1.8228 C   0  0  0  1  0  0  0  0  0  0  0  0
   -4.0796    0.4067   -2.4644 C   0  0  0  1  0  0  0  0  0  0  0  0
   -6.0428   -1.8191   -0.3795 O   0  0  0  1  0  0  0  0  0  0  0  0
   -7.3067   -1.1538   -0.6086 C   0  0  0  1  0  0  0  0  0  0  0  0
    3.5558    1.4078   -2.3464 N   0  0  0  1  0  0  0  0  0  0  0  0
    4.3856    1.0777   -1.1866 C   0  0  0  1  0  0  0  0  0  0  0  0
    5.2771   -0.1317   -1.4686 C   0  0  0  1  0  0  0  0  0  0  0  0
    6.4265   -0.0156   -0.4614 C   0  0  0  1  0  0  0  0  0  0  0  0
    6.5698    1.4857   -0.1810 C   0  0  0  1  0  0  0  0  0  0  0  0
    5.4143    2.1765   -0.9090 C   0  0  0  1  0  0  0  0  0  0  0  0
    6.1025   -0.7407    0.7741 N   0  0  0  1  0  0  0  0  0  0  0  0
   -0.0301   -0.5140   -0.7874 H   0  0  0  1  0  0  0  0  0  0  0  0
   -0.6043    2.3056   -5.3407 H   0  0  0  1  0  0  0  0  0  0  0  0
   -1.6816   -1.6201   -1.3279 H   0  0  0  1  0  0  0  0  0  0  0  0
   -3.5850   -2.6140   -0.1986 H   0  0  0  1  0  0  0  0  0  0  0  0
   -6.1151    0.2384   -1.9569 H   0  0  0  1  0  0  0  0  0  0  0  0
   -4.2149    1.2307   -3.0843 H   0  0  0  1  0  0  0  0  0  0  0  0
   -7.5268   -1.1559   -1.6558 H   0  0  0  1  0  0  0  0  0  0  0  0
   -7.2467   -0.1443   -0.2591 H   0  0  0  1  0  0  0  0  0  0  0  0
   -8.0816   -1.6691   -0.0805 H   0  0  0  1  0  0  0  0  0  0  0  0
    3.9826    1.8569   -3.1057 H   0  0  0  1  0  0  0  0  0  0  0  0
    3.7591    0.9084   -0.3359 H   0  0  0  1  0  0  0  0  0  0  0  0
    4.7354   -1.0421   -1.3185 H   0  0  0  1  0  0  0  0  0  0  0  0
    5.6501   -0.0991   -2.4710 H   0  0  0  1  0  0  0  0  0  0  0  0
    7.3309   -0.4067   -0.8784 H   0  0  0  1  0  0  0  0  0  0  0  0
    7.5072    1.8431   -0.5530 H   0  0  0  1  0  0  0  0  0  0  0  0
    6.5083    1.6726    0.8708 H   0  0  0  1  0  0  0  0  0  0  0  0
    4.9878    2.9398   -0.2922 H   0  0  0  1  0  0  0  0  0  0  0  0
    5.7561    2.6082   -1.8264 H   0  0  0  1  0  0  0  0  0  0  0  0
    6.8082   -0.5890    1.4370 H   0  0  0  1  0  0  0  0  0  0  0  0
    6.0357   -1.6993    0.5820 H   0  0  0  1  0  0  0  0  0  0  0  0
  1  2  4  0  0  0  0
  1  6  4  0  0  0  0
  2  3  4  0  0  0  0
  2 18  1  0  0  0  0
  3  4  4  0  0  0  0
  4  5  4  0  0  0  0
  4  7  4  0  0  0  0
  5  6  4  0  0  0  0
  5  9  4  0  0  0  0
  6 25  1  0  0  0  0
  7  8  4  0  0  0  0
  7 26  1  0  0  0  0
  8  9  4  0  0  0  0
  9 10  1  0  0  0  0
 10 11  4  0  0  0  0
 10 15  4  0  0  0  0
 11 12  4  0  0  0  0
 11 27  1  0  0  0  0
 12 13  4  0  0  0  0
 12 28  1  0  0  0  0
 13 14  4  0  0  0  0
 13 16  1  0  0  0  0
 14 15  4  0  0  0  0
 14 29  1  0  0  0  0
 15 30  1  0  0  0  0
 16 17  1  0  0  0  0
 17 31  1  0  0  0  0
 17 32  1  0  0  0  0
 17 33  1  0  0  0  0
 18 19  1  0  0  0  0
 18 34  1  0  0  0  0
 19 20  1  0  0  0  0
 19 23  1  0  0  0  0
 19 35  1  0  0  0  0
 20 21  1  0  0  0  0
 20 36  1  0  0  0  0
 20 37  1  0  0  0  0
 21 22  1  0  0  0  0
 21 24  1  0  0  0  0
 21 38  1  0  0  0  0
 22 23  1  0  0  0  0
 22 39  1  0  0  0  0
 22 40  1  0  0  0  0
 23 41  1  0  0  0  0
 23 42  1  0  0  0  0
 24 43  1  0  0  0  0
 24 44  1  0  0  0  0
M  END
> <ConfClashScore>
0 

> <ConfOneFourInteractionScore>
-0.984337 

> <ConfScore>
-0.0783484 

> <ConfScorePBest>
0.00449955 

> <ConfTolerance>
0.208592 

$$$$
c13.sdf
 OpenBabel04162418043D

 44 47  0  0  0  0  0  0  0  0999 V2000
    1.9401    1.1163   -3.8197 N   0  0  0  1  0  0  0  0  0  0  0  0
    2.6748    0.6349   -2.8314 C   0  0  0  1  0  0  0  0  0  0  0  0
    2.6413   -0.6299   -2.4790 N   0  0  0  1  0  0  0  0  0  0  0  0
    1.8462   -1.4888   -3.1222 C   0  0  0  1  0  0  0  0  0  0  0  0
    1.0477   -1.0099   -4.1826 C   0  0  0  1  0  0  0  0  0  0  0  0
    1.1245    0.3402   -4.5120 C   0  0  0  1  0  0  0  0  0  0  0  0
    1.5784   -2.8700   -3.0015 C   0  0  0  1  0  0  0  0  0  0  0  0
    0.6993   -3.2063   -3.9023 N   0  0  0  1  0  0  0  0  0  0  0  0
    0.3417   -2.0822   -4.6582 N   0  0  0  1  0  0  0  0  0  0  0  0
   -0.6030   -2.1848   -5.7059 C   0  0  0  1  0  0  0  0  0  0  0  0
   -0.1416   -2.0404   -7.0007 C   0  0  0  1  0  0  0  0  0  0  0  0
   -1.0237   -2.1372   -8.0655 C   0  0  0  1  0  0  0  0  0  0  0  0
   -2.3655   -2.3727   -7.8324 C   0  0  0  1  0  0  0  0  0  0  0  0
   -2.8282   -2.5175   -6.5337 C   0  0  0  1  0  0  0  0  0  0  0  0
   -1.9487   -2.4210   -5.4718 C   0  0  0  1  0  0  0  0  0  0  0  0
   -3.1303   -2.4419   -8.9478 O   0  0  0  1  0  0  0  0  0  0  0  0
   -4.5494   -2.5631   -8.7639 C   0  0  0  1  0  0  0  0  0  0  0  0
    3.4877    1.4709   -2.1607 N   0  0  0  1  0  0  0  0  0  0  0  0
    4.3998    1.0446   -1.0983 C   0  0  0  1  0  0  0  0  0  0  0  0
    5.2713   -0.1739   -1.5533 C   0  0  0  1  0  0  0  0  0  0  0  0
    6.4821   -0.0995   -0.6048 C   0  0  0  1  0  0  0  0  0  0  0  0
    6.6722    1.4071   -0.2124 C   0  0  0  1  0  0  0  0  0  0  0  0
    5.4624    2.1136   -0.8154 C   0  0  0  1  0  0  0  0  0  0  0  0
    6.2287   -0.9066    0.6008 N   0  0  0  1  0  0  0  0  0  0  0  0
    0.5515    0.7305   -5.2872 H   0  0  0  1  0  0  0  0  0  0  0  0
    2.0115   -3.5127   -2.3080 H   0  0  0  1  0  0  0  0  0  0  0  0
    0.8674   -1.8592   -7.1760 H   0  0  0  1  0  0  0  0  0  0  0  0
   -0.6758   -2.0326   -9.0400 H   0  0  0  1  0  0  0  0  0  0  0  0
   -3.8371   -2.6988   -6.3583 H   0  0  0  1  0  0  0  0  0  0  0  0
   -2.2965   -2.5257   -4.4973 H   0  0  0  1  0  0  0  0  0  0  0  0
   -4.9146   -1.7106   -8.2304 H   0  0  0  1  0  0  0  0  0  0  0  0
   -4.7619   -3.4509   -8.2057 H   0  0  0  1  0  0  0  0  0  0  0  0
   -5.0291   -2.6183   -9.7188 H   0  0  0  1  0  0  0  0  0  0  0  0
    3.4680    2.4217   -2.3974 H   0  0  0  1  0  0  0  0  0  0  0  0
    3.8385    0.8127   -0.2173 H   0  0  0  1  0  0  0  0  0  0  0  0
    4.7407   -1.0948   -1.4294 H   0  0  0  1  0  0  0  0  0  0  0  0
    5.5746   -0.0709   -2.5742 H   0  0  0  1  0  0  0  0  0  0  0  0
    7.3583   -0.4626   -1.1000 H   0  0  0  1  0  0  0  0  0  0  0  0
    7.5806    1.7937   -0.6251 H   0  0  0  1  0  0  0  0  0  0  0  0
    6.6860    1.5220    0.8514 H   0  0  0  1  0  0  0  0  0  0  0  0
    5.7407    2.6022   -1.7257 H   0  0  0  1  0  0  0  0  0  0  0  0
    5.0793    2.8359   -0.1250 H   0  0  0  1  0  0  0  0  0  0  0  0
    5.3247   -0.7244    0.9324 H   0  0  0  1  0  0  0  0  0  0  0  0
    6.8830   -0.6745    1.2925 H   0  0  0  1  0  0  0  0  0  0  0  0
  1  2  4  0  0  0  0
  1  6  4  0  0  0  0
  2  3  4  0  0  0  0
  2 18  1  0  0  0  0
  3  4  4  0  0  0  0
  4  5  4  0  0  0  0
  4  7  4  0  0  0  0
  5  6  4  0  0  0  0
  5  9  4  0  0  0  0
  6 25  1  0  0  0  0
  7  8  4  0  0  0  0
  7 26  1  0  0  0  0
  8  9  4  0  0  0  0
  9 10  1  0  0  0  0
 10 11  4  0  0  0  0
 10 15  4  0  0  0  0
 11 12  4  0  0  0  0
 11 27  1  0  0  0  0
 12 13  4  0  0  0  0
 12 28  1  0  0  0  0
 13 14  4  0  0  0  0
 13 16  1  0  0  0  0
 14 15  4  0  0  0  0
 14 29  1  0  0  0  0
 15 30  1  0  0  0  0
 16 17  1  0  0  0  0
 17 31  1  0  0  0  0
 17 32  1  0  0  0  0
 17 33  1  0  0  0  0
 18 19  1  0  0  0  0
 18 34  1  0  0  0  0
 19 20  1  0  0  0  0
 19 23  1  0  0  0  0
 19 35  1  0  0  0  0
 20 21  1  0  0  0  0
 20 36  1  0  0  0  0
 20 37  1  0  0  0  0
 21 22  1  0  0  0  0
 21 24  1  0  0  0  0
 21 38  1  0  0  0  0
 22 23  1  0  0  0  0
 22 39  1  0  0  0  0
 22 40  1  0  0  0  0
 23 41  1  0  0  0  0
 23 42  1  0  0  0  0
 24 43  1  0  0  0  0
 24 44  1  0  0  0  0
M  END
> <ConfClashScore>
0 

> <ConfOneFourInteractionScore>
-0.985399 

> <ConfScore>
-0.0780776 

> <ConfScorePBest>
0.00448622 

> <ConfTolerance>
0.257205 

$$$$
c13.sdf
 OpenBabel04162418043D

 44 47  0  0  0  0  0  0  0  0999 V2000
    2.6547    2.4279   -4.2460 N   0  0  0  1  0  0  0  0  0  0  0  0
    3.0337    2.3437   -2.9820 C   0  0  0  1  0  0  0  0  0  0  0  0
    2.5582    3.1363   -2.0489 N   0  0  0  1  0  0  0  0  0  0  0  0
    1.6568    4.0732   -2.3542 C   0  0  0  1  0  0  0  0  0  0  0  0
    1.2291    4.1917   -3.6938 C   0  0  0  1  0  0  0  0  0  0  0  0
    1.7673    3.3246   -4.6400 C   0  0  0  1  0  0  0  0  0  0  0  0
    0.9644    5.0580   -1.6162 C   0  0  0  1  0  0  0  0  0  0  0  0
    0.1859    5.7179   -2.4261 N   0  0  0  1  0  0  0  0  0  0  0  0
    0.3183    5.2134   -3.7265 N   0  0  0  1  0  0  0  0  0  0  0  0
   -0.4430    5.7925   -4.7618 C   0  0  0  1  0  0  0  0  0  0  0  0
   -1.7000    5.2704   -5.0015 C   0  0  0  1  0  0  0  0  0  0  0  0
   -2.4930    5.8059   -6.0044 C   0  0  0  1  0  0  0  0  0  0  0  0
   -2.0248    6.8584   -6.7682 C   0  0  0  1  0  0  0  0  0  0  0  0
   -0.7640    7.3819   -6.5276 C   0  0  0  1  0  0  0  0  0  0  0  0
    0.0269    6.8481   -5.5277 C   0  0  0  1  0  0  0  0  0  0  0  0
   -2.8843    7.2936   -7.7198 O   0  0  0  1  0  0  0  0  0  0  0  0
   -2.5447    8.5096   -8.4043 C   0  0  0  1  0  0  0  0  0  0  0  0
    3.9404    1.4117   -2.6374 N   0  0  0  1  0  0  0  0  0  0  0  0
    4.4261    1.2116   -1.2712 C   0  0  0  1  0  0  0  0  0  0  0  0
    5.0889   -0.1507   -1.1399 C   0  0  0  1  0  0  0  0  0  0  0  0
    6.4998    0.0607   -0.5667 C   0  0  0  1  0  0  0  0  0  0  0  0
    6.4352    1.4668    0.0035 C   0  0  0  1  0  0  0  0  0  0  0  0
    5.5164    2.2463   -0.9334 C   0  0  0  1  0  0  0  0  0  0  0  0
    6.7996   -0.9422    0.5079 N   0  0  0  1  0  0  0  0  0  0  0  0
    1.4771    3.3811   -5.6371 H   0  0  0  1  0  0  0  0  0  0  0  0
    1.0600    5.2285   -0.5947 H   0  0  0  1  0  0  0  0  0  0  0  0
   -2.0508    4.4758   -4.4296 H   0  0  0  1  0  0  0  0  0  0  0  0
   -3.4405    5.4156   -6.1822 H   0  0  0  1  0  0  0  0  0  0  0  0
   -0.4131    8.1765   -7.0996 H   0  0  0  1  0  0  0  0  0  0  0  0
    0.9744    7.2383   -5.3499 H   0  0  0  1  0  0  0  0  0  0  0  0
   -3.2797    8.7145   -9.1544 H   0  0  0  1  0  0  0  0  0  0  0  0
   -1.5850    8.4029   -8.8653 H   0  0  0  1  0  0  0  0  0  0  0  0
   -2.5163    9.3173   -7.7030 H   0  0  0  1  0  0  0  0  0  0  0  0
    4.2970    0.8323   -3.3429 H   0  0  0  1  0  0  0  0  0  0  0  0
    3.6087    1.2952   -0.5858 H   0  0  0  1  0  0  0  0  0  0  0  0
    5.1536   -0.6170   -2.1008 H   0  0  0  1  0  0  0  0  0  0  0  0
    4.5180   -0.7700   -0.4800 H   0  0  0  1  0  0  0  0  0  0  0  0
    7.2405   -0.0076   -1.3358 H   0  0  0  1  0  0  0  0  0  0  0  0
    6.0313    1.4500    0.9942 H   0  0  0  1  0  0  0  0  0  0  0  0
    7.4101    1.9074    0.0227 H   0  0  0  1  0  0  0  0  0  0  0  0
    6.0379    2.5593   -1.8137 H   0  0  0  1  0  0  0  0  0  0  0  0
    5.0992    3.1008   -0.4427 H   0  0  0  1  0  0  0  0  0  0  0  0
    6.9719   -1.8167    0.1004 H   0  0  0  1  0  0  0  0  0  0  0  0
    6.0327   -1.0101    1.1143 H   0  0  0  1  0  0  0  0  0  0  0  0
  1  2  4  0  0  0  0
  1  6  4  0  0  0  0
  2  3  4  0  0  0  0
  2 18  1  0  0  0  0
  3  4  4  0  0  0  0
  4  5  4  0  0  0  0
  4  7  4  0  0  0  0
  5  6  4  0  0  0  0
  5  9  4  0  0  0  0
  6 25  1  0  0  0  0
  7  8  4  0  0  0  0
  7 26  1  0  0  0  0
  8  9  4  0  0  0  0
  9 10  1  0  0  0  0
 10 11  4  0  0  0  0
 10 15  4  0  0  0  0
 11 12  4  0  0  0  0
 11 27  1  0  0  0  0
 12 13  4  0  0  0  0
 12 28  1  0  0  0  0
 13 14  4  0  0  0  0
 13 16  1  0  0  0  0
 14 15  4  0  0  0  0
 14 29  1  0  0  0  0
 15 30  1  0  0  0  0
 16 17  1  0  0  0  0
 17 31  1  0  0  0  0
 17 32  1  0  0  0  0
 17 33  1  0  0  0  0
 18 19  1  0  0  0  0
 18 34  1  0  0  0  0
 19 20  1  0  0  0  0
 19 23  1  0  0  0  0
 19 35  1  0  0  0  0
 20 21  1  0  0  0  0
 20 36  1  0  0  0  0
 20 37  1  0  0  0  0
 21 22  1  0  0  0  0
 21 24  1  0  0  0  0
 21 38  1  0  0  0  0
 22 23  1  0  0  0  0
 22 39  1  0  0  0  0
 22 40  1  0  0  0  0
 23 41  1  0  0  0  0
 23 42  1  0  0  0  0
 24 43  1  0  0  0  0
 24 44  1  0  0  0  0
M  END
> <ConfClashScore>
0 

> <ConfOneFourInteractionScore>
-0.990106 

> <ConfScore>
-0.0780721 

> <ConfScorePBest>
0.00447289 

> <ConfTolerance>
0.318074 

$$$$
c13.sdf
 OpenBabel04162418043D

 44 47  0  0  0  0  0  0  0  0999 V2000
    4.7767    2.6241   -4.8756 N   0  0  0  1  0  0  0  0  0  0  0  0
    4.3494    2.4139   -3.6420 C   0  0  0  1  0  0  0  0  0  0  0  0
    3.3743    3.1110   -3.1052 N   0  0  0  1  0  0  0  0  0  0  0  0
    2.7701    4.0756   -3.8039 C   0  0  0  1  0  0  0  0  0  0  0  0
    3.2003    4.3275   -5.1240 C   0  0  0  1  0  0  0  0  0  0  0  0
    4.2381    3.5575   -5.6408 C   0  0  0  1  0  0  0  0  0  0  0  0
    1.7226    4.9838   -3.5357 C   0  0  0  1  0  0  0  0  0  0  0  0
    1.5287    5.7225   -4.5912 N   0  0  0  1  0  0  0  0  0  0  0  0
    2.4244    5.3495   -5.6018 N   0  0  0  1  0  0  0  0  0  0  0  0
    2.4564    5.9708   -6.8666 C   0  0  0  1  0  0  0  0  0  0  0  0
    1.5424    5.6746   -7.8601 C   0  0  0  1  0  0  0  0  0  0  0  0
    1.6166    6.3199   -9.0847 C   0  0  0  1  0  0  0  0  0  0  0  0
    2.6077    7.2555   -9.3141 C   0  0  0  1  0  0  0  0  0  0  0  0
    3.5243    7.5525   -8.3175 C   0  0  0  1  0  0  0  0  0  0  0  0
    3.4505    6.9092   -7.0964 C   0  0  0  1  0  0  0  0  0  0  0  0
    2.5835    7.8151  -10.5470 O   0  0  0  1  0  0  0  0  0  0  0  0
    3.4462    8.9469  -10.7734 C   0  0  0  1  0  0  0  0  0  0  0  0
    4.9094    1.4595   -2.8773 N   0  0  0  1  0  0  0  0  0  0  0  0
    4.5328    1.2023   -1.4981 C   0  0  0  1  0  0  0  0  0  0  0  0
    4.9979   -0.1836   -1.0445 C   0  0  0  1  0  0  0  0  0  0  0  0
    6.4598   -0.0117   -0.6255 C   0  0  0  1  0  0  0  0  0  0  0  0
    6.6727    1.4893   -0.3914 C   0  0  0  1  0  0  0  0  0  0  0  0
    5.2848    2.1229   -0.5368 C   0  0  0  1  0  0  0  0  0  0  0  0
    6.7267   -0.7664    0.6203 N   0  0  0  1  0  0  0  0  0  0  0  0
    4.5828    3.7134   -6.6095 H   0  0  0  1  0  0  0  0  0  0  0  0
    1.1933    5.0517   -2.6431 H   0  0  0  1  0  0  0  0  0  0  0  0
    0.7990    4.9677   -7.6889 H   0  0  0  1  0  0  0  0  0  0  0  0
    0.9264    6.1000   -9.8309 H   0  0  0  1  0  0  0  0  0  0  0  0
    4.2677    8.2594   -8.4886 H   0  0  0  1  0  0  0  0  0  0  0  0
    4.1406    7.1290   -6.3501 H   0  0  0  1  0  0  0  0  0  0  0  0
    3.3442    9.2768  -11.7862 H   0  0  0  1  0  0  0  0  0  0  0  0
    4.4617    8.6630  -10.5917 H   0  0  0  1  0  0  0  0  0  0  0  0
    3.1733    9.7413  -10.1106 H   0  0  0  1  0  0  0  0  0  0  0  0
    5.6132    0.9047   -3.2740 H   0  0  0  1  0  0  0  0  0  0  0  0
    3.4737    1.3108   -1.3910 H   0  0  0  1  0  0  0  0  0  0  0  0
    4.9202   -0.8850   -1.8488 H   0  0  0  1  0  0  0  0  0  0  0  0
    4.4099   -0.5222   -0.2172 H   0  0  0  1  0  0  0  0  0  0  0  0
    7.1098   -0.3605   -1.4006 H   0  0  0  1  0  0  0  0  0  0  0  0
    7.0630    1.6637    0.5895 H   0  0  0  1  0  0  0  0  0  0  0  0
    7.3457    1.8903   -1.1201 H   0  0  0  1  0  0  0  0  0  0  0  0
    5.3620    3.1097   -0.9433 H   0  0  0  1  0  0  0  0  0  0  0  0
    4.7886    2.1646    0.4103 H   0  0  0  1  0  0  0  0  0  0  0  0
    6.7202   -1.7274    0.4284 H   0  0  0  1  0  0  0  0  0  0  0  0
    6.0332   -0.5608    1.2815 H   0  0  0  1  0  0  0  0  0  0  0  0
  1  2  4  0  0  0  0
  1  6  4  0  0  0  0
  2  3  4  0  0  0  0
  2 18  1  0  0  0  0
  3  4  4  0  0  0  0
  4  5  4  0  0  0  0
  4  7  4  0  0  0  0
  5  6  4  0  0  0  0
  5  9  4  0  0  0  0
  6 25  1  0  0  0  0
  7  8  4  0  0  0  0
  7 26  1  0  0  0  0
  8  9  4  0  0  0  0
  9 10  1  0  0  0  0
 10 11  4  0  0  0  0
 10 15  4  0  0  0  0
 11 12  4  0  0  0  0
 11 27  1  0  0  0  0
 12 13  4  0  0  0  0
 12 28  1  0  0  0  0
 13 14  4  0  0  0  0
 13 16  1  0  0  0  0
 14 15  4  0  0  0  0
 14 29  1  0  0  0  0
 15 30  1  0  0  0  0
 16 17  1  0  0  0  0
 17 31  1  0  0  0  0
 17 32  1  0  0  0  0
 17 33  1  0  0  0  0
 18 19  1  0  0  0  0
 18 34  1  0  0  0  0
 19 20  1  0  0  0  0
 19 23  1  0  0  0  0
 19 35  1  0  0  0  0
 20 21  1  0  0  0  0
 20 36  1  0  0  0  0
 20 37  1  0  0  0  0
 21 22  1  0  0  0  0
 21 24  1  0  0  0  0
 21 38  1  0  0  0  0
 22 23  1  0  0  0  0
 22 39  1  0  0  0  0
 22 40  1  0  0  0  0
 23 41  1  0  0  0  0
 23 42  1  0  0  0  0
 24 43  1  0  0  0  0
 24 44  1  0  0  0  0
M  END
> <ConfClashScore>
0 

> <ConfOneFourInteractionScore>
-0.984337 

> <ConfScore>
-0.0780721 

> <ConfScorePBest>
0.00445956 

> <ConfTolerance>
0.323842 

$$$$
c13.sdf
 OpenBabel04162418043D

 44 47  0  0  0  0  0  0  0  0999 V2000
    1.8117    2.0659   -1.0295 N   0  0  0  1  0  0  0  0  0  0  0  0
    2.3001    1.9133   -2.2487 C   0  0  0  1  0  0  0  0  0  0  0  0
    1.6178    2.2276   -3.3261 N   0  0  0  1  0  0  0  0  0  0  0  0
    0.3816    2.7221   -3.2217 C   0  0  0  1  0  0  0  0  0  0  0  0
   -0.1717    2.8985   -1.9356 C   0  0  0  1  0  0  0  0  0  0  0  0
    0.5975    2.5481   -0.8299 C   0  0  0  1  0  0  0  0  0  0  0  0
   -0.5947    3.1494   -4.1481 C   0  0  0  1  0  0  0  0  0  0  0  0
   -1.6469    3.5498   -3.4924 N   0  0  0  1  0  0  0  0  0  0  0  0
   -1.4283    3.4116   -2.1155 N   0  0  0  1  0  0  0  0  0  0  0  0
   -2.4459    3.7895   -1.2268 C   0  0  0  1  0  0  0  0  0  0  0  0
   -2.4286    3.5476    0.1339 C   0  0  0  1  0  0  0  0  0  0  0  0
   -3.4853    3.9686    0.9260 C   0  0  0  1  0  0  0  0  0  0  0  0
   -4.5588    4.6254    0.3544 C   0  0  0  1  0  0  0  0  0  0  0  0
   -4.5760    4.8679   -1.0103 C   0  0  0  1  0  0  0  0  0  0  0  0
   -3.5223    4.4482   -1.8002 C   0  0  0  1  0  0  0  0  0  0  0  0
   -5.5299    4.9825    1.2230 O   0  0  0  1  0  0  0  0  0  0  0  0
   -6.7644    5.5187    0.7222 C   0  0  0  1  0  0  0  0  0  0  0  0
    3.5506    1.4126   -2.3419 N   0  0  0  1  0  0  0  0  0  0  0  0
    4.3834    1.0771   -1.1860 C   0  0  0  1  0  0  0  0  0  0  0  0
    5.2816   -0.1247   -1.4795 C   0  0  0  1  0  0  0  0  0  0  0  0
    6.4313   -0.0108   -0.4724 C   0  0  0  1  0  0  0  0  0  0  0  0
    6.5663    1.4887   -0.1789 C   0  0  0  1  0  0  0  0  0  0  0  0
    5.4061    2.1793   -0.8996 C   0  0  0  1  0  0  0  0  0  0  0  0
    6.1070   -0.7619    0.7792 N   0  0  0  1  0  0  0  0  0  0  0  0
    0.2244    2.6635    0.1340 H   0  0  0  1  0  0  0  0  0  0  0  0
   -0.4910    3.1452   -5.1829 H   0  0  0  1  0  0  0  0  0  0  0  0
   -1.6227    3.0499    0.5634 H   0  0  0  1  0  0  0  0  0  0  0  0
   -3.4705    3.7902    1.9505 H   0  0  0  1  0  0  0  0  0  0  0  0
   -5.3818    5.3656   -1.4399 H   0  0  0  1  0  0  0  0  0  0  0  0
   -3.5371    4.6265   -2.8247 H   0  0  0  1  0  0  0  0  0  0  0  0
   -7.3784    5.8277    1.5422 H   0  0  0  1  0  0  0  0  0  0  0  0
   -7.2759    4.7677    0.1571 H   0  0  0  1  0  0  0  0  0  0  0  0
   -6.5587    6.3601    0.0940 H   0  0  0  1  0  0  0  0  0  0  0  0
    3.9226    1.2650   -3.2365 H   0  0  0  1  0  0  0  0  0  0  0  0
    3.7588    0.8967   -0.3361 H   0  0  0  1  0  0  0  0  0  0  0  0
    5.6533   -0.0811   -2.4819 H   0  0  0  1  0  0  0  0  0  0  0  0
    4.7452   -1.0395   -1.3368 H   0  0  0  1  0  0  0  0  0  0  0  0
    7.3375   -0.3931   -0.8938 H   0  0  0  1  0  0  0  0  0  0  0  0
    7.5013    1.8548   -0.5487 H   0  0  0  1  0  0  0  0  0  0  0  0
    6.5048    1.6660    0.8745 H   0  0  0  1  0  0  0  0  0  0  0  0
    5.7445    2.6210   -1.8136 H   0  0  0  1  0  0  0  0  0  0  0  0
    4.9759    2.9346   -0.2758 H   0  0  0  1  0  0  0  0  0  0  0  0
    6.8075   -0.6041    1.4462 H   0  0  0  1  0  0  0  0  0  0  0  0
    6.0552   -1.7202    0.5807 H   0  0  0  1  0  0  0  0  0  0  0  0
  1  2  4  0  0  0  0
  1  6  4  0  0  0  0
  2  3  4  0  0  0  0
  2 18  1  0  0  0  0
  3  4  4  0  0  0  0
  4  5  4  0  0  0  0
  4  7  4  0  0  0  0
  5  6  4  0  0  0  0
  5  9  4  0  0  0  0
  6 25  1  0  0  0  0
  7  8  4  0  0  0  0
  7 26  1  0  0  0  0
  8  9  4  0  0  0  0
  9 10  1  0  0  0  0
 10 11  4  0  0  0  0
 10 15  4  0  0  0  0
 11 12  4  0  0  0  0
 11 27  1  0  0  0  0
 12 13  4  0  0  0  0
 12 28  1  0  0  0  0
 13 14  4  0  0  0  0
 13 16  1  0  0  0  0
 14 15  4  0  0  0  0
 14 29  1  0  0  0  0
 15 30  1  0  0  0  0
 16 17  1  0  0  0  0
 17 31  1  0  0  0  0
 17 32  1  0  0  0  0
 17 33  1  0  0  0  0
 18 19  1  0  0  0  0
 18 34  1  0  0  0  0
 19 20  1  0  0  0  0
 19 23  1  0  0  0  0
 19 35  1  0  0  0  0
 20 21  1  0  0  0  0
 20 36  1  0  0  0  0
 20 37  1  0  0  0  0
 21 22  1  0  0  0  0
 21 24  1  0  0  0  0
 21 38  1  0  0  0  0
 22 23  1  0  0  0  0
 22 39  1  0  0  0  0
 22 40  1  0  0  0  0
 23 41  1  0  0  0  0
 23 42  1  0  0  0  0
 24 43  1  0  0  0  0
 24 44  1  0  0  0  0
M  END
> <ConfClashScore>
0 

> <ConfOneFourInteractionScore>
-0.984337 

> <ConfScore>
-0.0777275 

> <ConfScorePBest>
0.00444624 

> <ConfTolerance>
0.297235 

$$$$
c13.sdf
 OpenBabel04162418043D

 44 47  0  0  0  0  0  0  0  0999 V2000
    1.8642    1.9372   -0.6538 N   0  0  0  1  0  0  0  0  0  0  0  0
    2.2739    1.9895   -1.9099 C   0  0  0  1  0  0  0  0  0  0  0  0
    1.5507    2.5266   -2.8657 N   0  0  0  1  0  0  0  0  0  0  0  0
    0.3520    3.0483   -2.5929 C   0  0  0  1  0  0  0  0  0  0  0  0
   -0.1174    3.0100   -1.2626 C   0  0  0  1  0  0  0  0  0  0  0  0
    0.6920    2.4284   -0.2913 C   0  0  0  1  0  0  0  0  0  0  0  0
   -0.6496    3.6818   -3.3608 C   0  0  0  1  0  0  0  0  0  0  0  0
   -1.6391    4.0016   -2.5761 N   0  0  0  1  0  0  0  0  0  0  0  0
   -1.3514    3.6031   -1.2641 N   0  0  0  1  0  0  0  0  0  0  0  0
   -2.2732    3.8382   -0.2173 C   0  0  0  1  0  0  0  0  0  0  0  0
   -3.5802    3.3919   -0.2678 C   0  0  0  1  0  0  0  0  0  0  0  0
   -4.4404    3.6456    0.7892 C   0  0  0  1  0  0  0  0  0  0  0  0
   -3.9926    4.3496    1.8912 C   0  0  0  1  0  0  0  0  0  0  0  0
   -2.6816    4.7972    1.9416 C   0  0  0  1  0  0  0  0  0  0  0  0
   -1.8238    4.5442    0.8878 C   0  0  0  1  0  0  0  0  0  0  0  0
   -4.9224    4.5408    2.8569 O   0  0  0  1  0  0  0  0  0  0  0  0
   -4.5071    5.2450    4.0376 C   0  0  0  1  0  0  0  0  0  0  0  0
    3.4939    1.4560   -2.1752 N   0  0  0  1  0  0  0  0  0  0  0  0
    4.4045    1.0442   -1.1023 C   0  0  0  1  0  0  0  0  0  0  0  0
    5.2684   -0.1415   -1.5325 C   0  0  0  1  0  0  0  0  0  0  0  0
    6.4873   -0.0964   -0.6045 C   0  0  0  1  0  0  0  0  0  0  0  0
    6.6568    1.3812   -0.2292 C   0  0  0  1  0  0  0  0  0  0  0  0
    5.4553    2.1212   -0.8217 C   0  0  0  1  0  0  0  0  0  0  0  0
    6.2466   -0.9170    0.6100 N   0  0  0  1  0  0  0  0  0  0  0  0
    0.3807    2.3813    0.6999 H   0  0  0  1  0  0  0  0  0  0  0  0
   -0.6046    3.8631   -4.3839 H   0  0  0  1  0  0  0  0  0  0  0  0
   -3.9184    2.8657   -1.0986 H   0  0  0  1  0  0  0  0  0  0  0  0
   -5.4228    3.3063    0.7531 H   0  0  0  1  0  0  0  0  0  0  0  0
   -2.3434    5.3233    2.7725 H   0  0  0  1  0  0  0  0  0  0  0  0
   -0.8414    4.8835    0.9239 H   0  0  0  1  0  0  0  0  0  0  0  0
   -3.7189    4.7035    4.5177 H   0  0  0  1  0  0  0  0  0  0  0  0
   -5.3360    5.3370    4.7079 H   0  0  0  1  0  0  0  0  0  0  0  0
   -4.1568    6.2191    3.7669 H   0  0  0  1  0  0  0  0  0  0  0  0
    3.7730    1.3433   -3.1078 H   0  0  0  1  0  0  0  0  0  0  0  0
    3.8398    0.8143   -0.2231 H   0  0  0  1  0  0  0  0  0  0  0  0
    4.7348   -1.0607   -1.4091 H   0  0  0  1  0  0  0  0  0  0  0  0
    5.5689   -0.0374   -2.5542 H   0  0  0  1  0  0  0  0  0  0  0  0
    7.3579   -0.4562   -1.1119 H   0  0  0  1  0  0  0  0  0  0  0  0
    7.5668    1.7649   -0.6410 H   0  0  0  1  0  0  0  0  0  0  0  0
    6.6714    1.4928    0.8349 H   0  0  0  1  0  0  0  0  0  0  0  0
    5.0773    2.8383   -0.1233 H   0  0  0  1  0  0  0  0  0  0  0  0
    5.7325    2.6173   -1.7283 H   0  0  0  1  0  0  0  0  0  0  0  0
    5.3438   -0.7425    0.9491 H   0  0  0  1  0  0  0  0  0  0  0  0
    6.9045   -0.6830    1.2977 H   0  0  0  1  0  0  0  0  0  0  0  0
  1  2  4  0  0  0  0
  1  6  4  0  0  0  0
  2  3  4  0  0  0  0
  2 18  1  0  0  0  0
  3  4  4  0  0  0  0
  4  5  4  0  0  0  0
  4  7  4  0  0  0  0
  5  6  4  0  0  0  0
  5  9  4  0  0  0  0
  6 25  1  0  0  0  0
  7  8  4  0  0  0  0
  7 26  1  0  0  0  0
  8  9  4  0  0  0  0
  9 10  1  0  0  0  0
 10 11  4  0  0  0  0
 10 15  4  0  0  0  0
 11 12  4  0  0  0  0
 11 27  1  0  0  0  0
 12 13  4  0  0  0  0
 12 28  1  0  0  0  0
 13 14  4  0  0  0  0
 13 16  1  0  0  0  0
 14 15  4  0  0  0  0
 14 29  1  0  0  0  0
 15 30  1  0  0  0  0
 16 17  1  0  0  0  0
 17 31  1  0  0  0  0
 17 32  1  0  0  0  0
 17 33  1  0  0  0  0
 18 19  1  0  0  0  0
 18 34  1  0  0  0  0
 19 20  1  0  0  0  0
 19 23  1  0  0  0  0
 19 35  1  0  0  0  0
 20 21  1  0  0  0  0
 20 36  1  0  0  0  0
 20 37  1  0  0  0  0
 21 22  1  0  0  0  0
 21 24  1  0  0  0  0
 21 38  1  0  0  0  0
 22 23  1  0  0  0  0
 22 39  1  0  0  0  0
 22 40  1  0  0  0  0
 23 41  1  0  0  0  0
 23 42  1  0  0  0  0
 24 43  1  0  0  0  0
 24 44  1  0  0  0  0
M  END
> <ConfClashScore>
0 

> <ConfOneFourInteractionScore>
-0.984337 

> <ConfScore>
-0.0762043 

> <ConfScorePBest>
0.00443291 

> <ConfTolerance>
0.264675 

$$$$
c13.sdf
 OpenBabel04162418043D

 44 47  0  0  0  0  0  0  0  0999 V2000
    1.6690    2.4471   -3.1356 N   0  0  0  1  0  0  0  0  0  0  0  0
    2.3811    2.1711   -2.0561 C   0  0  0  1  0  0  0  0  0  0  0  0
    2.0261    2.5701   -0.8562 N   0  0  0  1  0  0  0  0  0  0  0  0
    0.9100    3.2831   -0.6848 C   0  0  0  1  0  0  0  0  0  0  0  0
    0.1251    3.5961   -1.8149 C   0  0  0  1  0  0  0  0  0  0  0  0
    0.5503    3.1469   -3.0616 C   0  0  0  1  0  0  0  0  0  0  0  0
    0.2605    3.8510    0.4331 C   0  0  0  1  0  0  0  0  0  0  0  0
   -0.8201    4.4551    0.0271 N   0  0  0  1  0  0  0  0  0  0  0  0
   -0.9437    4.3222   -1.3621 N   0  0  0  1  0  0  0  0  0  0  0  0
   -2.0648    4.9144   -2.0129 C   0  0  0  1  0  0  0  0  0  0  0  0
   -2.1232    6.2850   -2.1802 C   0  0  0  1  0  0  0  0  0  0  0  0
   -3.2523    6.8680   -2.7341 C   0  0  0  1  0  0  0  0  0  0  0  0
   -4.3218    6.0792   -3.1140 C   0  0  0  1  0  0  0  0  0  0  0  0
   -4.2630    4.7045   -2.9460 C   0  0  0  1  0  0  0  0  0  0  0  0
   -3.1373    4.1231   -2.3938 C   0  0  0  1  0  0  0  0  0  0  0  0
   -5.4750    6.5341   -3.6590 O   0  0  0  1  0  0  0  0  0  0  0  0
   -5.6412    7.9577   -3.7496 C   0  0  0  1  0  0  0  0  0  0  0  0
    3.5056    1.4589   -2.1898 N   0  0  0  1  0  0  0  0  0  0  0  0
    4.4014    1.0458   -1.1167 C   0  0  0  1  0  0  0  0  0  0  0  0
    5.2718   -0.1359   -1.5447 C   0  0  0  1  0  0  0  0  0  0  0  0
    6.4816   -0.0931   -0.6047 C   0  0  0  1  0  0  0  0  0  0  0  0
    6.6446    1.3829   -0.2203 C   0  0  0  1  0  0  0  0  0  0  0  0
    5.4472    2.1235   -0.8205 C   0  0  0  1  0  0  0  0  0  0  0  0
    6.2284   -0.9289    0.6156 N   0  0  0  1  0  0  0  0  0  0  0  0
   -0.0012    3.3575   -3.9178 H   0  0  0  1  0  0  0  0  0  0  0  0
    0.5903    3.7962    1.4179 H   0  0  0  1  0  0  0  0  0  0  0  0
   -1.3201    6.8790   -1.8907 H   0  0  0  1  0  0  0  0  0  0  0  0
   -3.2947    7.8990   -2.8637 H   0  0  0  1  0  0  0  0  0  0  0  0
   -5.0661    4.1105   -3.2356 H   0  0  0  1  0  0  0  0  0  0  0  0
   -3.0948    3.0921   -2.2641 H   0  0  0  1  0  0  0  0  0  0  0  0
   -6.3015    8.1895   -4.5591 H   0  0  0  1  0  0  0  0  0  0  0  0
   -4.6905    8.4173   -3.9224 H   0  0  0  1  0  0  0  0  0  0  0  0
   -6.0554    8.3271   -2.8348 H   0  0  0  1  0  0  0  0  0  0  0  0
    3.7513    1.1881   -3.0990 H   0  0  0  1  0  0  0  0  0  0  0  0
    3.8287    0.8103   -0.2441 H   0  0  0  1  0  0  0  0  0  0  0  0
    5.5818   -0.0260   -2.5628 H   0  0  0  1  0  0  0  0  0  0  0  0
    4.7389   -1.0567   -1.4310 H   0  0  0  1  0  0  0  0  0  0  0  0
    7.3577   -0.4486   -1.1056 H   0  0  0  1  0  0  0  0  0  0  0  0
    6.6487    1.4890    0.8444 H   0  0  0  1  0  0  0  0  0  0  0  0
    7.5576    1.7705   -0.6215 H   0  0  0  1  0  0  0  0  0  0  0  0
    5.0611    2.8363   -0.1222 H   0  0  0  1  0  0  0  0  0  0  0  0
    5.7321    2.6248   -1.7219 H   0  0  0  1  0  0  0  0  0  0  0  0
    5.3732   -0.6696    1.0179 H   0  0  0  1  0  0  0  0  0  0  0  0
    6.9501   -0.7877    1.2634 H   0  0  0  1  0  0  0  0  0  0  0  0
  1  2  4  0  0  0  0
  1  6  4  0  0  0  0
  2  3  4  0  0  0  0
  2 18  1  0  0  0  0
  3  4  4  0  0  0  0
  4  5  4  0  0  0  0
  4  7  4  0  0  0  0
  5  6  4  0  0  0  0
  5  9  4  0  0  0  0
  6 25  1  0  0  0  0
  7  8  4  0  0  0  0
  7 26  1  0  0  0  0
  8  9  4  0  0  0  0
  9 10  1  0  0  0  0
 10 11  4  0  0  0  0
 10 15  4  0  0  0  0
 11 12  4  0  0  0  0
 11 27  1  0  0  0  0
 12 13  4  0  0  0  0
 12 28  1  0  0  0  0
 13 14  4  0  0  0  0
 13 16  1  0  0  0  0
 14 15  4  0  0  0  0
 14 29  1  0  0  0  0
 15 30  1  0  0  0  0
 16 17  1  0  0  0  0
 17 31  1  0  0  0  0
 17 32  1  0  0  0  0
 17 33  1  0  0  0  0
 18 19  1  0  0  0  0
 18 34  1  0  0  0  0
 19 20  1  0  0  0  0
 19 23  1  0  0  0  0
 19 35  1  0  0  0  0
 20 21  1  0  0  0  0
 20 36  1  0  0  0  0
 20 37  1  0  0  0  0
 21 22  1  0  0  0  0
 21 24  1  0  0  0  0
 21 38  1  0  0  0  0
 22 23  1  0  0  0  0
 22 39  1  0  0  0  0
 22 40  1  0  0  0  0
 23 41  1  0  0  0  0
 23 42  1  0  0  0  0
 24 43  1  0  0  0  0
 24 44  1  0  0  0  0
M  END
> <ConfClashScore>
0 

> <ConfOneFourInteractionScore>
-0.984337 

> <ConfScore>
-0.0759361 

> <ConfScorePBest>
0.00441958 

> <ConfTolerance>
0.313507 

$$$$
c13.sdf
 OpenBabel04162418043D

 44 47  0  0  0  0  0  0  0  0999 V2000
    2.4444   -0.5885   -1.6298 N   0  0  0  1  0  0  0  0  0  0  0  0
    2.4355    0.5370   -2.3238 C   0  0  0  1  0  0  0  0  0  0  0  0
    1.5203    0.8005   -3.2282 N   0  0  0  1  0  0  0  0  0  0  0  0
    0.5482   -0.0797   -3.4811 C   0  0  0  1  0  0  0  0  0  0  0  0
    0.5265   -1.2919   -2.7590 C   0  0  0  1  0  0  0  0  0  0  0  0
    1.5219   -1.5171   -1.8128 C   0  0  0  1  0  0  0  0  0  0  0  0
   -0.5561   -0.1088   -4.3607 C   0  0  0  1  0  0  0  0  0  0  0  0
   -1.1945   -1.2322   -4.1939 N   0  0  0  1  0  0  0  0  0  0  0  0
   -0.5570   -1.9978   -3.2088 N   0  0  0  1  0  0  0  0  0  0  0  0
   -1.1247   -3.2164   -2.7852 C   0  0  0  1  0  0  0  0  0  0  0  0
   -0.2697   -4.2812   -2.5717 C   0  0  0  1  0  0  0  0  0  0  0  0
   -0.7743   -5.5011   -2.1493 C   0  0  0  1  0  0  0  0  0  0  0  0
   -2.1330   -5.6544   -1.9468 C   0  0  0  1  0  0  0  0  0  0  0  0
   -2.9903   -4.5864   -2.1610 C   0  0  0  1  0  0  0  0  0  0  0  0
   -2.4873   -3.3699   -2.5821 C   0  0  0  1  0  0  0  0  0  0  0  0
   -2.7399   -6.7951   -1.5415 O   0  0  0  1  0  0  0  0  0  0  0  0
   -1.9102   -7.9547   -1.3698 C   0  0  0  1  0  0  0  0  0  0  0  0
    3.4470    1.4406   -2.0532 N   0  0  0  1  0  0  0  0  0  0  0  0
    4.4245    1.0853   -1.0219 C   0  0  0  1  0  0  0  0  0  0  0  0
    5.2778   -0.1663   -1.4512 C   0  0  0  1  0  0  0  0  0  0  0  0
    6.5290   -0.0133   -0.5279 C   0  0  0  1  0  0  0  0  0  0  0  0
    6.7130    1.4848   -0.2767 C   0  0  0  1  0  0  0  0  0  0  0  0
    5.4887    2.1642   -0.8749 C   0  0  0  1  0  0  0  0  0  0  0  0
    6.3026   -0.7329    0.7748 N   0  0  0  1  0  0  0  0  0  0  0  0
    1.5395   -2.3983   -1.2608 H   0  0  0  1  0  0  0  0  0  0  0  0
   -0.8167    0.6425   -5.0310 H   0  0  0  1  0  0  0  0  0  0  0  0
    0.7521   -4.1670   -2.7279 H   0  0  0  1  0  0  0  0  0  0  0  0
   -0.1306   -6.3012   -1.9848 H   0  0  0  1  0  0  0  0  0  0  0  0
   -4.0122   -4.7005   -2.0047 H   0  0  0  1  0  0  0  0  0  0  0  0
   -3.1310   -2.5698   -2.7467 H   0  0  0  1  0  0  0  0  0  0  0  0
   -1.1973   -7.7719   -0.5931 H   0  0  0  1  0  0  0  0  0  0  0  0
   -1.3952   -8.1630   -2.2843 H   0  0  0  1  0  0  0  0  0  0  0  0
   -2.5197   -8.7930   -1.1041 H   0  0  0  1  0  0  0  0  0  0  0  0
    3.5077    2.2913   -2.5360 H   0  0  0  1  0  0  0  0  0  0  0  0
    3.9186    0.9106   -0.0954 H   0  0  0  1  0  0  0  0  0  0  0  0
    5.5465   -0.1210   -2.4859 H   0  0  0  1  0  0  0  0  0  0  0  0
    4.7571   -1.0807   -1.2572 H   0  0  0  1  0  0  0  0  0  0  0  0
    7.3949   -0.4145   -1.0118 H   0  0  0  1  0  0  0  0  0  0  0  0
    6.7710    1.6812    0.7735 H   0  0  0  1  0  0  0  0  0  0  0  0
    7.6035    1.8353   -0.7553 H   0  0  0  1  0  0  0  0  0  0  0  0
    5.1416    2.9396   -0.2244 H   0  0  0  1  0  0  0  0  0  0  0  0
    5.7275    2.5806   -1.8313 H   0  0  0  1  0  0  0  0  0  0  0  0
    6.3478   -1.7005    0.6261 H   0  0  0  1  0  0  0  0  0  0  0  0
    5.4193   -0.4979    1.1283 H   0  0  0  1  0  0  0  0  0  0  0  0
  1  2  4  0  0  0  0
  1  6  4  0  0  0  0
  2  3  4  0  0  0  0
  2 18  1  0  0  0  0
  3  4  4  0  0  0  0
  4  5  4  0  0  0  0
  4  7  4  0  0  0  0
  5  6  4  0  0  0  0
  5  9  4  0  0  0  0
  6 25  1  0  0  0  0
  7  8  4  0  0  0  0
  7 26  1  0  0  0  0
  8  9  4  0  0  0  0
  9 10  1  0  0  0  0
 10 11  4  0  0  0  0
 10 15  4  0  0  0  0
 11 12  4  0  0  0  0
 11 27  1  0  0  0  0
 12 13  4  0  0  0  0
 12 28  1  0  0  0  0
 13 14  4  0  0  0  0
 13 16  1  0  0  0  0
 14 15  4  0  0  0  0
 14 29  1  0  0  0  0
 15 30  1  0  0  0  0
 16 17  1  0  0  0  0
 17 31  1  0  0  0  0
 17 32  1  0  0  0  0
 17 33  1  0  0  0  0
 18 19  1  0  0  0  0
 18 34  1  0  0  0  0
 19 20  1  0  0  0  0
 19 23  1  0  0  0  0
 19 35  1  0  0  0  0
 20 21  1  0  0  0  0
 20 36  1  0  0  0  0
 20 37  1  0  0  0  0
 21 22  1  0  0  0  0
 21 24  1  0  0  0  0
 21 38  1  0  0  0  0
 22 23  1  0  0  0  0
 22 39  1  0  0  0  0
 22 40  1  0  0  0  0
 23 41  1  0  0  0  0
 23 42  1  0  0  0  0
 24 43  1  0  0  0  0
 24 44  1  0  0  0  0
M  END
> <ConfClashScore>
0 

> <ConfOneFourInteractionScore>
-0.981848 

> <ConfScore>
-0.0753642 

> <ConfScorePBest>
0.00440625 

> <ConfTolerance>
0.23075 

$$$$
c13.sdf
 OpenBabel04162418043D

 44 47  0  0  0  0  0  0  0  0999 V2000
    1.7179    0.1760   -1.3120 N   0  0  0  1  0  0  0  0  0  0  0  0
    2.2092    1.0422   -2.1819 C   0  0  0  1  0  0  0  0  0  0  0  0
    1.4847    1.5599   -3.1473 N   0  0  0  1  0  0  0  0  0  0  0  0
    0.2004    1.2201   -3.2839 C   0  0  0  1  0  0  0  0  0  0  0  0
   -0.3576    0.2980   -2.3730 C   0  0  0  1  0  0  0  0  0  0  0  0
    0.4577   -0.2180   -1.3700 C   0  0  0  1  0  0  0  0  0  0  0  0
   -0.8278    1.5786   -4.1829 C   0  0  0  1  0  0  0  0  0  0  0  0
   -1.9133    0.9373   -3.8546 N   0  0  0  1  0  0  0  0  0  0  0  0
   -1.6670    0.1304   -2.7361 N   0  0  0  1  0  0  0  0  0  0  0  0
   -2.7264   -0.5882   -2.1344 C   0  0  0  1  0  0  0  0  0  0  0  0
   -3.9336   -0.7209   -2.7941 C   0  0  0  1  0  0  0  0  0  0  0  0
   -4.9699   -1.4297   -2.2067 C   0  0  0  1  0  0  0  0  0  0  0  0
   -4.7980   -1.9992   -0.9591 C   0  0  0  1  0  0  0  0  0  0  0  0
   -3.5870   -1.8660   -0.2976 C   0  0  0  1  0  0  0  0  0  0  0  0
   -2.5536   -1.1593   -0.8832 C   0  0  0  1  0  0  0  0  0  0  0  0
   -5.7059   -2.7128   -0.2518 O   0  0  0  1  0  0  0  0  0  0  0  0
   -7.0282   -2.8206   -0.8016 C   0  0  0  1  0  0  0  0  0  0  0  0
    3.4994    1.4078   -2.0752 N   0  0  0  1  0  0  0  0  0  0  0  0
    4.4572    1.0785   -1.0288 C   0  0  0  1  0  0  0  0  0  0  0  0
    5.2588   -0.1627   -1.4114 C   0  0  0  1  0  0  0  0  0  0  0  0
    6.5234   -0.0262   -0.5421 C   0  0  0  1  0  0  0  0  0  0  0  0
    6.7072    1.4645   -0.3044 C   0  0  0  1  0  0  0  0  0  0  0  0
    5.4789    2.1916   -0.8758 C   0  0  0  1  0  0  0  0  0  0  0  0
    6.3402   -0.7404    0.7567 N   0  0  0  1  0  0  0  0  0  0  0  0
    0.0828   -0.8999   -0.6800 H   0  0  0  1  0  0  0  0  0  0  0  0
   -0.7341    2.2447   -4.9761 H   0  0  0  1  0  0  0  0  0  0  0  0
   -4.0644   -0.2890   -3.7310 H   0  0  0  1  0  0  0  0  0  0  0  0
   -5.8770   -1.5329   -2.7048 H   0  0  0  1  0  0  0  0  0  0  0  0
   -3.4562   -2.2979    0.6394 H   0  0  0  1  0  0  0  0  0  0  0  0
   -1.6465   -1.0560   -0.3851 H   0  0  0  1  0  0  0  0  0  0  0  0
   -7.0006   -3.4286   -1.6817 H   0  0  0  1  0  0  0  0  0  0  0  0
   -7.3902   -1.8457   -1.0532 H   0  0  0  1  0  0  0  0  0  0  0  0
   -7.6790   -3.2680   -0.0797 H   0  0  0  1  0  0  0  0  0  0  0  0
    3.8410    1.9721   -2.7999 H   0  0  0  1  0  0  0  0  0  0  0  0
    3.9381    0.9185   -0.1069 H   0  0  0  1  0  0  0  0  0  0  0  0
    4.7219   -1.0575   -1.1744 H   0  0  0  1  0  0  0  0  0  0  0  0
    5.5037   -0.1585   -2.4530 H   0  0  0  1  0  0  0  0  0  0  0  0
    7.3722   -0.4286   -1.0544 H   0  0  0  1  0  0  0  0  0  0  0  0
    6.7876    1.6575    0.7450 H   0  0  0  1  0  0  0  0  0  0  0  0
    7.5929    1.8044   -0.7991 H   0  0  0  1  0  0  0  0  0  0  0  0
    5.1290    2.9432   -0.1994 H   0  0  0  1  0  0  0  0  0  0  0  0
    5.7035    2.6389   -1.8216 H   0  0  0  1  0  0  0  0  0  0  0  0
    6.2810   -1.7050    0.5941 H   0  0  0  1  0  0  0  0  0  0  0  0
    5.5157   -0.4305    1.1862 H   0  0  0  1  0  0  0  0  0  0  0  0
  1  2  4  0  0  0  0
  1  6  4  0  0  0  0
  2  3  4  0  0  0  0
  2 18  1  0  0  0  0
  3  4  4  0  0  0  0
  4  5  4  0  0  0  0
  4  7  4  0  0  0  0
  5  6  4  0  0  0  0
  5  9  4  0  0  0  0
  6 25  1  0  0  0  0
  7  8  4  0  0  0  0
  7 26  1  0  0  0  0
  8  9  4  0  0  0  0
  9 10  1  0  0  0  0
 10 11  4  0  0  0  0
 10 15  4  0  0  0  0
 11 12  4  0  0  0  0
 11 27  1  0  0  0  0
 12 13  4  0  0  0  0
 12 28  1  0  0  0  0
 13 14  4  0  0  0  0
 13 16  1  0  0  0  0
 14 15  4  0  0  0  0
 14 29  1  0  0  0  0
 15 30  1  0  0  0  0
 16 17  1  0  0  0  0
 17 31  1  0  0  0  0
 17 32  1  0  0  0  0
 17 33  1  0  0  0  0
 18 19  1  0  0  0  0
 18 34  1  0  0  0  0
 19 20  1  0  0  0  0
 19 23  1  0  0  0  0
 19 35  1  0  0  0  0
 20 21  1  0  0  0  0
 20 36  1  0  0  0  0
 20 37  1  0  0  0  0
 21 22  1  0  0  0  0
 21 24  1  0  0  0  0
 21 38  1  0  0  0  0
 22 23  1  0  0  0  0
 22 39  1  0  0  0  0
 22 40  1  0  0  0  0
 23 41  1  0  0  0  0
 23 42  1  0  0  0  0
 24 43  1  0  0  0  0
 24 44  1  0  0  0  0
M  END
> <ConfClashScore>
0 

> <ConfOneFourInteractionScore>
-0.984337 

> <ConfScore>
-0.0752448 

> <ConfScorePBest>
0.00439292 

> <ConfTolerance>
0.246507 

$$$$
c13.sdf
 OpenBabel04162418043D

 44 47  0  0  0  0  0  0  0  0999 V2000
    2.6401    1.3144   -4.6038 N   0  0  0  1  0  0  0  0  0  0  0  0
    2.9089    1.0227   -3.3424 C   0  0  0  1  0  0  0  0  0  0  0  0
    2.1239    0.2650   -2.6112 N   0  0  0  1  0  0  0  0  0  0  0  0
    1.0046   -0.2461   -3.1302 C   0  0  0  1  0  0  0  0  0  0  0  0
    0.6860    0.0443   -4.4739 C   0  0  0  1  0  0  0  0  0  0  0  0
    1.5549    0.8529   -5.2006 C   0  0  0  1  0  0  0  0  0  0  0  0
   -0.0280   -1.0726   -2.6355 C   0  0  0  1  0  0  0  0  0  0  0  0
   -0.8973   -1.2703   -3.5856 N   0  0  0  1  0  0  0  0  0  0  0  0
   -0.4939   -0.5951   -4.7450 N   0  0  0  1  0  0  0  0  0  0  0  0
   -1.2779   -0.6528   -5.9324 C   0  0  0  1  0  0  0  0  0  0  0  0
   -1.7445   -1.8692   -6.3939 C   0  0  0  1  0  0  0  0  0  0  0  0
   -2.5122   -1.9247   -7.5467 C   0  0  0  1  0  0  0  0  0  0  0  0
   -2.8066   -0.7644   -8.2377 C   0  0  0  1  0  0  0  0  0  0  0  0
   -2.3385    0.4555   -7.7747 C   0  0  0  1  0  0  0  0  0  0  0  0
   -1.5731    0.5110   -6.6252 C   0  0  0  1  0  0  0  0  0  0  0  0
   -3.4701   -0.8268   -9.4166 O   0  0  0  1  0  0  0  0  0  0  0  0
   -4.1143   -2.0684   -9.7420 C   0  0  0  1  0  0  0  0  0  0  0  0
    4.0050    1.4858   -2.7313 N   0  0  0  1  0  0  0  0  0  0  0  0
    4.4184    1.2042   -1.3526 C   0  0  0  1  0  0  0  0  0  0  0  0
    5.0429   -0.1934   -1.2542 C   0  0  0  1  0  0  0  0  0  0  0  0
    6.4259   -0.0085   -0.6253 C   0  0  0  1  0  0  0  0  0  0  0  0
    6.3929    1.3657    0.0479 C   0  0  0  1  0  0  0  0  0  0  0  0
    5.5223    2.1731   -0.9150 C   0  0  0  1  0  0  0  0  0  0  0  0
    6.6837   -1.0688    0.3769 N   0  0  0  1  0  0  0  0  0  0  0  0
    1.3543    1.0893   -6.1933 H   0  0  0  1  0  0  0  0  0  0  0  0
   -0.0852   -1.4596   -1.6719 H   0  0  0  1  0  0  0  0  0  0  0  0
   -1.5197   -2.7427   -5.8763 H   0  0  0  1  0  0  0  0  0  0  0  0
   -2.8667   -2.8395   -7.8918 H   0  0  0  1  0  0  0  0  0  0  0  0
   -2.5634    1.3291   -8.2923 H   0  0  0  1  0  0  0  0  0  0  0  0
   -1.2186    1.4258   -6.2801 H   0  0  0  1  0  0  0  0  0  0  0  0
   -3.4072   -2.8680   -9.6678 H   0  0  0  1  0  0  0  0  0  0  0  0
   -4.4953   -2.0211  -10.7408 H   0  0  0  1  0  0  0  0  0  0  0  0
   -4.9205   -2.2411   -9.0600 H   0  0  0  1  0  0  0  0  0  0  0  0
    4.5896    2.0711   -3.2567 H   0  0  0  1  0  0  0  0  0  0  0  0
    3.5719    1.2827   -0.7028 H   0  0  0  1  0  0  0  0  0  0  0  0
    5.1350   -0.6263   -2.2284 H   0  0  0  1  0  0  0  0  0  0  0  0
    4.4384   -0.8257   -0.6381 H   0  0  0  1  0  0  0  0  0  0  0  0
    7.1853   -0.0368   -1.3786 H   0  0  0  1  0  0  0  0  0  0  0  0
    7.3749    1.7833    0.1265 H   0  0  0  1  0  0  0  0  0  0  0  0
    5.9491    1.3113    1.0200 H   0  0  0  1  0  0  0  0  0  0  0  0
    5.1023    3.0237   -0.4200 H   0  0  0  1  0  0  0  0  0  0  0  0
    6.0949    2.4975   -1.7587 H   0  0  0  1  0  0  0  0  0  0  0  0
    5.9460   -1.0959    1.0215 H   0  0  0  1  0  0  0  0  0  0  0  0
    7.5215   -0.8764    0.8475 H   0  0  0  1  0  0  0  0  0  0  0  0
  1  2  4  0  0  0  0
  1  6  4  0  0  0  0
  2  3  4  0  0  0  0
  2 18  1  0  0  0  0
  3  4  4  0  0  0  0
  4  5  4  0  0  0  0
  4  7  4  0  0  0  0
  5  6  4  0  0  0  0
  5  9  4  0  0  0  0
  6 25  1  0  0  0  0
  7  8  4  0  0  0  0
  7 26  1  0  0  0  0
  8  9  4  0  0  0  0
  9 10  1  0  0  0  0
 10 11  4  0  0  0  0
 10 15  4  0  0  0  0
 11 12  4  0  0  0  0
 11 27  1  0  0  0  0
 12 13  4  0  0  0  0
 12 28  1  0  0  0  0
 13 14  4  0  0  0  0
 13 16  1  0  0  0  0
 14 15  4  0  0  0  0
 14 29  1  0  0  0  0
 15 30  1  0  0  0  0
 16 17  1  0  0  0  0
 17 31  1  0  0  0  0
 17 32  1  0  0  0  0
 17 33  1  0  0  0  0
 18 19  1  0  0  0  0
 18 34  1  0  0  0  0
 19 20  1  0  0  0  0
 19 23  1  0  0  0  0
 19 35  1  0  0  0  0
 20 21  1  0  0  0  0
 20 36  1  0  0  0  0
 20 37  1  0  0  0  0
 21 22  1  0  0  0  0
 21 24  1  0  0  0  0
 21 38  1  0  0  0  0
 22 23  1  0  0  0  0
 22 39  1  0  0  0  0
 22 40  1  0  0  0  0
 23 41  1  0  0  0  0
 23 42  1  0  0  0  0
 24 43  1  0  0  0  0
 24 44  1  0  0  0  0
M  END
> <ConfClashScore>
0 

> <ConfOneFourInteractionScore>
-0.984337 

> <ConfScore>
-0.0745091 

> <ConfScorePBest>
0.0043796 

> <ConfTolerance>
0.329814 

$$$$
c13.sdf
 OpenBabel04162418043D

 44 47  0  0  0  0  0  0  0  0999 V2000
    3.2290    0.2166   -3.8391 N   0  0  0  1  0  0  0  0  0  0  0  0
    4.3875    0.8058   -4.0823 C   0  0  0  1  0  0  0  0  0  0  0  0
    4.8543    0.9681   -5.2992 N   0  0  0  1  0  0  0  0  0  0  0  0
    4.1581    0.5334   -6.3527 C   0  0  0  1  0  0  0  0  0  0  0  0
    2.9170   -0.1004   -6.1305 C   0  0  0  1  0  0  0  0  0  0  0  0
    2.4724   -0.2448   -4.8196 C   0  0  0  1  0  0  0  0  0  0  0  0
    4.3647    0.5475   -7.7495 C   0  0  0  1  0  0  0  0  0  0  0  0
    3.3471   -0.0233   -8.3290 N   0  0  0  1  0  0  0  0  0  0  0  0
    2.4238   -0.4409   -7.3615 N   0  0  0  1  0  0  0  0  0  0  0  0
    1.2177   -1.0968   -7.7399 C   0  0  0  1  0  0  0  0  0  0  0  0
    0.9626   -2.4146   -7.4106 C   0  0  0  1  0  0  0  0  0  0  0  0
   -0.2670   -2.9788   -7.7127 C   0  0  0  1  0  0  0  0  0  0  0  0
   -1.2360   -2.2252   -8.3480 C   0  0  0  1  0  0  0  0  0  0  0  0
   -0.9799   -0.9035   -8.6782 C   0  0  0  1  0  0  0  0  0  0  0  0
    0.2461   -0.3408   -8.3770 C   0  0  0  1  0  0  0  0  0  0  0  0
   -2.3929   -2.8838   -8.5962 O   0  0  0  1  0  0  0  0  0  0  0  0
   -3.3968   -2.1856   -9.3493 C   0  0  0  1  0  0  0  0  0  0  0  0
    5.0824    1.2411   -3.0097 N   0  0  0  1  0  0  0  0  0  0  0  0
    4.5812    1.1839   -1.6327 C   0  0  0  1  0  0  0  0  0  0  0  0
    4.8663   -0.1870   -1.0095 C   0  0  0  1  0  0  0  0  0  0  0  0
    6.3333   -0.0627   -0.6322 C   0  0  0  1  0  0  0  0  0  0  0  0
    6.4743    1.3692   -0.1050 C   0  0  0  1  0  0  0  0  0  0  0  0
    5.3342    2.1755   -0.7414 C   0  0  0  1  0  0  0  0  0  0  0  0
    6.6885   -1.0448    0.4187 N   0  0  0  1  0  0  0  0  0  0  0  0
    1.5630   -0.7064   -4.6157 H   0  0  0  1  0  0  0  0  0  0  0  0
    5.1926    0.9476   -8.2355 H   0  0  0  1  0  0  0  0  0  0  0  0
    1.6930   -2.9829   -6.9362 H   0  0  0  1  0  0  0  0  0  0  0  0
   -0.4605   -3.9693   -7.4614 H   0  0  0  1  0  0  0  0  0  0  0  0
   -1.7104   -0.3351   -9.1526 H   0  0  0  1  0  0  0  0  0  0  0  0
    0.4396    0.6496   -8.6283 H   0  0  0  1  0  0  0  0  0  0  0  0
   -4.2582   -2.8105   -9.4614 H   0  0  0  1  0  0  0  0  0  0  0  0
   -3.0091   -1.9366  -10.3150 H   0  0  0  1  0  0  0  0  0  0  0  0
   -3.6713   -1.2897   -8.8326 H   0  0  0  1  0  0  0  0  0  0  0  0
    5.9746    1.6176   -3.1603 H   0  0  0  1  0  0  0  0  0  0  0  0
    3.5315    1.3912   -1.6258 H   0  0  0  1  0  0  0  0  0  0  0  0
    4.2561   -0.3564   -0.1470 H   0  0  0  1  0  0  0  0  0  0  0  0
    4.7121   -0.9751   -1.7166 H   0  0  0  1  0  0  0  0  0  0  0  0
    6.9578   -0.2137   -1.4879 H   0  0  0  1  0  0  0  0  0  0  0  0
    7.4212    1.7775   -0.3904 H   0  0  0  1  0  0  0  0  0  0  0  0
    6.3866    1.3817    0.9613 H   0  0  0  1  0  0  0  0  0  0  0  0
    4.6854    2.5664    0.0143 H   0  0  0  1  0  0  0  0  0  0  0  0
    5.7270    2.9807   -1.3266 H   0  0  0  1  0  0  0  0  0  0  0  0
    6.1376   -0.8869    1.2137 H   0  0  0  1  0  0  0  0  0  0  0  0
    7.6350   -0.9450    0.6523 H   0  0  0  1  0  0  0  0  0  0  0  0
  1  2  4  0  0  0  0
  1  6  4  0  0  0  0
  2  3  4  0  0  0  0
  2 18  1  0  0  0  0
  3  4  4  0  0  0  0
  4  5  4  0  0  0  0
  4  7  4  0  0  0  0
  5  6  4  0  0  0  0
  5  9  4  0  0  0  0
  6 25  1  0  0  0  0
  7  8  4  0  0  0  0
  7 26  1  0  0  0  0
  8  9  4  0  0  0  0
  9 10  1  0  0  0  0
 10 11  4  0  0  0  0
 10 15  4  0  0  0  0
 11 12  4  0  0  0  0
 11 27  1  0  0  0  0
 12 13  4  0  0  0  0
 12 28  1  0  0  0  0
 13 14  4  0  0  0  0
 13 16  1  0  0  0  0
 14 15  4  0  0  0  0
 14 29  1  0  0  0  0
 15 30  1  0  0  0  0
 16 17  1  0  0  0  0
 17 31  1  0  0  0  0
 17 32  1  0  0  0  0
 17 33  1  0  0  0  0
 18 19  1  0  0  0  0
 18 34  1  0  0  0  0
 19 20  1  0  0  0  0
 19 23  1  0  0  0  0
 19 35  1  0  0  0  0
 20 21  1  0  0  0  0
 20 36  1  0  0  0  0
 20 37  1  0  0  0  0
 21 22  1  0  0  0  0
 21 24  1  0  0  0  0
 21 38  1  0  0  0  0
 22 23  1  0  0  0  0
 22 39  1  0  0  0  0
 22 40  1  0  0  0  0
 23 41  1  0  0  0  0
 23 42  1  0  0  0  0
 24 43  1  0  0  0  0
 24 44  1  0  0  0  0
M  END
> <ConfClashScore>
0 

> <ConfOneFourInteractionScore>
-0.984337 

> <ConfScore>
-0.0739295 

> <ConfScorePBest>
0.00436627 

> <ConfTolerance>
0.280983 

$$$$
c13.sdf
 OpenBabel04162418043D

 44 47  0  0  0  0  0  0  0  0999 V2000
    2.7356    0.6768   -3.8024 N   0  0  0  1  0  0  0  0  0  0  0  0
    3.9566    1.1370   -4.0163 C   0  0  0  1  0  0  0  0  0  0  0  0
    4.4115    1.3965   -5.2208 N   0  0  0  1  0  0  0  0  0  0  0  0
    3.6378    1.1992   -6.2913 C   0  0  0  1  0  0  0  0  0  0  0  0
    2.3284    0.7088   -6.1006 C   0  0  0  1  0  0  0  0  0  0  0  0
    1.9003    0.4516   -4.8015 C   0  0  0  1  0  0  0  0  0  0  0  0
    3.8107    1.3708   -7.6823 C   0  0  0  1  0  0  0  0  0  0  0  0
    2.7117    1.0191   -8.2872 N   0  0  0  1  0  0  0  0  0  0  0  0
    1.7643    0.6011   -7.3434 N   0  0  0  1  0  0  0  0  0  0  0  0
    0.4543    0.2638   -7.7568 C   0  0  0  1  0  0  0  0  0  0  0  0
   -0.0993   -0.9452   -7.3801 C   0  0  0  1  0  0  0  0  0  0  0  0
   -1.3851   -1.2734   -7.7808 C   0  0  0  1  0  0  0  0  0  0  0  0
   -2.1115   -0.3940   -8.5614 C   0  0  0  1  0  0  0  0  0  0  0  0
   -1.5561    0.8186   -8.9391 C   0  0  0  1  0  0  0  0  0  0  0  0
   -0.2741    1.1460   -8.5397 C   0  0  0  1  0  0  0  0  0  0  0  0
   -3.3691   -0.6561   -8.9901 O   0  0  0  1  0  0  0  0  0  0  0  0
   -3.8989    0.1876  -10.0313 C   0  0  0  1  0  0  0  0  0  0  0  0
    4.8080    1.3675   -3.0105 N   0  0  0  1  0  0  0  0  0  0  0  0
    4.5281    1.2187   -1.5891 C   0  0  0  1  0  0  0  0  0  0  0  0
    4.9339   -0.1779   -1.1058 C   0  0  0  1  0  0  0  0  0  0  0  0
    6.3812   -0.0251   -0.6375 C   0  0  0  1  0  0  0  0  0  0  0  0
    6.3532    1.3426    0.0490 C   0  0  0  1  0  0  0  0  0  0  0  0
    5.3805    2.1953   -0.7690 C   0  0  0  1  0  0  0  0  0  0  0  0
    6.7576   -1.1070    0.3235 N   0  0  0  1  0  0  0  0  0  0  0  0
    0.9423    0.0895   -4.6207 H   0  0  0  1  0  0  0  0  0  0  0  0
    4.6729    1.7202   -8.1471 H   0  0  0  1  0  0  0  0  0  0  0  0
    0.4487   -1.6087   -6.7961 H   0  0  0  1  0  0  0  0  0  0  0  0
   -1.8032   -2.1814   -7.4940 H   0  0  0  1  0  0  0  0  0  0  0  0
   -2.1041    1.4821   -9.5231 H   0  0  0  1  0  0  0  0  0  0  0  0
    0.1441    2.0540   -8.8264 H   0  0  0  1  0  0  0  0  0  0  0  0
   -3.2726    0.1233  -10.8965 H   0  0  0  1  0  0  0  0  0  0  0  0
   -3.9298    1.2006   -9.6881 H   0  0  0  1  0  0  0  0  0  0  0  0
   -4.8878   -0.1348  -10.2825 H   0  0  0  1  0  0  0  0  0  0  0  0
    5.7090    1.6659   -3.2543 H   0  0  0  1  0  0  0  0  0  0  0  0
    3.4870    1.3890   -1.4104 H   0  0  0  1  0  0  0  0  0  0  0  0
    4.8695   -0.8865   -1.9049 H   0  0  0  1  0  0  0  0  0  0  0  0
    4.3079   -0.4933   -0.2974 H   0  0  0  1  0  0  0  0  0  0  0  0
    7.0596   -0.0304   -1.4650 H   0  0  0  1  0  0  0  0  0  0  0  0
    6.0084    1.2470    1.0574 H   0  0  0  1  0  0  0  0  0  0  0  0
    7.3288    1.7821    0.0452 H   0  0  0  1  0  0  0  0  0  0  0  0
    5.9209    2.8505   -1.4198 H   0  0  0  1  0  0  0  0  0  0  0  0
    4.7577    2.7725   -0.1179 H   0  0  0  1  0  0  0  0  0  0  0  0
    6.2205   -1.0219    1.1387 H   0  0  0  1  0  0  0  0  0  0  0  0
    7.7080   -1.0272    0.5489 H   0  0  0  1  0  0  0  0  0  0  0  0
  1  2  4  0  0  0  0
  1  6  4  0  0  0  0
  2  3  4  0  0  0  0
  2 18  1  0  0  0  0
  3  4  4  0  0  0  0
  4  5  4  0  0  0  0
  4  7  4  0  0  0  0
  5  6  4  0  0  0  0
  5  9  4  0  0  0  0
  6 25  1  0  0  0  0
  7  8  4  0  0  0  0
  7 26  1  0  0  0  0
  8  9  4  0  0  0  0
  9 10  1  0  0  0  0
 10 11  4  0  0  0  0
 10 15  4  0  0  0  0
 11 12  4  0  0  0  0
 11 27  1  0  0  0  0
 12 13  4  0  0  0  0
 12 28  1  0  0  0  0
 13 14  4  0  0  0  0
 13 16  1  0  0  0  0
 14 15  4  0  0  0  0
 14 29  1  0  0  0  0
 15 30  1  0  0  0  0
 16 17  1  0  0  0  0
 17 31  1  0  0  0  0
 17 32  1  0  0  0  0
 17 33  1  0  0  0  0
 18 19  1  0  0  0  0
 18 34  1  0  0  0  0
 19 20  1  0  0  0  0
 19 23  1  0  0  0  0
 19 35  1  0  0  0  0
 20 21  1  0  0  0  0
 20 36  1  0  0  0  0
 20 37  1  0  0  0  0
 21 22  1  0  0  0  0
 21 24  1  0  0  0  0
 21 38  1  0  0  0  0
 22 23  1  0  0  0  0
 22 39  1  0  0  0  0
 22 40  1  0  0  0  0
 23 41  1  0  0  0  0
 23 42  1  0  0  0  0
 24 43  1  0  0  0  0
 24 44  1  0  0  0  0
M  END
> <ConfClashScore>
0 

> <ConfOneFourInteractionScore>
-0.984337 

> <ConfScore>
-0.0739295 

> <ConfScorePBest>
0.00435294 

> <ConfTolerance>
0.356808 

$$$$
c13.sdf
 OpenBabel04162418043D

 44 47  0  0  0  0  0  0  0  0999 V2000
    2.4633    1.6403   -3.3854 N   0  0  0  1  0  0  0  0  0  0  0  0
    3.6786    1.4641   -3.8756 C   0  0  0  1  0  0  0  0  0  0  0  0
    3.9317    1.5020   -5.1638 N   0  0  0  1  0  0  0  0  0  0  0  0
    2.9476    1.7246   -6.0387 C   0  0  0  1  0  0  0  0  0  0  0  0
    1.6375    1.9172   -5.5510 C   0  0  0  1  0  0  0  0  0  0  0  0
    1.4285    1.8663   -4.1759 C   0  0  0  1  0  0  0  0  0  0  0  0
    2.8781    1.8249   -7.4455 C   0  0  0  1  0  0  0  0  0  0  0  0
    1.6427    2.0569   -7.7881 N   0  0  0  1  0  0  0  0  0  0  0  0
    0.8378    2.1220   -6.6432 N   0  0  0  1  0  0  0  0  0  0  0  0
   -0.5223    2.4582   -6.7984 C   0  0  0  1  0  0  0  0  0  0  0  0
   -1.2710    1.7057   -7.6835 C   0  0  0  1  0  0  0  0  0  0  0  0
   -2.6148    1.9899   -7.8704 C   0  0  0  1  0  0  0  0  0  0  0  0
   -3.2047    3.0291   -7.1757 C   0  0  0  1  0  0  0  0  0  0  0  0
   -2.4536    3.7837   -6.2880 C   0  0  0  1  0  0  0  0  0  0  0  0
   -1.1137    3.5004   -6.1016 C   0  0  0  1  0  0  0  0  0  0  0  0
   -4.4869    3.3978   -7.2778 O   0  0  0  1  0  0  0  0  0  0  0  0
   -5.4224    2.6971   -8.1647 C   0  0  0  1  0  0  0  0  0  0  0  0
    4.7093    1.2342   -3.0120 N   0  0  0  1  0  0  0  0  0  0  0  0
    4.5044    1.1963   -1.5602 C   0  0  0  1  0  0  0  0  0  0  0  0
    4.8830   -0.1794   -1.0008 C   0  0  0  1  0  0  0  0  0  0  0  0
    6.3596   -0.0563   -0.6242 C   0  0  0  1  0  0  0  0  0  0  0  0
    6.4239    1.3557   -0.0370 C   0  0  0  1  0  0  0  0  0  0  0  0
    5.4396    2.1903   -0.8598 C   0  0  0  1  0  0  0  0  0  0  0  0
    6.7421   -1.0672    0.3734 N   0  0  0  1  0  0  0  0  0  0  0  0
    0.4773    2.0033   -3.7785 H   0  0  0  1  0  0  0  0  0  0  0  0
    3.6806    1.7293   -8.1001 H   0  0  0  1  0  0  0  0  0  0  0  0
   -0.8263    0.9264   -8.2092 H   0  0  0  1  0  0  0  0  0  0  0  0
   -3.1792    1.4212   -8.5334 H   0  0  0  1  0  0  0  0  0  0  0  0
   -2.8983    4.5630   -5.7623 H   0  0  0  1  0  0  0  0  0  0  0  0
   -0.5493    4.0691   -5.4386 H   0  0  0  1  0  0  0  0  0  0  0  0
   -6.4204    3.0257   -7.9625 H   0  0  0  1  0  0  0  0  0  0  0  0
   -5.3529    1.6430   -7.9948 H   0  0  0  1  0  0  0  0  0  0  0  0
   -5.1760    2.9116   -9.1836 H   0  0  0  1  0  0  0  0  0  0  0  0
    5.6099    1.0908   -3.3709 H   0  0  0  1  0  0  0  0  0  0  0  0
    3.4826    1.4228   -1.3377 H   0  0  0  1  0  0  0  0  0  0  0  0
    4.2926   -0.4110   -0.1390 H   0  0  0  1  0  0  0  0  0  0  0  0
    4.7455   -0.9384   -1.7424 H   0  0  0  1  0  0  0  0  0  0  0  0
    6.9887   -0.1479   -1.4849 H   0  0  0  1  0  0  0  0  0  0  0  0
    7.4139    1.7519   -0.1254 H   0  0  0  1  0  0  0  0  0  0  0  0
    6.1341    1.3451    0.9930 H   0  0  0  1  0  0  0  0  0  0  0  0
    4.8778    2.8372   -0.2189 H   0  0  0  1  0  0  0  0  0  0  0  0
    5.9667    2.7751   -1.5845 H   0  0  0  1  0  0  0  0  0  0  0  0
    6.1690   -0.9803    1.1636 H   0  0  0  1  0  0  0  0  0  0  0  0
    7.6777   -0.9327    0.6323 H   0  0  0  1  0  0  0  0  0  0  0  0
  1  2  4  0  0  0  0
  1  6  4  0  0  0  0
  2  3  4  0  0  0  0
  2 18  1  0  0  0  0
  3  4  4  0  0  0  0
  4  5  4  0  0  0  0
  4  7  4  0  0  0  0
  5  6  4  0  0  0  0
  5  9  4  0  0  0  0
  6 25  1  0  0  0  0
  7  8  4  0  0  0  0
  7 26  1  0  0  0  0
  8  9  4  0  0  0  0
  9 10  1  0  0  0  0
 10 11  4  0  0  0  0
 10 15  4  0  0  0  0
 11 12  4  0  0  0  0
 11 27  1  0  0  0  0
 12 13  4  0  0  0  0
 12 28  1  0  0  0  0
 13 14  4  0  0  0  0
 13 16  1  0  0  0  0
 14 15  4  0  0  0  0
 14 29  1  0  0  0  0
 15 30  1  0  0  0  0
 16 17  1  0  0  0  0
 17 31  1  0  0  0  0
 17 32  1  0  0  0  0
 17 33  1  0  0  0  0
 18 19  1  0  0  0  0
 18 34  1  0  0  0  0
 19 20  1  0  0  0  0
 19 23  1  0  0  0  0
 19 35  1  0  0  0  0
 20 21  1  0  0  0  0
 20 36  1  0  0  0  0
 20 37  1  0  0  0  0
 21 22  1  0  0  0  0
 21 24  1  0  0  0  0
 21 38  1  0  0  0  0
 22 23  1  0  0  0  0
 22 39  1  0  0  0  0
 22 40  1  0  0  0  0
 23 41  1  0  0  0  0
 23 42  1  0  0  0  0
 24 43  1  0  0  0  0
 24 44  1  0  0  0  0
M  END
> <ConfClashScore>
0 

> <ConfOneFourInteractionScore>
-0.984337 

> <ConfScore>
-0.0736929 

> <ConfScorePBest>
0.00433961 

> <ConfTolerance>
0.236272 

$$$$
c13.sdf
 OpenBabel04162418043D

 44 47  0  0  0  0  0  0  0  0999 V2000
    3.1004    2.9526   -3.0821 N   0  0  0  1  0  0  0  0  0  0  0  0
    4.1652    2.4211   -3.6582 C   0  0  0  1  0  0  0  0  0  0  0  0
    4.4931    2.6749   -4.9045 N   0  0  0  1  0  0  0  0  0  0  0  0
    3.7447    3.4960   -5.6455 C   0  0  0  1  0  0  0  0  0  0  0  0
    2.6004    4.0815   -5.0630 C   0  0  0  1  0  0  0  0  0  0  0  0
    2.3018    3.7762   -3.7384 C   0  0  0  1  0  0  0  0  0  0  0  0
    3.8122    3.9672   -6.9750 C   0  0  0  1  0  0  0  0  0  0  0  0
    2.8051    4.7658   -7.1876 N   0  0  0  1  0  0  0  0  0  0  0  0
    2.0264    4.8658   -6.0272 N   0  0  0  1  0  0  0  0  0  0  0  0
    0.9237    5.7616   -5.9855 C   0  0  0  1  0  0  0  0  0  0  0  0
    0.9666    6.8723   -5.1642 C   0  0  0  1  0  0  0  0  0  0  0  0
   -0.1067    7.7488   -5.1275 C   0  0  0  1  0  0  0  0  0  0  0  0
   -1.2218    7.5092   -5.9081 C   0  0  0  1  0  0  0  0  0  0  0  0
   -1.2647    6.3950   -6.7318 C   0  0  0  1  0  0  0  0  0  0  0  0
   -0.1946    5.5210   -6.7685 C   0  0  0  1  0  0  0  0  0  0  0  0
   -2.3284    8.2885   -5.9521 O   0  0  0  1  0  0  0  0  0  0  0  0
   -2.2658    9.5556   -5.2790 C   0  0  0  1  0  0  0  0  0  0  0  0
    4.8782    1.6074   -2.8715 N   0  0  0  1  0  0  0  0  0  0  0  0
    4.5395    1.2015   -1.5006 C   0  0  0  1  0  0  0  0  0  0  0  0
    5.0650   -0.2134   -1.1952 C   0  0  0  1  0  0  0  0  0  0  0  0
    6.5088   -0.0546   -0.6034 C   0  0  0  1  0  0  0  0  0  0  0  0
    6.6882    1.4508   -0.4354 C   0  0  0  1  0  0  0  0  0  0  0  0
    5.2917    2.0844   -0.4490 C   0  0  0  1  0  0  0  0  0  0  0  0
    6.6176   -0.7423    0.6999 N   0  0  0  1  0  0  0  0  0  0  0  0
    1.4671    4.1880   -3.2743 H   0  0  0  1  0  0  0  0  0  0  0  0
    4.5449    3.7179   -7.6696 H   0  0  0  1  0  0  0  0  0  0  0  0
    1.8040    7.0506   -4.5738 H   0  0  0  1  0  0  0  0  0  0  0  0
   -0.0728    8.5868   -4.5126 H   0  0  0  1  0  0  0  0  0  0  0  0
   -2.1021    6.2167   -7.3222 H   0  0  0  1  0  0  0  0  0  0  0  0
   -0.2284    4.6830   -7.3834 H   0  0  0  1  0  0  0  0  0  0  0  0
   -1.4683   10.1390   -5.6895 H   0  0  0  1  0  0  0  0  0  0  0  0
   -2.0906    9.3966   -4.2355 H   0  0  0  1  0  0  0  0  0  0  0  0
   -3.1919   10.0752   -5.4106 H   0  0  0  1  0  0  0  0  0  0  0  0
    5.7084    1.2462   -3.2467 H   0  0  0  1  0  0  0  0  0  0  0  0
    3.4799    1.2570   -1.3630 H   0  0  0  1  0  0  0  0  0  0  0  0
    5.0991   -0.7935   -2.0937 H   0  0  0  1  0  0  0  0  0  0  0  0
    4.4280   -0.6951   -0.4831 H   0  0  0  1  0  0  0  0  0  0  0  0
    7.2395   -0.4496   -1.2778 H   0  0  0  1  0  0  0  0  0  0  0  0
    7.2745    1.8411   -1.2409 H   0  0  0  1  0  0  0  0  0  0  0  0
    7.1750    1.6593    0.4944 H   0  0  0  1  0  0  0  0  0  0  0  0
    5.3328    3.1074   -0.7597 H   0  0  0  1  0  0  0  0  0  0  0  0
    4.8278    2.0217    0.5131 H   0  0  0  1  0  0  0  0  0  0  0  0
    6.2474   -1.6465    0.6246 H   0  0  0  1  0  0  0  0  0  0  0  0
    6.1174   -0.2401    1.3767 H   0  0  0  1  0  0  0  0  0  0  0  0
  1  2  4  0  0  0  0
  1  6  4  0  0  0  0
  2  3  4  0  0  0  0
  2 18  1  0  0  0  0
  3  4  4  0  0  0  0
  4  5  4  0  0  0  0
  4  7  4  0  0  0  0
  5  6  4  0  0  0  0
  5  9  4  0  0  0  0
  6 25  1  0  0  0  0
  7  8  4  0  0  0  0
  7 26  1  0  0  0  0
  8  9  4  0  0  0  0
  9 10  1  0  0  0  0
 10 11  4  0  0  0  0
 10 15  4  0  0  0  0
 11 12  4  0  0  0  0
 11 27  1  0  0  0  0
 12 13  4  0  0  0  0
 12 28  1  0  0  0  0
 13 14  4  0  0  0  0
 13 16  1  0  0  0  0
 14 15  4  0  0  0  0
 14 29  1  0  0  0  0
 15 30  1  0  0  0  0
 16 17  1  0  0  0  0
 17 31  1  0  0  0  0
 17 32  1  0  0  0  0
 17 33  1  0  0  0  0
 18 19  1  0  0  0  0
 18 34  1  0  0  0  0
 19 20  1  0  0  0  0
 19 23  1  0  0  0  0
 19 35  1  0  0  0  0
 20 21  1  0  0  0  0
 20 36  1  0  0  0  0
 20 37  1  0  0  0  0
 21 22  1  0  0  0  0
 21 24  1  0  0  0  0
 21 38  1  0  0  0  0
 22 23  1  0  0  0  0
 22 39  1  0  0  0  0
 22 40  1  0  0  0  0
 23 41  1  0  0  0  0
 23 42  1  0  0  0  0
 24 43  1  0  0  0  0
 24 44  1  0  0  0  0
M  END
> <ConfClashScore>
0 

> <ConfOneFourInteractionScore>
-0.984337 

> <ConfScore>
-0.0731468 

> <ConfScorePBest>
0.00432628 

> <ConfTolerance>
0.255364 

$$$$
c13.sdf
 OpenBabel04162418043D

 44 47  0  0  0  0  0  0  0  0999 V2000
    4.5655    3.6673   -2.9098 N   0  0  0  1  0  0  0  0  0  0  0  0
    4.8757    2.5955   -3.6193 C   0  0  0  1  0  0  0  0  0  0  0  0
    5.1972    2.6606   -4.8911 N   0  0  0  1  0  0  0  0  0  0  0  0
    5.2214    3.8375   -5.5218 C   0  0  0  1  0  0  0  0  0  0  0  0
    4.8959    5.0028   -4.7954 C   0  0  0  1  0  0  0  0  0  0  0  0
    4.5630    4.8734   -3.4503 C   0  0  0  1  0  0  0  0  0  0  0  0
    5.5144    4.2475   -6.8409 C   0  0  0  1  0  0  0  0  0  0  0  0
    5.3812    5.5413   -6.9165 N   0  0  0  1  0  0  0  0  0  0  0  0
    4.9981    6.0519   -5.6693 N   0  0  0  1  0  0  0  0  0  0  0  0
    4.6828    7.4118   -5.4743 C   0  0  0  1  0  0  0  0  0  0  0  0
    3.7292    7.8274   -4.5643 C   0  0  0  1  0  0  0  0  0  0  0  0
    3.4622    9.1787   -4.4089 C   0  0  0  1  0  0  0  0  0  0  0  0
    4.1456   10.1101   -5.1677 C   0  0  0  1  0  0  0  0  0  0  0  0
    5.1020    9.6930   -6.0804 C   0  0  0  1  0  0  0  0  0  0  0  0
    5.3683    8.3457   -6.2354 C   0  0  0  1  0  0  0  0  0  0  0  0
    3.9675   11.4512   -5.1073 O   0  0  0  1  0  0  0  0  0  0  0  0
    3.0230   11.9451   -4.1449 C   0  0  0  1  0  0  0  0  0  0  0  0
    4.8617    1.3757   -3.0087 N   0  0  0  1  0  0  0  0  0  0  0  0
    4.5427    1.2306   -1.5876 C   0  0  0  1  0  0  0  0  0  0  0  0
    4.8986   -0.2110   -1.1011 C   0  0  0  1  0  0  0  0  0  0  0  0
    6.3934   -0.0207   -0.6447 C   0  0  0  1  0  0  0  0  0  0  0  0
    6.3474    1.3342    0.0484 C   0  0  0  1  0  0  0  0  0  0  0  0
    5.3872    2.1990   -0.7569 C   0  0  0  1  0  0  0  0  0  0  0  0
    6.8105   -1.0939    0.2964 N   0  0  0  1  0  0  0  0  0  0  0  0
    4.3172    5.7089   -2.8819 H   0  0  0  1  0  0  0  0  0  0  0  0
    5.7908    3.6202   -7.6230 H   0  0  0  1  0  0  0  0  0  0  0  0
    3.2121    7.1264   -3.9962 H   0  0  0  1  0  0  0  0  0  0  0  0
    2.7475    9.4918   -3.7213 H   0  0  0  1  0  0  0  0  0  0  0  0
    5.6191   10.3940   -6.6485 H   0  0  0  1  0  0  0  0  0  0  0  0
    6.0830    8.0326   -6.9230 H   0  0  0  1  0  0  0  0  0  0  0  0
    3.0667   13.0138   -4.1174 H   0  0  0  1  0  0  0  0  0  0  0  0
    3.2615   11.5536   -3.1780 H   0  0  0  1  0  0  0  0  0  0  0  0
    2.0369   11.6357   -4.4221 H   0  0  0  1  0  0  0  0  0  0  0  0
    5.0706    0.5759   -3.5352 H   0  0  0  1  0  0  0  0  0  0  0  0
    3.5017    1.4246   -1.4336 H   0  0  0  1  0  0  0  0  0  0  0  0
    4.8192   -0.9233   -1.8956 H   0  0  0  1  0  0  0  0  0  0  0  0
    4.2756   -0.5143   -0.2858 H   0  0  0  1  0  0  0  0  0  0  0  0
    7.0563   -0.0046   -1.4845 H   0  0  0  1  0  0  0  0  0  0  0  0
    5.9926    1.2241    1.0518 H   0  0  0  1  0  0  0  0  0  0  0  0
    7.3216    1.7764    0.0604 H   0  0  0  1  0  0  0  0  0  0  0  0
    5.9315    2.8611   -1.3975 H   0  0  0  1  0  0  0  0  0  0  0  0
    4.7623    2.7694   -0.1019 H   0  0  0  1  0  0  0  0  0  0  0  0
    6.1915   -1.1220    1.0557 H   0  0  0  1  0  0  0  0  0  0  0  0
    7.7167   -0.9096    0.6208 H   0  0  0  1  0  0  0  0  0  0  0  0
  1  2  4  0  0  0  0
  1  6  4  0  0  0  0
  2  3  4  0  0  0  0
  2 18  1  0  0  0  0
  3  4  4  0  0  0  0
  4  5  4  0  0  0  0
  4  7  4  0  0  0  0
  5  6  4  0  0  0  0
  5  9  4  0  0  0  0
  6 25  1  0  0  0  0
  7  8  4  0  0  0  0
  7 26  1  0  0  0  0
  8  9  4  0  0  0  0
  9 10  1  0  0  0  0
 10 11  4  0  0  0  0
 10 15  4  0  0  0  0
 11 12  4  0  0  0  0
 11 27  1  0  0  0  0
 12 13  4  0  0  0  0
 12 28  1  0  0  0  0
 13 14  4  0  0  0  0
 13 16  1  0  0  0  0
 14 15  4  0  0  0  0
 14 29  1  0  0  0  0
 15 30  1  0  0  0  0
 16 17  1  0  0  0  0
 17 31  1  0  0  0  0
 17 32  1  0  0  0  0
 17 33  1  0  0  0  0
 18 19  1  0  0  0  0
 18 34  1  0  0  0  0
 19 20  1  0  0  0  0
 19 23  1  0  0  0  0
 19 35  1  0  0  0  0
 20 21  1  0  0  0  0
 20 36  1  0  0  0  0
 20 37  1  0  0  0  0
 21 22  1  0  0  0  0
 21 24  1  0  0  0  0
 21 38  1  0  0  0  0
 22 23  1  0  0  0  0
 22 39  1  0  0  0  0
 22 40  1  0  0  0  0
 23 41  1  0  0  0  0
 23 42  1  0  0  0  0
 24 43  1  0  0  0  0
 24 44  1  0  0  0  0
M  END
> <ConfClashScore>
0 

> <ConfOneFourInteractionScore>
-0.985399 

> <ConfScore>
-0.0725916 

> <ConfScorePBest>
0.00431295 

> <ConfTolerance>
0.235765 

$$$$
c13.sdf
 OpenBabel04162418043D

 44 47  0  0  0  0  0  0  0  0999 V2000
    4.0041    2.4636   -4.9044 N   0  0  0  1  0  0  0  0  0  0  0  0
    3.8279    2.1772   -3.6256 C   0  0  0  1  0  0  0  0  0  0  0  0
    2.6705    2.3258   -3.0227 N   0  0  0  1  0  0  0  0  0  0  0  0
    1.6117    2.7811   -3.6973 C   0  0  0  1  0  0  0  0  0  0  0  0
    1.7632    3.0969   -5.0643 C   0  0  0  1  0  0  0  0  0  0  0  0
    3.0130    2.9195   -5.6504 C   0  0  0  1  0  0  0  0  0  0  0  0
    0.2662    3.0494   -3.3632 C   0  0  0  1  0  0  0  0  0  0  0  0
   -0.3491    3.4881   -4.4245 N   0  0  0  1  0  0  0  0  0  0  0  0
    0.5425    3.5338   -5.5042 N   0  0  0  1  0  0  0  0  0  0  0  0
    0.0761    3.9811   -6.7493 C   0  0  0  1  0  0  0  0  0  0  0  0
    1.0558    4.3438   -7.6541 C   0  0  0  1  0  0  0  0  0  0  0  0
    0.7009    4.7947   -8.9160 C   0  0  0  1  0  0  0  0  0  0  0  0
   -0.6326    4.8868   -9.2674 C   0  0  0  1  0  0  0  0  0  0  0  0
   -1.6151    4.5230   -8.3596 C   0  0  0  1  0  0  0  0  0  0  0  0
   -1.2614    4.0734   -7.1015 C   0  0  0  1  0  0  0  0  0  0  0  0
   -1.0987    5.3163  -10.4641 O   0  0  0  1  0  0  0  0  0  0  0  0
   -0.1272    5.6000  -11.4831 C   0  0  0  1  0  0  0  0  0  0  0  0
    4.8597    1.6997   -2.8381 N   0  0  0  1  0  0  0  0  0  0  0  0
    4.5242    1.2110   -1.4744 C   0  0  0  1  0  0  0  0  0  0  0  0
    5.0966   -0.1982   -1.2338 C   0  0  0  1  0  0  0  0  0  0  0  0
    6.5310   -0.0187   -0.6252 C   0  0  0  1  0  0  0  0  0  0  0  0
    6.6575    1.4820   -0.3837 C   0  0  0  1  0  0  0  0  0  0  0  0
    5.2400    2.0673   -0.3765 C   0  0  0  1  0  0  0  0  0  0  0  0
    6.6559   -0.7601    0.6370 N   0  0  0  1  0  0  0  0  0  0  0  0
    3.1639    3.1412   -6.6552 H   0  0  0  1  0  0  0  0  0  0  0  0
   -0.1628    2.9185   -2.4249 H   0  0  0  1  0  0  0  0  0  0  0  0
    2.0591    4.2783   -7.3884 H   0  0  0  1  0  0  0  0  0  0  0  0
    1.4382    5.0638   -9.5983 H   0  0  0  1  0  0  0  0  0  0  0  0
   -2.6185    4.5885   -8.6254 H   0  0  0  1  0  0  0  0  0  0  0  0
   -1.9987    3.8043   -6.4191 H   0  0  0  1  0  0  0  0  0  0  0  0
    0.6676    6.1827  -11.0665 H   0  0  0  1  0  0  0  0  0  0  0  0
   -0.5923    6.1471  -12.2764 H   0  0  0  1  0  0  0  0  0  0  0  0
    0.2667    4.6817  -11.8656 H   0  0  0  1  0  0  0  0  0  0  0  0
    5.7823    1.6840   -3.1682 H   0  0  0  1  0  0  0  0  0  0  0  0
    3.4626    1.2235   -1.3416 H   0  0  0  1  0  0  0  0  0  0  0  0
    5.1554   -0.7327   -2.1589 H   0  0  0  1  0  0  0  0  0  0  0  0
    4.4730   -0.7352   -0.5500 H   0  0  0  1  0  0  0  0  0  0  0  0
    7.2784   -0.3555   -1.3127 H   0  0  0  1  0  0  0  0  0  0  0  0
    7.2341    1.9306   -1.1655 H   0  0  0  1  0  0  0  0  0  0  0  0
    7.1319    1.6619    0.5583 H   0  0  0  1  0  0  0  0  0  0  0  0
    4.7735    1.9424    0.5783 H   0  0  0  1  0  0  0  0  0  0  0  0
    5.2473    3.1050   -0.6374 H   0  0  0  1  0  0  0  0  0  0  0  0
    6.4845   -1.7115    0.4760 H   0  0  0  1  0  0  0  0  0  0  0  0
    6.0049   -0.4160    1.2836 H   0  0  0  1  0  0  0  0  0  0  0  0
  1  2  4  0  0  0  0
  1  6  4  0  0  0  0
  2  3  4  0  0  0  0
  2 18  1  0  0  0  0
  3  4  4  0  0  0  0
  4  5  4  0  0  0  0
  4  7  4  0  0  0  0
  5  6  4  0  0  0  0
  5  9  4  0  0  0  0
  6 25  1  0  0  0  0
  7  8  4  0  0  0  0
  7 26  1  0  0  0  0
  8  9  4  0  0  0  0
  9 10  1  0  0  0  0
 10 11  4  0  0  0  0
 10 15  4  0  0  0  0
 11 12  4  0  0  0  0
 11 27  1  0  0  0  0
 12 13  4  0  0  0  0
 12 28  1  0  0  0  0
 13 14  4  0  0  0  0
 13 16  1  0  0  0  0
 14 15  4  0  0  0  0
 14 29  1  0  0  0  0
 15 30  1  0  0  0  0
 16 17  1  0  0  0  0
 17 31  1  0  0  0  0
 17 32  1  0  0  0  0
 17 33  1  0  0  0  0
 18 19  1  0  0  0  0
 18 34  1  0  0  0  0
 19 20  1  0  0  0  0
 19 23  1  0  0  0  0
 19 35  1  0  0  0  0
 20 21  1  0  0  0  0
 20 36  1  0  0  0  0
 20 37  1  0  0  0  0
 21 22  1  0  0  0  0
 21 24  1  0  0  0  0
 21 38  1  0  0  0  0
 22 23  1  0  0  0  0
 22 39  1  0  0  0  0
 22 40  1  0  0  0  0
 23 41  1  0  0  0  0
 23 42  1  0  0  0  0
 24 43  1  0  0  0  0
 24 44  1  0  0  0  0
M  END
> <ConfClashScore>
0 

> <ConfOneFourInteractionScore>
-0.984337 

> <ConfScore>
-0.0720383 

> <ConfScorePBest>
0.00429963 

> <ConfTolerance>
0.33207 

$$$$
c13.sdf
 OpenBabel04162418043D

 44 47  0  0  0  0  0  0  0  0999 V2000
    1.7582    2.0054   -0.6379 N   0  0  0  1  0  0  0  0  0  0  0  0
    2.2473    1.8919   -1.8611 C   0  0  0  1  0  0  0  0  0  0  0  0
    1.5634    2.2347   -2.9287 N   0  0  0  1  0  0  0  0  0  0  0  0
    0.3247    2.7195   -2.8097 C   0  0  0  1  0  0  0  0  0  0  0  0
   -0.2295    2.8545   -1.5189 C   0  0  0  1  0  0  0  0  0  0  0  0
    0.5416    2.4752   -0.4242 C   0  0  0  1  0  0  0  0  0  0  0  0
   -0.6539    3.1693   -3.7230 C   0  0  0  1  0  0  0  0  0  0  0  0
   -1.7081    3.5445   -3.0558 N   0  0  0  1  0  0  0  0  0  0  0  0
   -1.4887    3.3663   -1.6836 N   0  0  0  1  0  0  0  0  0  0  0  0
   -2.4850    3.7004   -0.7441 C   0  0  0  1  0  0  0  0  0  0  0  0
   -2.5603    4.9495   -0.1575 C   0  0  0  1  0  0  0  0  0  0  0  0
   -3.5646    5.2262    0.7570 C   0  0  0  1  0  0  0  0  0  0  0  0
   -4.4875    4.2514    1.0862 C   0  0  0  1  0  0  0  0  0  0  0  0
   -4.4118    2.9986    0.4978 C   0  0  0  1  0  0  0  0  0  0  0  0
   -3.4104    2.7225   -0.4140 C   0  0  0  1  0  0  0  0  0  0  0  0
   -5.4908    4.4008    1.9535 O   0  0  0  1  0  0  0  0  0  0  0  0
   -5.6165    5.6780    2.5980 C   0  0  0  1  0  0  0  0  0  0  0  0
    3.4892    1.4129   -2.0879 N   0  0  0  1  0  0  0  0  0  0  0  0
    4.4300    1.0713   -1.0352 C   0  0  0  1  0  0  0  0  0  0  0  0
    5.2810   -0.1381   -1.4227 C   0  0  0  1  0  0  0  0  0  0  0  0
    6.5323   -0.0356   -0.5437 C   0  0  0  1  0  0  0  0  0  0  0  0
    6.7114    1.4623   -0.2662 C   0  0  0  1  0  0  0  0  0  0  0  0
    5.4873    2.1640   -0.8593 C   0  0  0  1  0  0  0  0  0  0  0  0
    6.3391   -0.7743    0.7168 N   0  0  0  1  0  0  0  0  0  0  0  0
    0.1679    2.5598    0.5427 H   0  0  0  1  0  0  0  0  0  0  0  0
   -0.5502    3.1965   -4.7574 H   0  0  0  1  0  0  0  0  0  0  0  0
   -1.8635    5.6818   -0.4022 H   0  0  0  1  0  0  0  0  0  0  0  0
   -3.6237    6.1675    1.1954 H   0  0  0  1  0  0  0  0  0  0  0  0
   -5.1086    2.2663    0.7425 H   0  0  0  1  0  0  0  0  0  0  0  0
   -3.3513    1.7813   -0.8524 H   0  0  0  1  0  0  0  0  0  0  0  0
   -4.8311    5.7951    3.3151 H   0  0  0  1  0  0  0  0  0  0  0  0
   -6.5631    5.7356    3.0936 H   0  0  0  1  0  0  0  0  0  0  0  0
   -5.5491    6.4550    1.8654 H   0  0  0  1  0  0  0  0  0  0  0  0
    3.7726    1.2883   -3.0177 H   0  0  0  1  0  0  0  0  0  0  0  0
    3.8978    0.8956   -0.1237 H   0  0  0  1  0  0  0  0  0  0  0  0
    5.5443   -0.0969   -2.4590 H   0  0  0  1  0  0  0  0  0  0  0  0
    4.7546   -1.0482   -1.2239 H   0  0  0  1  0  0  0  0  0  0  0  0
    7.3850   -0.4256   -1.0591 H   0  0  0  1  0  0  0  0  0  0  0  0
    6.7639    1.6391    0.7878 H   0  0  0  1  0  0  0  0  0  0  0  0
    7.6049    1.8204   -0.7333 H   0  0  0  1  0  0  0  0  0  0  0  0
    5.7305    2.6036   -1.8040 H   0  0  0  1  0  0  0  0  0  0  0  0
    5.1328    2.9225   -0.1931 H   0  0  0  1  0  0  0  0  0  0  0  0
    6.1213   -1.7089    0.5182 H   0  0  0  1  0  0  0  0  0  0  0  0
    5.6051   -0.3686    1.2237 H   0  0  0  1  0  0  0  0  0  0  0  0
  1  2  4  0  0  0  0
  1  6  4  0  0  0  0
  2  3  4  0  0  0  0
  2 18  1  0  0  0  0
  3  4  4  0  0  0  0
  4  5  4  0  0  0  0
  4  7  4  0  0  0  0
  5  6  4  0  0  0  0
  5  9  4  0  0  0  0
  6 25  1  0  0  0  0
  7  8  4  0  0  0  0
  7 26  1  0  0  0  0
  8  9  4  0  0  0  0
  9 10  1  0  0  0  0
 10 11  4  0  0  0  0
 10 15  4  0  0  0  0
 11 12  4  0  0  0  0
 11 27  1  0  0  0  0
 12 13  4  0  0  0  0
 12 28  1  0  0  0  0
 13 14  4  0  0  0  0
 13 16  1  0  0  0  0
 14 15  4  0  0  0  0
 14 29  1  0  0  0  0
 15 30  1  0  0  0  0
 16 17  1  0  0  0  0
 17 31  1  0  0  0  0
 17 32  1  0  0  0  0
 17 33  1  0  0  0  0
 18 19  1  0  0  0  0
 18 34  1  0  0  0  0
 19 20  1  0  0  0  0
 19 23  1  0  0  0  0
 19 35  1  0  0  0  0
 20 21  1  0  0  0  0
 20 36  1  0  0  0  0
 20 37  1  0  0  0  0
 21 22  1  0  0  0  0
 21 24  1  0  0  0  0
 21 38  1  0  0  0  0
 22 23  1  0  0  0  0
 22 39  1  0  0  0  0
 22 40  1  0  0  0  0
 23 41  1  0  0  0  0
 23 42  1  0  0  0  0
 24 43  1  0  0  0  0
 24 44  1  0  0  0  0
M  END
> <ConfClashScore>
0 

> <ConfOneFourInteractionScore>
-0.990106 

> <ConfScore>
-0.0699762 

> <ConfScorePBest>
0.0042863 

> <ConfTolerance>
0.262408 

$$$$
c13.sdf
 OpenBabel04162418043D

 44 47  0  0  0  0  0  0  0  0999 V2000
    2.0356    2.4078   -3.6043 N   0  0  0  1  0  0  0  0  0  0  0  0
    2.4474    1.7321   -2.5450 C   0  0  0  1  0  0  0  0  0  0  0  0
    1.6143    1.1643   -1.7032 N   0  0  0  1  0  0  0  0  0  0  0  0
    0.2957    1.2536   -1.8949 C   0  0  0  1  0  0  0  0  0  0  0  0
   -0.1797    1.9674   -3.0156 C   0  0  0  1  0  0  0  0  0  0  0  0
    0.7494    2.5483   -3.8737 C   0  0  0  1  0  0  0  0  0  0  0  0
   -0.8393    0.7757   -1.2040 C   0  0  0  1  0  0  0  0  0  0  0  0
   -1.9093    1.1598   -1.8405 N   0  0  0  1  0  0  0  0  0  0  0  0
   -1.5466    1.9027   -2.9717 N   0  0  0  1  0  0  0  0  0  0  0  0
   -2.5291    2.4340   -3.8315 C   0  0  0  1  0  0  0  0  0  0  0  0
   -3.7705    1.8472   -3.9890 C   0  0  0  1  0  0  0  0  0  0  0  0
   -4.7019    2.4152   -4.8443 C   0  0  0  1  0  0  0  0  0  0  0  0
   -4.3873    3.5651   -5.5436 C   0  0  0  1  0  0  0  0  0  0  0  0
   -3.1421    4.1535   -5.3854 C   0  0  0  1  0  0  0  0  0  0  0  0
   -2.2134    3.5873   -4.5327 C   0  0  0  1  0  0  0  0  0  0  0  0
   -5.3727    4.0239   -6.3512 O   0  0  0  1  0  0  0  0  0  0  0  0
   -5.1122    5.2318   -7.0832 C   0  0  0  1  0  0  0  0  0  0  0  0
    3.7689    1.6212   -2.3198 N   0  0  0  1  0  0  0  0  0  0  0  0
    4.4034    0.9993   -1.1565 C   0  0  0  1  0  0  0  0  0  0  0  0
    5.2999   -0.1627   -1.5932 C   0  0  0  1  0  0  0  0  0  0  0  0
    6.4846   -0.1208   -0.6219 C   0  0  0  1  0  0  0  0  0  0  0  0
    6.7368    1.3727   -0.4965 C   0  0  0  1  0  0  0  0  0  0  0  0
    5.3376    1.9965   -0.4581 C   0  0  0  1  0  0  0  0  0  0  0  0
    6.1295   -0.7182    0.6861 N   0  0  0  1  0  0  0  0  0  0  0  0
    0.4377    3.0822   -4.7100 H   0  0  0  1  0  0  0  0  0  0  0  0
   -0.8238    0.2104   -0.3312 H   0  0  0  1  0  0  0  0  0  0  0  0
   -4.0059    0.9797   -3.4659 H   0  0  0  1  0  0  0  0  0  0  0  0
   -5.6374    1.9759   -4.9598 H   0  0  0  1  0  0  0  0  0  0  0  0
   -2.9068    5.0210   -5.9085 H   0  0  0  1  0  0  0  0  0  0  0  0
   -1.2778    4.0265   -4.4171 H   0  0  0  1  0  0  0  0  0  0  0  0
   -4.2910    5.0747   -7.7509 H   0  0  0  1  0  0  0  0  0  0  0  0
   -4.8699    6.0179   -6.3990 H   0  0  0  1  0  0  0  0  0  0  0  0
   -5.9816    5.5026   -7.6451 H   0  0  0  1  0  0  0  0  0  0  0  0
    4.3659    1.9936   -3.0019 H   0  0  0  1  0  0  0  0  0  0  0  0
    3.6494    0.6559   -0.4794 H   0  0  0  1  0  0  0  0  0  0  0  0
    4.7781   -1.0934   -1.5130 H   0  0  0  1  0  0  0  0  0  0  0  0
    5.6324   -0.0253   -2.6009 H   0  0  0  1  0  0  0  0  0  0  0  0
    7.3367   -0.6264   -1.0259 H   0  0  0  1  0  0  0  0  0  0  0  0
    7.2730    1.5913    0.4032 H   0  0  0  1  0  0  0  0  0  0  0  0
    7.2891    1.7348   -1.3384 H   0  0  0  1  0  0  0  0  0  0  0  0
    5.0273    2.1482    0.5546 H   0  0  0  1  0  0  0  0  0  0  0  0
    5.3348    2.9325   -0.9765 H   0  0  0  1  0  0  0  0  0  0  0  0
    5.4128   -0.1943    1.1013 H   0  0  0  1  0  0  0  0  0  0  0  0
    6.9162   -0.7158    1.2705 H   0  0  0  1  0  0  0  0  0  0  0  0
  1  2  4  0  0  0  0
  1  6  4  0  0  0  0
  2  3  4  0  0  0  0
  2 18  1  0  0  0  0
  3  4  4  0  0  0  0
  4  5  4  0  0  0  0
  4  7  4  0  0  0  0
  5  6  4  0  0  0  0
  5  9  4  0  0  0  0
  6 25  1  0  0  0  0
  7  8  4  0  0  0  0
  7 26  1  0  0  0  0
  8  9  4  0  0  0  0
  9 10  1  0  0  0  0
 10 11  4  0  0  0  0
 10 15  4  0  0  0  0
 11 12  4  0  0  0  0
 11 27  1  0  0  0  0
 12 13  4  0  0  0  0
 12 28  1  0  0  0  0
 13 14  4  0  0  0  0
 13 16  1  0  0  0  0
 14 15  4  0  0  0  0
 14 29  1  0  0  0  0
 15 30  1  0  0  0  0
 16 17  1  0  0  0  0
 17 31  1  0  0  0  0
 17 32  1  0  0  0  0
 17 33  1  0  0  0  0
 18 19  1  0  0  0  0
 18 34  1  0  0  0  0
 19 20  1  0  0  0  0
 19 23  1  0  0  0  0
 19 35  1  0  0  0  0
 20 21  1  0  0  0  0
 20 36  1  0  0  0  0
 20 37  1  0  0  0  0
 21 22  1  0  0  0  0
 21 24  1  0  0  0  0
 21 38  1  0  0  0  0
 22 23  1  0  0  0  0
 22 39  1  0  0  0  0
 22 40  1  0  0  0  0
 23 41  1  0  0  0  0
 23 42  1  0  0  0  0
 24 43  1  0  0  0  0
 24 44  1  0  0  0  0
M  END
> <ConfClashScore>
0 

> <ConfOneFourInteractionScore>
-0.984337 

> <ConfScore>
-0.0690358 

> <ConfScorePBest>
0.00427297 

> <ConfTolerance>
0.322153 

$$$$
c13.sdf
 OpenBabel04162418043D

 44 47  0  0  0  0  0  0  0  0999 V2000
    2.4662   -0.6416   -2.1904 N   0  0  0  1  0  0  0  0  0  0  0  0
    2.5669    0.5963   -2.6441 C   0  0  0  1  0  0  0  0  0  0  0  0
    1.8050    1.0577   -3.6092 N   0  0  0  1  0  0  0  0  0  0  0  0
    0.8840    0.2737   -4.1754 C   0  0  0  1  0  0  0  0  0  0  0  0
    0.7485   -1.0538   -3.7161 C   0  0  0  1  0  0  0  0  0  0  0  0
    1.5832   -1.4882   -2.6907 C   0  0  0  1  0  0  0  0  0  0  0  0
   -0.0688    0.4492   -5.2027 C   0  0  0  1  0  0  0  0  0  0  0  0
   -0.7262   -0.6647   -5.3587 N   0  0  0  1  0  0  0  0  0  0  0  0
   -0.2515   -1.6254   -4.4561 N   0  0  0  1  0  0  0  0  0  0  0  0
   -0.9247   -2.8645   -4.3455 C   0  0  0  1  0  0  0  0  0  0  0  0
   -1.5874   -3.1318   -3.1624 C   0  0  0  1  0  0  0  0  0  0  0  0
   -2.1895   -4.3652   -2.9689 C   0  0  0  1  0  0  0  0  0  0  0  0
   -2.1227   -5.3297   -3.9567 C   0  0  0  1  0  0  0  0  0  0  0  0
   -1.4580   -5.0614   -5.1432 C   0  0  0  1  0  0  0  0  0  0  0  0
   -0.8575   -3.8316   -5.3363 C   0  0  0  1  0  0  0  0  0  0  0  0
   -2.7421   -6.4950   -3.6529 O   0  0  0  1  0  0  0  0  0  0  0  0
   -2.6975   -7.5383   -4.6387 C   0  0  0  1  0  0  0  0  0  0  0  0
    3.4838    1.4149   -2.0975 N   0  0  0  1  0  0  0  0  0  0  0  0
    4.4295    1.0739   -1.0352 C   0  0  0  1  0  0  0  0  0  0  0  0
    5.2802   -0.1374   -1.4175 C   0  0  0  1  0  0  0  0  0  0  0  0
    6.5304   -0.0328   -0.5371 C   0  0  0  1  0  0  0  0  0  0  0  0
    6.7100    1.4660   -0.2643 C   0  0  0  1  0  0  0  0  0  0  0  0
    5.4873    2.1665   -0.8614 C   0  0  0  1  0  0  0  0  0  0  0  0
    6.3357   -0.7647    0.7213 N   0  0  0  1  0  0  0  0  0  0  0  0
    1.5136   -2.4594   -2.3255 H   0  0  0  1  0  0  0  0  0  0  0  0
   -0.2207    1.3234   -5.7452 H   0  0  0  1  0  0  0  0  0  0  0  0
   -1.6343   -2.4075   -2.4175 H   0  0  0  1  0  0  0  0  0  0  0  0
   -2.6917   -4.5650   -2.0803 H   0  0  0  1  0  0  0  0  0  0  0  0
   -1.4111   -5.7857   -5.8881 H   0  0  0  1  0  0  0  0  0  0  0  0
   -0.3554   -3.6318   -6.2248 H   0  0  0  1  0  0  0  0  0  0  0  0
   -1.7165   -7.9648   -4.6633 H   0  0  0  1  0  0  0  0  0  0  0  0
   -2.9331   -7.1309   -5.5997 H   0  0  0  1  0  0  0  0  0  0  0  0
   -3.4096   -8.2965   -4.3878 H   0  0  0  1  0  0  0  0  0  0  0  0
    3.5219    2.3303   -2.4456 H   0  0  0  1  0  0  0  0  0  0  0  0
    3.8960    0.9016   -0.1238 H   0  0  0  1  0  0  0  0  0  0  0  0
    5.5449   -0.0997   -2.4535 H   0  0  0  1  0  0  0  0  0  0  0  0
    4.7529   -1.0465   -1.2164 H   0  0  0  1  0  0  0  0  0  0  0  0
    7.3836   -0.4250   -1.0501 H   0  0  0  1  0  0  0  0  0  0  0  0
    7.6045    1.8219   -0.7315 H   0  0  0  1  0  0  0  0  0  0  0  0
    6.7613    1.6462    0.7891 H   0  0  0  1  0  0  0  0  0  0  0  0
    5.1323    2.9275   -0.1982 H   0  0  0  1  0  0  0  0  0  0  0  0
    5.7320    2.6028   -1.8073 H   0  0  0  1  0  0  0  0  0  0  0  0
    6.1922   -1.7147    0.5284 H   0  0  0  1  0  0  0  0  0  0  0  0
    5.5540   -0.4051    1.1905 H   0  0  0  1  0  0  0  0  0  0  0  0
  1  2  4  0  0  0  0
  1  6  4  0  0  0  0
  2  3  4  0  0  0  0
  2 18  1  0  0  0  0
  3  4  4  0  0  0  0
  4  5  4  0  0  0  0
  4  7  4  0  0  0  0
  5  6  4  0  0  0  0
  5  9  4  0  0  0  0
  6 25  1  0  0  0  0
  7  8  4  0  0  0  0
  7 26  1  0  0  0  0
  8  9  4  0  0  0  0
  9 10  1  0  0  0  0
 10 11  4  0  0  0  0
 10 15  4  0  0  0  0
 11 12  4  0  0  0  0
 11 27  1  0  0  0  0
 12 13  4  0  0  0  0
 12 28  1  0  0  0  0
 13 14  4  0  0  0  0
 13 16  1  0  0  0  0
 14 15  4  0  0  0  0
 14 29  1  0  0  0  0
 15 30  1  0  0  0  0
 16 17  1  0  0  0  0
 17 31  1  0  0  0  0
 17 32  1  0  0  0  0
 17 33  1  0  0  0  0
 18 19  1  0  0  0  0
 18 34  1  0  0  0  0
 19 20  1  0  0  0  0
 19 23  1  0  0  0  0
 19 35  1  0  0  0  0
 20 21  1  0  0  0  0
 20 36  1  0  0  0  0
 20 37  1  0  0  0  0
 21 22  1  0  0  0  0
 21 24  1  0  0  0  0
 21 38  1  0  0  0  0
 22 23  1  0  0  0  0
 22 39  1  0  0  0  0
 22 40  1  0  0  0  0
 23 41  1  0  0  0  0
 23 42  1  0  0  0  0
 24 43  1  0  0  0  0
 24 44  1  0  0  0  0
M  END
> <ConfClashScore>
0 

> <ConfOneFourInteractionScore>
-0.985399 

> <ConfScore>
-0.068938 

> <ConfScorePBest>
0.00425964 

> <ConfTolerance>
0.224238 

$$$$
c13.sdf
 OpenBabel04162418043D

 44 47  0  0  0  0  0  0  0  0999 V2000
    3.3889   -0.5909   -3.2905 N   0  0  0  1  0  0  0  0  0  0  0  0
    4.1165    0.4003   -3.7769 C   0  0  0  1  0  0  0  0  0  0  0  0
    4.3138    0.5640   -5.0650 N   0  0  0  1  0  0  0  0  0  0  0  0
    3.7739   -0.2844   -5.9437 C   0  0  0  1  0  0  0  0  0  0  0  0
    2.9911   -1.3543   -5.4602 C   0  0  0  1  0  0  0  0  0  0  0  0
    2.8161   -1.4783   -4.0850 C   0  0  0  1  0  0  0  0  0  0  0  0
    3.7878   -0.3927   -7.3516 C   0  0  0  1  0  0  0  0  0  0  0  0
    3.0807   -1.4305   -7.6986 N   0  0  0  1  0  0  0  0  0  0  0  0
    2.5671   -2.0575   -6.5557 N   0  0  0  1  0  0  0  0  0  0  0  0
    1.6920   -3.1555   -6.7269 C   0  0  0  1  0  0  0  0  0  0  0  0
    0.4635   -3.1652   -6.0938 C   0  0  0  1  0  0  0  0  0  0  0  0
   -0.3962   -4.2388   -6.2658 C   0  0  0  1  0  0  0  0  0  0  0  0
   -0.0229   -5.3020   -7.0662 C   0  0  0  1  0  0  0  0  0  0  0  0
    1.2093   -5.2921   -7.7011 C   0  0  0  1  0  0  0  0  0  0  0  0
    2.0667   -4.2217   -7.5297 C   0  0  0  1  0  0  0  0  0  0  0  0
   -0.9408   -6.2938   -7.1545 O   0  0  0  1  0  0  0  0  0  0  0  0
   -0.5897   -7.4449   -7.9381 C   0  0  0  1  0  0  0  0  0  0  0  0
    4.6762    1.2746   -2.9214 N   0  0  0  1  0  0  0  0  0  0  0  0
    4.5046    1.2185   -1.4688 C   0  0  0  1  0  0  0  0  0  0  0  0
    4.9255   -0.1871   -0.9316 C   0  0  0  1  0  0  0  0  0  0  0  0
    6.4564    0.0404   -0.6427 C   0  0  0  1  0  0  0  0  0  0  0  0
    6.4643    1.4364   -0.0350 C   0  0  0  1  0  0  0  0  0  0  0  0
    5.4171    2.2427   -0.7909 C   0  0  0  1  0  0  0  0  0  0  0  0
    6.9764   -0.9619    0.3104 N   0  0  0  1  0  0  0  0  0  0  0  0
    2.2462   -2.2536   -3.6906 H   0  0  0  1  0  0  0  0  0  0  0  0
    4.2811    0.2498   -8.0038 H   0  0  0  1  0  0  0  0  0  0  0  0
    0.1842   -2.3671   -5.4883 H   0  0  0  1  0  0  0  0  0  0  0  0
   -1.3223   -4.2443   -5.7926 H   0  0  0  1  0  0  0  0  0  0  0  0
    1.4887   -6.0902   -8.3066 H   0  0  0  1  0  0  0  0  0  0  0  0
    2.9928   -4.2161   -8.0029 H   0  0  0  1  0  0  0  0  0  0  0  0
   -0.2954   -7.1333   -8.9185 H   0  0  0  1  0  0  0  0  0  0  0  0
   -1.4342   -8.0980   -8.0102 H   0  0  0  1  0  0  0  0  0  0  0  0
    0.2220   -7.9610   -7.4695 H   0  0  0  1  0  0  0  0  0  0  0  0
    5.2317    1.9915   -3.2926 H   0  0  0  1  0  0  0  0  0  0  0  0
    3.4823    1.4159   -1.2220 H   0  0  0  1  0  0  0  0  0  0  0  0
    4.7746   -0.9491   -1.6675 H   0  0  0  1  0  0  0  0  0  0  0  0
    4.3920   -0.4415   -0.0396 H   0  0  0  1  0  0  0  0  0  0  0  0
    7.0306    0.0068   -1.5450 H   0  0  0  1  0  0  0  0  0  0  0  0
    7.4294    1.8840   -0.1500 H   0  0  0  1  0  0  0  0  0  0  0  0
    6.2145    1.3884    1.0043 H   0  0  0  1  0  0  0  0  0  0  0  0
    4.8548    2.8500   -0.1128 H   0  0  0  1  0  0  0  0  0  0  0  0
    5.8856    2.8657   -1.5240 H   0  0  0  1  0  0  0  0  0  0  0  0
    6.7667   -1.8623   -0.0147 H   0  0  0  1  0  0  0  0  0  0  0  0
    6.5595   -0.8260    1.1869 H   0  0  0  1  0  0  0  0  0  0  0  0
  1  2  4  0  0  0  0
  1  6  4  0  0  0  0
  2  3  4  0  0  0  0
  2 18  1  0  0  0  0
  3  4  4  0  0  0  0
  4  5  4  0  0  0  0
  4  7  4  0  0  0  0
  5  6  4  0  0  0  0
  5  9  4  0  0  0  0
  6 25  1  0  0  0  0
  7  8  4  0  0  0  0
  7 26  1  0  0  0  0
  8  9  4  0  0  0  0
  9 10  1  0  0  0  0
 10 11  4  0  0  0  0
 10 15  4  0  0  0  0
 11 12  4  0  0  0  0
 11 27  1  0  0  0  0
 12 13  4  0  0  0  0
 12 28  1  0  0  0  0
 13 14  4  0  0  0  0
 13 16  1  0  0  0  0
 14 15  4  0  0  0  0
 14 29  1  0  0  0  0
 15 30  1  0  0  0  0
 16 17  1  0  0  0  0
 17 31  1  0  0  0  0
 17 32  1  0  0  0  0
 17 33  1  0  0  0  0
 18 19  1  0  0  0  0
 18 34  1  0  0  0  0
 19 20  1  0  0  0  0
 19 23  1  0  0  0  0
 19 35  1  0  0  0  0
 20 21  1  0  0  0  0
 20 36  1  0  0  0  0
 20 37  1  0  0  0  0
 21 22  1  0  0  0  0
 21 24  1  0  0  0  0
 21 38  1  0  0  0  0
 22 23  1  0  0  0  0
 22 39  1  0  0  0  0
 22 40  1  0  0  0  0
 23 41  1  0  0  0  0
 23 42  1  0  0  0  0
 24 43  1  0  0  0  0
 24 44  1  0  0  0  0
M  END
> <ConfClashScore>
0 

> <ConfOneFourInteractionScore>
-0.985399 

> <ConfScore>
-0.068938 

> <ConfScorePBest>
0.00424631 

> <ConfTolerance>
0.226051 

$$$$
c13.sdf
 OpenBabel04162418043D

 44 47  0  0  0  0  0  0  0  0999 V2000
    4.0190    0.5065   -5.0570 N   0  0  0  1  0  0  0  0  0  0  0  0
    3.9489    0.4102   -3.7402 C   0  0  0  1  0  0  0  0  0  0  0  0
    3.2505   -0.5248   -3.1377 N   0  0  0  1  0  0  0  0  0  0  0  0
    2.5741   -1.4279   -3.8521 C   0  0  0  1  0  0  0  0  0  0  0  0
    2.6263   -1.3555   -5.2605 C   0  0  0  1  0  0  0  0  0  0  0  0
    3.3824   -0.3433   -5.8440 C   0  0  0  1  0  0  0  0  0  0  0  0
    1.7509   -2.5293   -3.5304 C   0  0  0  1  0  0  0  0  0  0  0  0
    1.3375   -3.0800   -4.6363 N   0  0  0  1  0  0  0  0  0  0  0  0
    1.8568   -2.3836   -5.7355 N   0  0  0  1  0  0  0  0  0  0  0  0
    1.5247   -2.8251   -7.0491 C   0  0  0  1  0  0  0  0  0  0  0  0
    2.5302   -3.0841   -7.9613 C   0  0  0  1  0  0  0  0  0  0  0  0
    2.2182   -3.6066   -9.2067 C   0  0  0  1  0  0  0  0  0  0  0  0
    0.9013   -3.8637   -9.5384 C   0  0  0  1  0  0  0  0  0  0  0  0
   -0.1071   -3.6038   -8.6233 C   0  0  0  1  0  0  0  0  0  0  0  0
    0.2038   -3.0828   -7.3815 C   0  0  0  1  0  0  0  0  0  0  0  0
    0.7191   -4.3660  -10.7791 O   0  0  0  1  0  0  0  0  0  0  0  0
   -0.6119   -4.6450  -11.2406 C   0  0  0  1  0  0  0  0  0  0  0  0
    4.6029    1.2833   -2.9210 N   0  0  0  1  0  0  0  0  0  0  0  0
    4.4775    1.2120   -1.4625 C   0  0  0  1  0  0  0  0  0  0  0  0
    4.9452   -0.1904   -0.9463 C   0  0  0  1  0  0  0  0  0  0  0  0
    6.4603    0.0395   -0.6221 C   0  0  0  1  0  0  0  0  0  0  0  0
    6.4931    1.4649   -0.0376 C   0  0  0  1  0  0  0  0  0  0  0  0
    5.4106    2.2584   -0.7905 C   0  0  0  1  0  0  0  0  0  0  0  0
    6.9447   -0.9486    0.3676 N   0  0  0  1  0  0  0  0  0  0  0  0
    3.4452   -0.2572   -6.8786 H   0  0  0  1  0  0  0  0  0  0  0  0
    1.5138   -2.8481   -2.5693 H   0  0  0  1  0  0  0  0  0  0  0  0
    3.5208   -2.8870   -7.7133 H   0  0  0  1  0  0  0  0  0  0  0  0
    2.9752   -3.8053   -9.8917 H   0  0  0  1  0  0  0  0  0  0  0  0
   -1.0977   -3.8009   -8.8713 H   0  0  0  1  0  0  0  0  0  0  0  0
   -0.5531   -2.8840   -6.6965 H   0  0  0  1  0  0  0  0  0  0  0  0
   -1.1972   -3.7500  -11.2050 H   0  0  0  1  0  0  0  0  0  0  0  0
   -1.0583   -5.3880  -10.6132 H   0  0  0  1  0  0  0  0  0  0  0  0
   -0.5719   -5.0049  -12.2475 H   0  0  0  1  0  0  0  0  0  0  0  0
    5.1712    1.9760   -3.3179 H   0  0  0  1  0  0  0  0  0  0  0  0
    3.4601    1.3892   -1.1824 H   0  0  0  1  0  0  0  0  0  0  0  0
    4.8231   -0.9383   -1.7018 H   0  0  0  1  0  0  0  0  0  0  0  0
    4.4038   -0.4771   -0.0691 H   0  0  0  1  0  0  0  0  0  0  0  0
    7.0546   -0.0231   -1.5097 H   0  0  0  1  0  0  0  0  0  0  0  0
    7.4544    1.9082   -0.1934 H   0  0  0  1  0  0  0  0  0  0  0  0
    6.2758    1.4420    1.0098 H   0  0  0  1  0  0  0  0  0  0  0  0
    4.8537    2.8634   -0.1059 H   0  0  0  1  0  0  0  0  0  0  0  0
    5.8608    2.8824   -1.5340 H   0  0  0  1  0  0  0  0  0  0  0  0
    6.9201   -1.8454   -0.0266 H   0  0  0  1  0  0  0  0  0  0  0  0
    6.3697   -0.9248    1.1608 H   0  0  0  1  0  0  0  0  0  0  0  0
  1  2  4  0  0  0  0
  1  6  4  0  0  0  0
  2  3  4  0  0  0  0
  2 18  1  0  0  0  0
  3  4  4  0  0  0  0
  4  5  4  0  0  0  0
  4  7  4  0  0  0  0
  5  6  4  0  0  0  0
  5  9  4  0  0  0  0
  6 25  1  0  0  0  0
  7  8  4  0  0  0  0
  7 26  1  0  0  0  0
  8  9  4  0  0  0  0
  9 10  1  0  0  0  0
 10 11  4  0  0  0  0
 10 15  4  0  0  0  0
 11 12  4  0  0  0  0
 11 27  1  0  0  0  0
 12 13  4  0  0  0  0
 12 28  1  0  0  0  0
 13 14  4  0  0  0  0
 13 16  1  0  0  0  0
 14 15  4  0  0  0  0
 14 29  1  0  0  0  0
 15 30  1  0  0  0  0
 16 17  1  0  0  0  0
 17 31  1  0  0  0  0
 17 32  1  0  0  0  0
 17 33  1  0  0  0  0
 18 19  1  0  0  0  0
 18 34  1  0  0  0  0
 19 20  1  0  0  0  0
 19 23  1  0  0  0  0
 19 35  1  0  0  0  0
 20 21  1  0  0  0  0
 20 36  1  0  0  0  0
 20 37  1  0  0  0  0
 21 22  1  0  0  0  0
 21 24  1  0  0  0  0
 21 38  1  0  0  0  0
 22 23  1  0  0  0  0
 22 39  1  0  0  0  0
 22 40  1  0  0  0  0
 23 41  1  0  0  0  0
 23 42  1  0  0  0  0
 24 43  1  0  0  0  0
 24 44  1  0  0  0  0
M  END
> <ConfClashScore>
0 

> <ConfOneFourInteractionScore>
-0.981848 

> <ConfScore>
-0.068938 

> <ConfScorePBest>
0.00423299 

> <ConfTolerance>
0.212768 

$$$$
c13.sdf
 OpenBabel04162418043D

 44 47  0  0  0  0  0  0  0  0999 V2000
    1.8552    1.7985   -0.5696 N   0  0  0  1  0  0  0  0  0  0  0  0
    2.2027    1.8093   -1.8453 C   0  0  0  1  0  0  0  0  0  0  0  0
    1.3659    2.1422   -2.8013 N   0  0  0  1  0  0  0  0  0  0  0  0
    0.1096    2.4880   -2.5085 C   0  0  0  1  0  0  0  0  0  0  0  0
   -0.2962    2.4877   -1.1569 C   0  0  0  1  0  0  0  0  0  0  0  0
    0.6335    2.1260   -0.1864 C   0  0  0  1  0  0  0  0  0  0  0  0
   -1.0101    2.8873   -3.2706 C   0  0  0  1  0  0  0  0  0  0  0  0
   -2.0078    3.1107   -2.4632 N   0  0  0  1  0  0  0  0  0  0  0  0
   -1.6093    2.8749   -1.1409 N   0  0  0  1  0  0  0  0  0  0  0  0
   -2.5225    3.0491   -0.0621 C   0  0  0  1  0  0  0  0  0  0  0  0
   -2.2074    3.8995    0.9808 C   0  0  0  1  0  0  0  0  0  0  0  0
   -3.0561    4.0019    2.0720 C   0  0  0  1  0  0  0  0  0  0  0  0
   -4.2147    3.2497    2.1196 C   0  0  0  1  0  0  0  0  0  0  0  0
   -4.5306    2.3968    1.0734 C   0  0  0  1  0  0  0  0  0  0  0  0
   -3.6844    2.2946   -0.0146 C   0  0  0  1  0  0  0  0  0  0  0  0
   -4.9589    3.4287    3.2327 O   0  0  0  1  0  0  0  0  0  0  0  0
   -6.1817    2.6925    3.3918 C   0  0  0  1  0  0  0  0  0  0  0  0
    3.4957    1.4570   -2.1874 N   0  0  0  1  0  0  0  0  0  0  0  0
    4.4005    1.0444   -1.1112 C   0  0  0  1  0  0  0  0  0  0  0  0
    5.2685   -0.1390   -1.5394 C   0  0  0  1  0  0  0  0  0  0  0  0
    6.4821   -0.0942   -0.6046 C   0  0  0  1  0  0  0  0  0  0  0  0
    6.6475    1.3828   -0.2250 C   0  0  0  1  0  0  0  0  0  0  0  0
    5.4481    2.1224   -0.8224 C   0  0  0  1  0  0  0  0  0  0  0  0
    6.2344   -0.9233    0.6148 N   0  0  0  1  0  0  0  0  0  0  0  0
    0.3721    2.1137    0.8201 H   0  0  0  1  0  0  0  0  0  0  0  0
   -1.0343    2.9866   -4.3056 H   0  0  0  1  0  0  0  0  0  0  0  0
   -1.3337    4.4625    0.9470 H   0  0  0  1  0  0  0  0  0  0  0  0
   -2.8211    4.6448    2.8550 H   0  0  0  1  0  0  0  0  0  0  0  0
   -5.4044    1.8338    1.1073 H   0  0  0  1  0  0  0  0  0  0  0  0
   -3.9194    1.6517   -0.7976 H   0  0  0  1  0  0  0  0  0  0  0  0
   -6.0602    1.7076    2.9916 H   0  0  0  1  0  0  0  0  0  0  0  0
   -6.9701    3.1942    2.8707 H   0  0  0  1  0  0  0  0  0  0  0  0
   -6.4257    2.6272    4.4315 H   0  0  0  1  0  0  0  0  0  0  0  0
    3.7971    1.4826   -3.1196 H   0  0  0  1  0  0  0  0  0  0  0  0
    3.8312    0.8117   -0.2356 H   0  0  0  1  0  0  0  0  0  0  0  0
    4.7356   -1.0592   -1.4209 H   0  0  0  1  0  0  0  0  0  0  0  0
    5.5744   -0.0322   -2.5591 H   0  0  0  1  0  0  0  0  0  0  0  0
    7.3560   -0.4516   -1.1080 H   0  0  0  1  0  0  0  0  0  0  0  0
    6.6561    1.4920    0.8393 H   0  0  0  1  0  0  0  0  0  0  0  0
    7.5591    1.7688   -0.6311 H   0  0  0  1  0  0  0  0  0  0  0  0
    5.0652    2.8374   -0.1246 H   0  0  0  1  0  0  0  0  0  0  0  0
    5.7295    2.6209   -1.7264 H   0  0  0  1  0  0  0  0  0  0  0  0
    5.3748   -0.6717    1.0125 H   0  0  0  1  0  0  0  0  0  0  0  0
    6.9519   -0.7707    1.2647 H   0  0  0  1  0  0  0  0  0  0  0  0
  1  2  4  0  0  0  0
  1  6  4  0  0  0  0
  2  3  4  0  0  0  0
  2 18  1  0  0  0  0
  3  4  4  0  0  0  0
  4  5  4  0  0  0  0
  4  7  4  0  0  0  0
  5  6  4  0  0  0  0
  5  9  4  0  0  0  0
  6 25  1  0  0  0  0
  7  8  4  0  0  0  0
  7 26  1  0  0  0  0
  8  9  4  0  0  0  0
  9 10  1  0  0  0  0
 10 11  4  0  0  0  0
 10 15  4  0  0  0  0
 11 12  4  0  0  0  0
 11 27  1  0  0  0  0
 12 13  4  0  0  0  0
 12 28  1  0  0  0  0
 13 14  4  0  0  0  0
 13 16  1  0  0  0  0
 14 15  4  0  0  0  0
 14 29  1  0  0  0  0
 15 30  1  0  0  0  0
 16 17  1  0  0  0  0
 17 31  1  0  0  0  0
 17 32  1  0  0  0  0
 17 33  1  0  0  0  0
 18 19  1  0  0  0  0
 18 34  1  0  0  0  0
 19 20  1  0  0  0  0
 19 23  1  0  0  0  0
 19 35  1  0  0  0  0
 20 21  1  0  0  0  0
 20 36  1  0  0  0  0
 20 37  1  0  0  0  0
 21 22  1  0  0  0  0
 21 24  1  0  0  0  0
 21 38  1  0  0  0  0
 22 23  1  0  0  0  0
 22 39  1  0  0  0  0
 22 40  1  0  0  0  0
 23 41  1  0  0  0  0
 23 42  1  0  0  0  0
 24 43  1  0  0  0  0
 24 44  1  0  0  0  0
M  END
> <ConfClashScore>
0 

> <ConfOneFourInteractionScore>
-0.984337 

> <ConfScore>
-0.0682219 

> <ConfScorePBest>
0.00421966 

> <ConfTolerance>
0.305638 

$$$$
c13.sdf
 OpenBabel04162418043D

 44 47  0  0  0  0  0  0  0  0999 V2000
    5.3471    2.2953   -5.0260 N   0  0  0  1  0  0  0  0  0  0  0  0
    4.7499    2.3310   -3.8469 C   0  0  0  1  0  0  0  0  0  0  0  0
    3.8765    3.2582   -3.5266 N   0  0  0  1  0  0  0  0  0  0  0  0
    3.5571    4.2154   -4.4013 C   0  0  0  1  0  0  0  0  0  0  0  0
    4.1751    4.2084   -5.6699 C   0  0  0  1  0  0  0  0  0  0  0  0
    5.0929    3.2014   -5.9539 C   0  0  0  1  0  0  0  0  0  0  0  0
    2.6851    5.3260   -4.3784 C   0  0  0  1  0  0  0  0  0  0  0  0
    2.7612    5.9416   -5.5241 N   0  0  0  1  0  0  0  0  0  0  0  0
    3.6747    5.2819   -6.3567 N   0  0  0  1  0  0  0  0  0  0  0  0
    3.9354    5.7528   -7.6521 C   0  0  0  1  0  0  0  0  0  0  0  0
    5.2368    6.1548   -7.8863 C   0  0  0  1  0  0  0  0  0  0  0  0
    5.6005    6.6316   -9.1360 C   0  0  0  1  0  0  0  0  0  0  0  0
    4.6606    6.7101  -10.1463 C   0  0  0  1  0  0  0  0  0  0  0  0
    3.3553    6.3069   -9.9113 C   0  0  0  1  0  0  0  0  0  0  0  0
    2.9925    5.8314   -8.6652 C   0  0  0  1  0  0  0  0  0  0  0  0
    4.8934    7.1565  -11.3860 O   0  0  0  1  0  0  0  0  0  0  0  0
    3.7992    7.4404  -12.3214 C   0  0  0  1  0  0  0  0  0  0  0  0
    5.1098    1.3408   -3.0025 N   0  0  0  1  0  0  0  0  0  0  0  0
    4.5672    1.1834   -1.6461 C   0  0  0  1  0  0  0  0  0  0  0  0
    4.9303   -0.1822   -1.0577 C   0  0  0  1  0  0  0  0  0  0  0  0
    6.3417   -0.0238   -0.4874 C   0  0  0  1  0  0  0  0  0  0  0  0
    6.5795    1.4828   -0.3242 C   0  0  0  1  0  0  0  0  0  0  0  0
    5.2394    2.1438   -0.6648 C   0  0  0  1  0  0  0  0  0  0  0  0
    6.4429   -0.7081    0.8363 N   0  0  0  1  0  0  0  0  0  0  0  0
    5.5690    3.1628   -6.8777 H   0  0  0  1  0  0  0  0  0  0  0  0
    2.0819    5.6062   -3.5789 H   0  0  0  1  0  0  0  0  0  0  0  0
    5.9431    6.0996   -7.1250 H   0  0  0  1  0  0  0  0  0  0  0  0
    6.5807    6.9304   -9.3134 H   0  0  0  1  0  0  0  0  0  0  0  0
    2.6490    6.3621  -10.6726 H   0  0  0  1  0  0  0  0  0  0  0  0
    2.0123    5.5327   -8.4877 H   0  0  0  1  0  0  0  0  0  0  0  0
    4.1914    7.5320  -13.3127 H   0  0  0  1  0  0  0  0  0  0  0  0
    3.3197    8.3552  -12.0419 H   0  0  0  1  0  0  0  0  0  0  0  0
    3.0885    6.6410  -12.2917 H   0  0  0  1  0  0  0  0  0  0  0  0
    5.7720    0.6884   -3.3127 H   0  0  0  1  0  0  0  0  0  0  0  0
    3.5072    1.3279   -1.6664 H   0  0  0  1  0  0  0  0  0  0  0  0
    4.2426   -0.4494   -0.2828 H   0  0  0  1  0  0  0  0  0  0  0  0
    4.9181   -0.9324   -1.8205 H   0  0  0  1  0  0  0  0  0  0  0  0
    7.0612   -0.4406   -1.1608 H   0  0  0  1  0  0  0  0  0  0  0  0
    7.3430    1.8163   -0.9956 H   0  0  0  1  0  0  0  0  0  0  0  0
    6.8643    1.7102    0.6818 H   0  0  0  1  0  0  0  0  0  0  0  0
    5.3958    3.0993   -1.1204 H   0  0  0  1  0  0  0  0  0  0  0  0
    4.6428    2.2612    0.2156 H   0  0  0  1  0  0  0  0  0  0  0  0
    7.3370   -0.5651    1.2110 H   0  0  0  1  0  0  0  0  0  0  0  0
    6.2875   -1.6687    0.7199 H   0  0  0  1  0  0  0  0  0  0  0  0
  1  2  4  0  0  0  0
  1  6  4  0  0  0  0
  2  3  4  0  0  0  0
  2 18  1  0  0  0  0
  3  4  4  0  0  0  0
  4  5  4  0  0  0  0
  4  7  4  0  0  0  0
  5  6  4  0  0  0  0
  5  9  4  0  0  0  0
  6 25  1  0  0  0  0
  7  8  4  0  0  0  0
  7 26  1  0  0  0  0
  8  9  4  0  0  0  0
  9 10  1  0  0  0  0
 10 11  4  0  0  0  0
 10 15  4  0  0  0  0
 11 12  4  0  0  0  0
 11 27  1  0  0  0  0
 12 13  4  0  0  0  0
 12 28  1  0  0  0  0
 13 14  4  0  0  0  0
 13 16  1  0  0  0  0
 14 15  4  0  0  0  0
 14 29  1  0  0  0  0
 15 30  1  0  0  0  0
 16 17  1  0  0  0  0
 17 31  1  0  0  0  0
 17 32  1  0  0  0  0
 17 33  1  0  0  0  0
 18 19  1  0  0  0  0
 18 34  1  0  0  0  0
 19 20  1  0  0  0  0
 19 23  1  0  0  0  0
 19 35  1  0  0  0  0
 20 21  1  0  0  0  0
 20 36  1  0  0  0  0
 20 37  1  0  0  0  0
 21 22  1  0  0  0  0
 21 24  1  0  0  0  0
 21 38  1  0  0  0  0
 22 23  1  0  0  0  0
 22 39  1  0  0  0  0
 22 40  1  0  0  0  0
 23 41  1  0  0  0  0
 23 42  1  0  0  0  0
 24 43  1  0  0  0  0
 24 44  1  0  0  0  0
M  END
> <ConfClashScore>
0 

> <ConfOneFourInteractionScore>
-0.984337 

> <ConfScore>
-0.0672726 

> <ConfScorePBest>
0.00420633 

> <ConfTolerance>
0.326026 

$$$$
c13.sdf
 OpenBabel04162418043D

 44 47  0  0  0  0  0  0  0  0999 V2000
    4.6760    1.8459   -5.1441 N   0  0  0  1  0  0  0  0  0  0  0  0
    4.2111    1.4289   -3.9786 C   0  0  0  1  0  0  0  0  0  0  0  0
    3.0307    0.8677   -3.8503 N   0  0  0  1  0  0  0  0  0  0  0  0
    2.2451    0.6967   -4.9167 C   0  0  0  1  0  0  0  0  0  0  0  0
    2.7092    1.1298   -6.1771 C   0  0  0  1  0  0  0  0  0  0  0  0
    3.9683    1.7178   -6.2529 C   0  0  0  1  0  0  0  0  0  0  0  0
    0.9608    0.1467   -5.1217 C   0  0  0  1  0  0  0  0  0  0  0  0
    0.6652    0.2342   -6.3876 N   0  0  0  1  0  0  0  0  0  0  0  0
    1.7225    0.8384   -7.0804 N   0  0  0  1  0  0  0  0  0  0  0  0
    1.6464    1.0491   -8.4770 C   0  0  0  1  0  0  0  0  0  0  0  0
    0.5888    1.7600   -9.0119 C   0  0  0  1  0  0  0  0  0  0  0  0
    0.5171    1.9711  -10.3800 C   0  0  0  1  0  0  0  0  0  0  0  0
    1.5003    1.4661  -11.2098 C   0  0  0  1  0  0  0  0  0  0  0  0
    2.5610    0.7531  -10.6732 C   0  0  0  1  0  0  0  0  0  0  0  0
    2.6326    0.5425   -9.3090 C   0  0  0  1  0  0  0  0  0  0  0  0
    1.4276    1.6674  -12.5437 O   0  0  0  1  0  0  0  0  0  0  0  0
    0.4228    2.5469  -13.0723 C   0  0  0  1  0  0  0  0  0  0  0  0
    4.9777    1.5854   -2.8782 N   0  0  0  1  0  0  0  0  0  0  0  0
    4.5493    1.2183   -1.5246 C   0  0  0  1  0  0  0  0  0  0  0  0
    5.0543   -0.1780   -1.1409 C   0  0  0  1  0  0  0  0  0  0  0  0
    6.4942   -0.0272   -0.6605 C   0  0  0  1  0  0  0  0  0  0  0  0
    6.6344    1.4962   -0.3148 C   0  0  0  1  0  0  0  0  0  0  0  0
    5.2346    2.1242   -0.4470 C   0  0  0  1  0  0  0  0  0  0  0  0
    6.7396   -0.8744    0.5593 N   0  0  0  1  0  0  0  0  0  0  0  0
    4.3448    2.0496   -7.1638 H   0  0  0  1  0  0  0  0  0  0  0  0
    0.3515   -0.2609   -4.3841 H   0  0  0  1  0  0  0  0  0  0  0  0
   -0.1532    2.1366   -8.3880 H   0  0  0  1  0  0  0  0  0  0  0  0
   -0.2767    2.5095  -10.7822 H   0  0  0  1  0  0  0  0  0  0  0  0
    3.3030    0.3765  -11.2971 H   0  0  0  1  0  0  0  0  0  0  0  0
    3.4263    0.0041   -8.9069 H   0  0  0  1  0  0  0  0  0  0  0  0
    0.8348    3.1154  -13.8798 H   0  0  0  1  0  0  0  0  0  0  0  0
    0.0897    3.2111  -12.3024 H   0  0  0  1  0  0  0  0  0  0  0  0
   -0.4045    1.9695  -13.4287 H   0  0  0  1  0  0  0  0  0  0  0  0
    5.8734    1.9668   -2.9907 H   0  0  0  1  0  0  0  0  0  0  0  0
    3.4829    1.2767   -1.4592 H   0  0  0  1  0  0  0  0  0  0  0  0
    5.0189   -0.8259   -1.9917 H   0  0  0  1  0  0  0  0  0  0  0  0
    4.4483   -0.5833   -0.3577 H   0  0  0  1  0  0  0  0  0  0  0  0
    7.1814   -0.3047   -1.4323 H   0  0  0  1  0  0  0  0  0  0  0  0
    7.3125    1.9658   -0.9964 H   0  0  0  1  0  0  0  0  0  0  0  0
    6.9954    1.6132    0.6857 H   0  0  0  1  0  0  0  0  0  0  0  0
    4.7054    2.0853    0.4821 H   0  0  0  1  0  0  0  0  0  0  0  0
    5.2973    3.1390   -0.7802 H   0  0  0  1  0  0  0  0  0  0  0  0
    6.4604   -1.7963    0.3789 H   0  0  0  1  0  0  0  0  0  0  0  0
    6.2239   -0.5188    1.3130 H   0  0  0  1  0  0  0  0  0  0  0  0
  1  2  4  0  0  0  0
  1  6  4  0  0  0  0
  2  3  4  0  0  0  0
  2 18  1  0  0  0  0
  3  4  4  0  0  0  0
  4  5  4  0  0  0  0
  4  7  4  0  0  0  0
  5  6  4  0  0  0  0
  5  9  4  0  0  0  0
  6 25  1  0  0  0  0
  7  8  4  0  0  0  0
  7 26  1  0  0  0  0
  8  9  4  0  0  0  0
  9 10  1  0  0  0  0
 10 11  4  0  0  0  0
 10 15  4  0  0  0  0
 11 12  4  0  0  0  0
 11 27  1  0  0  0  0
 12 13  4  0  0  0  0
 12 28  1  0  0  0  0
 13 14  4  0  0  0  0
 13 16  1  0  0  0  0
 14 15  4  0  0  0  0
 14 29  1  0  0  0  0
 15 30  1  0  0  0  0
 16 17  1  0  0  0  0
 17 31  1  0  0  0  0
 17 32  1  0  0  0  0
 17 33  1  0  0  0  0
 18 19  1  0  0  0  0
 18 34  1  0  0  0  0
 19 20  1  0  0  0  0
 19 23  1  0  0  0  0
 19 35  1  0  0  0  0
 20 21  1  0  0  0  0
 20 36  1  0  0  0  0
 20 37  1  0  0  0  0
 21 22  1  0  0  0  0
 21 24  1  0  0  0  0
 21 38  1  0  0  0  0
 22 23  1  0  0  0  0
 22 39  1  0  0  0  0
 22 40  1  0  0  0  0
 23 41  1  0  0  0  0
 23 42  1  0  0  0  0
 24 43  1  0  0  0  0
 24 44  1  0  0  0  0
M  END
> <ConfClashScore>
0 

> <ConfOneFourInteractionScore>
-0.984337 

> <ConfScore>
-0.0668842 

> <ConfScorePBest>
0.004193 

> <ConfTolerance>
0.288992 

$$$$
c13.sdf
 OpenBabel04162418043D

 44 47  0  0  0  0  0  0  0  0999 V2000
    2.7551   -0.0482   -3.2663 N   0  0  0  1  0  0  0  0  0  0  0  0
    3.7258    0.7024   -3.7590 C   0  0  0  1  0  0  0  0  0  0  0  0
    3.8559    0.9316   -5.0457 N   0  0  0  1  0  0  0  0  0  0  0  0
    2.9926    0.4020   -5.9163 C   0  0  0  1  0  0  0  0  0  0  0  0
    1.9438   -0.4045   -5.4257 C   0  0  0  1  0  0  0  0  0  0  0  0
    1.8553   -0.6130   -4.0525 C   0  0  0  1  0  0  0  0  0  0  0  0
    2.8500    0.4473   -7.3204 C   0  0  0  1  0  0  0  0  0  0  0  0
    1.8122   -0.2639   -7.6589 N   0  0  0  1  0  0  0  0  0  0  0  0
    1.2191   -0.8114   -6.5138 N   0  0  0  1  0  0  0  0  0  0  0  0
    0.0690   -1.6287   -6.6143 C   0  0  0  1  0  0  0  0  0  0  0  0
   -1.0779   -1.2959   -5.9187 C   0  0  0  1  0  0  0  0  0  0  0  0
   -2.2067   -2.0939   -6.0214 C   0  0  0  1  0  0  0  0  0  0  0  0
   -2.1836   -3.2252   -6.8151 C   0  0  0  1  0  0  0  0  0  0  0  0
   -1.0331   -3.5588   -7.5127 C   0  0  0  1  0  0  0  0  0  0  0  0
    0.0925   -2.7632   -7.4104 C   0  0  0  1  0  0  0  0  0  0  0  0
   -3.3411   -3.9278   -6.8331 O   0  0  0  1  0  0  0  0  0  0  0  0
   -3.4174   -5.0438   -7.7339 C   0  0  0  1  0  0  0  0  0  0  0  0
    4.6175    1.2545   -2.9087 N   0  0  0  1  0  0  0  0  0  0  0  0
    4.4916    1.2102   -1.4623 C   0  0  0  1  0  0  0  0  0  0  0  0
    4.9608   -0.1461   -0.9243 C   0  0  0  1  0  0  0  0  0  0  0  0
    6.4479    0.0445   -0.6251 C   0  0  0  1  0  0  0  0  0  0  0  0
    6.4786    1.4590   -0.0410 C   0  0  0  1  0  0  0  0  0  0  0  0
    5.4159    2.2467   -0.8109 C   0  0  0  1  0  0  0  0  0  0  0  0
    6.9370   -0.9663    0.3702 N   0  0  0  1  0  0  0  0  0  0  0  0
    1.0964   -1.2013   -3.6530 H   0  0  0  1  0  0  0  0  0  0  0  0
    3.4709    0.9632   -7.9761 H   0  0  0  1  0  0  0  0  0  0  0  0
   -1.0941   -0.4469   -5.3182 H   0  0  0  1  0  0  0  0  0  0  0  0
   -3.0711   -1.8414   -5.5011 H   0  0  0  1  0  0  0  0  0  0  0  0
   -1.0168   -4.4078   -8.1132 H   0  0  0  1  0  0  0  0  0  0  0  0
    0.9569   -3.0157   -7.9306 H   0  0  0  1  0  0  0  0  0  0  0  0
   -3.9381   -4.7512   -8.6217 H   0  0  0  1  0  0  0  0  0  0  0  0
   -3.9421   -5.8478   -7.2616 H   0  0  0  1  0  0  0  0  0  0  0  0
   -2.4289   -5.3637   -7.9895 H   0  0  0  1  0  0  0  0  0  0  0  0
    5.3956    1.7123   -3.2899 H   0  0  0  1  0  0  0  0  0  0  0  0
    3.4736    1.3905   -1.1866 H   0  0  0  1  0  0  0  0  0  0  0  0
    4.8195   -0.9117   -1.6582 H   0  0  0  1  0  0  0  0  0  0  0  0
    4.4273   -0.4027   -0.0330 H   0  0  0  1  0  0  0  0  0  0  0  0
    7.0348   -0.0199   -1.5174 H   0  0  0  1  0  0  0  0  0  0  0  0
    6.2436    1.4370    1.0026 H   0  0  0  1  0  0  0  0  0  0  0  0
    7.4437    1.8995   -0.1807 H   0  0  0  1  0  0  0  0  0  0  0  0
    5.8775    2.8535   -1.5616 H   0  0  0  1  0  0  0  0  0  0  0  0
    4.8596    2.8686   -0.1411 H   0  0  0  1  0  0  0  0  0  0  0  0
    6.9342   -1.8566   -0.0394 H   0  0  0  1  0  0  0  0  0  0  0  0
    6.3475   -0.9653    1.1531 H   0  0  0  1  0  0  0  0  0  0  0  0
  1  2  4  0  0  0  0
  1  6  4  0  0  0  0
  2  3  4  0  0  0  0
  2 18  1  0  0  0  0
  3  4  4  0  0  0  0
  4  5  4  0  0  0  0
  4  7  4  0  0  0  0
  5  6  4  0  0  0  0
  5  9  4  0  0  0  0
  6 25  1  0  0  0  0
  7  8  4  0  0  0  0
  7 26  1  0  0  0  0
  8  9  4  0  0  0  0
  9 10  1  0  0  0  0
 10 11  4  0  0  0  0
 10 15  4  0  0  0  0
 11 12  4  0  0  0  0
 11 27  1  0  0  0  0
 12 13  4  0  0  0  0
 12 28  1  0  0  0  0
 13 14  4  0  0  0  0
 13 16  1  0  0  0  0
 14 15  4  0  0  0  0
 14 29  1  0  0  0  0
 15 30  1  0  0  0  0
 16 17  1  0  0  0  0
 17 31  1  0  0  0  0
 17 32  1  0  0  0  0
 17 33  1  0  0  0  0
 18 19  1  0  0  0  0
 18 34  1  0  0  0  0
 19 20  1  0  0  0  0
 19 23  1  0  0  0  0
 19 35  1  0  0  0  0
 20 21  1  0  0  0  0
 20 36  1  0  0  0  0
 20 37  1  0  0  0  0
 21 22  1  0  0  0  0
 21 24  1  0  0  0  0
 21 38  1  0  0  0  0
 22 23  1  0  0  0  0
 22 39  1  0  0  0  0
 22 40  1  0  0  0  0
 23 41  1  0  0  0  0
 23 42  1  0  0  0  0
 24 43  1  0  0  0  0
 24 44  1  0  0  0  0
M  END
> <ConfClashScore>
0 

> <ConfOneFourInteractionScore>
-0.984337 

> <ConfScore>
-0.0668842 

> <ConfScorePBest>
0.00417967 

> <ConfTolerance>
0.318689 

$$$$
c13.sdf
 OpenBabel04162418043D

 44 47  0  0  0  0  0  0  0  0999 V2000
    1.9091    1.2186   -3.9732 N   0  0  0  1  0  0  0  0  0  0  0  0
    2.6466    0.7983   -2.9594 C   0  0  0  1  0  0  0  0  0  0  0  0
    2.3821   -0.3105   -2.3071 N   0  0  0  1  0  0  0  0  0  0  0  0
    1.3366   -1.0652   -2.6548 C   0  0  0  1  0  0  0  0  0  0  0  0
    0.5272   -0.6471   -3.7326 C   0  0  0  1  0  0  0  0  0  0  0  0
    0.8554    0.5365   -4.3870 C   0  0  0  1  0  0  0  0  0  0  0  0
    0.7887   -2.2765   -2.1790 C   0  0  0  1  0  0  0  0  0  0  0  0
   -0.2574   -2.5733   -2.8967 N   0  0  0  1  0  0  0  0  0  0  0  0
   -0.4568   -1.5887   -3.8733 N   0  0  0  1  0  0  0  0  0  0  0  0
   -1.5306   -1.6804   -4.7817 C   0  0  0  1  0  0  0  0  0  0  0  0
   -1.3387   -1.8426   -6.1407 C   0  0  0  1  0  0  0  0  0  0  0  0
   -2.4314   -1.9324   -6.9890 C   0  0  0  1  0  0  0  0  0  0  0  0
   -3.7126   -1.8544   -6.4765 C   0  0  0  1  0  0  0  0  0  0  0  0
   -3.9049   -1.6916   -5.1134 C   0  0  0  1  0  0  0  0  0  0  0  0
   -2.8155   -1.6020   -4.2675 C   0  0  0  1  0  0  0  0  0  0  0  0
   -4.7359   -1.9437   -7.3590 O   0  0  0  1  0  0  0  0  0  0  0  0
   -6.0631   -2.0344   -6.8178 C   0  0  0  1  0  0  0  0  0  0  0  0
    3.7378    1.4979   -2.5254 N   0  0  0  1  0  0  0  0  0  0  0  0
    4.4038    1.1827   -1.2397 C   0  0  0  1  0  0  0  0  0  0  0  0
    5.0764   -0.1903   -1.3095 C   0  0  0  1  0  0  0  0  0  0  0  0
    6.4415   -0.0423   -0.6255 C   0  0  0  1  0  0  0  0  0  0  0  0
    6.4531    1.3769   -0.0471 C   0  0  0  1  0  0  0  0  0  0  0  0
    5.5307    2.1810   -0.9634 C   0  0  0  1  0  0  0  0  0  0  0  0
    6.5926   -1.0534    0.4656 N   0  0  0  1  0  0  0  0  0  0  0  0
    0.2830    0.8774   -5.1856 H   0  0  0  1  0  0  0  0  0  0  0  0
    1.1590   -2.8390   -1.3864 H   0  0  0  1  0  0  0  0  0  0  0  0
   -0.3746   -1.8973   -6.5269 H   0  0  0  1  0  0  0  0  0  0  0  0
   -2.2870   -2.0586   -8.0112 H   0  0  0  1  0  0  0  0  0  0  0  0
   -4.8690   -1.6369   -4.7271 H   0  0  0  1  0  0  0  0  0  0  0  0
   -2.9598   -1.4759   -3.2453 H   0  0  0  1  0  0  0  0  0  0  0  0
   -6.1957   -2.9900   -6.3553 H   0  0  0  1  0  0  0  0  0  0  0  0
   -6.7778   -1.9173   -7.6054 H   0  0  0  1  0  0  0  0  0  0  0  0
   -6.2045   -1.2632   -6.0897 H   0  0  0  1  0  0  0  0  0  0  0  0
    4.0887    2.2266   -3.0787 H   0  0  0  1  0  0  0  0  0  0  0  0
    3.6831    1.2054   -0.4491 H   0  0  0  1  0  0  0  0  0  0  0  0
    4.4835   -0.9187   -0.7969 H   0  0  0  1  0  0  0  0  0  0  0  0
    5.2045   -0.4875   -2.3293 H   0  0  0  1  0  0  0  0  0  0  0  0
    7.2318   -0.1634   -1.3367 H   0  0  0  1  0  0  0  0  0  0  0  0
    7.4437    1.7812   -0.0612 H   0  0  0  1  0  0  0  0  0  0  0  0
    6.0813    1.3777    0.9562 H   0  0  0  1  0  0  0  0  0  0  0  0
    6.0301    2.4625   -1.8669 H   0  0  0  1  0  0  0  0  0  0  0  0
    5.1618    3.0566   -0.4715 H   0  0  0  1  0  0  0  0  0  0  0  0
    5.8315   -0.9884    1.0795 H   0  0  0  1  0  0  0  0  0  0  0  0
    7.4234   -0.8825    0.9563 H   0  0  0  1  0  0  0  0  0  0  0  0
  1  2  4  0  0  0  0
  1  6  4  0  0  0  0
  2  3  4  0  0  0  0
  2 18  1  0  0  0  0
  3  4  4  0  0  0  0
  4  5  4  0  0  0  0
  4  7  4  0  0  0  0
  5  6  4  0  0  0  0
  5  9  4  0  0  0  0
  6 25  1  0  0  0  0
  7  8  4  0  0  0  0
  7 26  1  0  0  0  0
  8  9  4  0  0  0  0
  9 10  1  0  0  0  0
 10 11  4  0  0  0  0
 10 15  4  0  0  0  0
 11 12  4  0  0  0  0
 11 27  1  0  0  0  0
 12 13  4  0  0  0  0
 12 28  1  0  0  0  0
 13 14  4  0  0  0  0
 13 16  1  0  0  0  0
 14 15  4  0  0  0  0
 14 29  1  0  0  0  0
 15 30  1  0  0  0  0
 16 17  1  0  0  0  0
 17 31  1  0  0  0  0
 17 32  1  0  0  0  0
 17 33  1  0  0  0  0
 18 19  1  0  0  0  0
 18 34  1  0  0  0  0
 19 20  1  0  0  0  0
 19 23  1  0  0  0  0
 19 35  1  0  0  0  0
 20 21  1  0  0  0  0
 20 36  1  0  0  0  0
 20 37  1  0  0  0  0
 21 22  1  0  0  0  0
 21 24  1  0  0  0  0
 21 38  1  0  0  0  0
 22 23  1  0  0  0  0
 22 39  1  0  0  0  0
 22 40  1  0  0  0  0
 23 41  1  0  0  0  0
 23 42  1  0  0  0  0
 24 43  1  0  0  0  0
 24 44  1  0  0  0  0
M  END
> <ConfClashScore>
0 

> <ConfOneFourInteractionScore>
-0.978154 

> <ConfScore>
-0.0659356 

> <ConfScorePBest>
0.00416634 

> <ConfTolerance>
0.300346 

$$$$
c13.sdf
 OpenBabel04162418043D

 44 47  0  0  0  0  0  0  0  0999 V2000
    3.9501    0.7457   -5.1378 N   0  0  0  1  0  0  0  0  0  0  0  0
    3.7717    0.5770   -3.8385 C   0  0  0  1  0  0  0  0  0  0  0  0
    2.7379   -0.0665   -3.3465 N   0  0  0  1  0  0  0  0  0  0  0  0
    1.8137   -0.5821   -4.1611 C   0  0  0  1  0  0  0  0  0  0  0  0
    1.9718   -0.4211   -5.5540 C   0  0  0  1  0  0  0  0  0  0  0  0
    3.0871    0.2699   -6.0184 C   0  0  0  1  0  0  0  0  0  0  0  0
    0.6182   -1.3083   -3.9674 C   0  0  0  1  0  0  0  0  0  0  0  0
    0.0931   -1.5680   -5.1310 N   0  0  0  1  0  0  0  0  0  0  0  0
    0.9004   -1.0356   -6.1447 N   0  0  0  1  0  0  0  0  0  0  0  0
    0.4904   -1.1073   -7.5058 C   0  0  0  1  0  0  0  0  0  0  0  0
    1.3495   -1.5046   -8.5128 C   0  0  0  1  0  0  0  0  0  0  0  0
    0.8770   -1.6560   -9.8071 C   0  0  0  1  0  0  0  0  0  0  0  0
   -0.4520   -1.4044  -10.0917 C   0  0  0  1  0  0  0  0  0  0  0  0
   -1.3135   -1.0059   -9.0815 C   0  0  0  1  0  0  0  0  0  0  0  0
   -0.8425   -0.8549   -7.7909 C   0  0  0  1  0  0  0  0  0  0  0  0
   -0.9100   -1.5465  -11.3507 O   0  0  0  1  0  0  0  0  0  0  0  0
    0.0794   -1.9685  -12.3180 C   0  0  0  1  0  0  0  0  0  0  0  0
    4.6825    1.0829   -2.9876 N   0  0  0  1  0  0  0  0  0  0  0  0
    4.4811    1.1821   -1.5412 C   0  0  0  1  0  0  0  0  0  0  0  0
    4.8552   -0.1366   -0.8557 C   0  0  0  1  0  0  0  0  0  0  0  0
    6.3330    0.0149   -0.4951 C   0  0  0  1  0  0  0  0  0  0  0  0
    6.4046    1.4755   -0.0433 C   0  0  0  1  0  0  0  0  0  0  0  0
    5.4220    2.2334   -0.9390 C   0  0  0  1  0  0  0  0  0  0  0  0
    6.7199   -0.9147    0.6104 N   0  0  0  1  0  0  0  0  0  0  0  0
    3.2383    0.4091   -7.0379 H   0  0  0  1  0  0  0  0  0  0  0  0
    0.2223   -1.5894   -3.0477 H   0  0  0  1  0  0  0  0  0  0  0  0
    2.3504   -1.6900   -8.2996 H   0  0  0  1  0  0  0  0  0  0  0  0
    1.5225   -1.9588  -10.5642 H   0  0  0  1  0  0  0  0  0  0  0  0
   -2.3144   -0.8205   -9.2947 H   0  0  0  1  0  0  0  0  0  0  0  0
   -1.4880   -0.5521   -7.0338 H   0  0  0  1  0  0  0  0  0  0  0  0
   -0.3807   -2.0690  -13.2788 H   0  0  0  1  0  0  0  0  0  0  0  0
    0.4907   -2.9101  -12.0195 H   0  0  0  1  0  0  0  0  0  0  0  0
    0.8599   -1.2385  -12.3712 H   0  0  0  1  0  0  0  0  0  0  0  0
    5.5311    1.4039   -3.3580 H   0  0  0  1  0  0  0  0  0  0  0  0
    3.4608    1.4331   -1.3391 H   0  0  0  1  0  0  0  0  0  0  0  0
    4.2657   -0.2836    0.0251 H   0  0  0  1  0  0  0  0  0  0  0  0
    4.7128   -0.9613   -1.5225 H   0  0  0  1  0  0  0  0  0  0  0  0
    6.9598   -0.1599   -1.3445 H   0  0  0  1  0  0  0  0  0  0  0  0
    7.3961    1.8573   -0.1703 H   0  0  0  1  0  0  0  0  0  0  0  0
    6.1171    1.5630    0.9837 H   0  0  0  1  0  0  0  0  0  0  0  0
    5.9499    2.7452   -1.7164 H   0  0  0  1  0  0  0  0  0  0  0  0
    4.8644    2.9402   -0.3607 H   0  0  0  1  0  0  0  0  0  0  0  0
    7.6825   -0.8406    0.7782 H   0  0  0  1  0  0  0  0  0  0  0  0
    6.5031   -1.8353    0.3536 H   0  0  0  1  0  0  0  0  0  0  0  0
  1  2  4  0  0  0  0
  1  6  4  0  0  0  0
  2  3  4  0  0  0  0
  2 18  1  0  0  0  0
  3  4  4  0  0  0  0
  4  5  4  0  0  0  0
  4  7  4  0  0  0  0
  5  6  4  0  0  0  0
  5  9  4  0  0  0  0
  6 25  1  0  0  0  0
  7  8  4  0  0  0  0
  7 26  1  0  0  0  0
  8  9  4  0  0  0  0
  9 10  1  0  0  0  0
 10 11  4  0  0  0  0
 10 15  4  0  0  0  0
 11 12  4  0  0  0  0
 11 27  1  0  0  0  0
 12 13  4  0  0  0  0
 12 28  1  0  0  0  0
 13 14  4  0  0  0  0
 13 16  1  0  0  0  0
 14 15  4  0  0  0  0
 14 29  1  0  0  0  0
 15 30  1  0  0  0  0
 16 17  1  0  0  0  0
 17 31  1  0  0  0  0
 17 32  1  0  0  0  0
 17 33  1  0  0  0  0
 18 19  1  0  0  0  0
 18 34  1  0  0  0  0
 19 20  1  0  0  0  0
 19 23  1  0  0  0  0
 19 35  1  0  0  0  0
 20 21  1  0  0  0  0
 20 36  1  0  0  0  0
 20 37  1  0  0  0  0
 21 22  1  0  0  0  0
 21 24  1  0  0  0  0
 21 38  1  0  0  0  0
 22 23  1  0  0  0  0
 22 39  1  0  0  0  0
 22 40  1  0  0  0  0
 23 41  1  0  0  0  0
 23 42  1  0  0  0  0
 24 43  1  0  0  0  0
 24 44  1  0  0  0  0
M  END
> <ConfClashScore>
0 

> <ConfOneFourInteractionScore>
-0.984337 

> <ConfScore>
-0.0646705 

> <ConfScorePBest>
0.00415302 

> <ConfTolerance>
0.307421 

$$$$
c13.sdf
 OpenBabel04162418043D

 44 47  0  0  0  0  0  0  0  0999 V2000
    1.6613    2.2926   -3.2925 N   0  0  0  1  0  0  0  0  0  0  0  0
    2.2864    2.0732   -2.1482 C   0  0  0  1  0  0  0  0  0  0  0  0
    1.7768    2.4205   -0.9885 N   0  0  0  1  0  0  0  0  0  0  0  0
    0.5848    3.0195   -0.9273 C   0  0  0  1  0  0  0  0  0  0  0  0
   -0.1110    3.2694   -2.1293 C   0  0  0  1  0  0  0  0  0  0  0  0
    0.4777    2.8795   -3.3287 C   0  0  0  1  0  0  0  0  0  0  0  0
   -0.2248    3.5075    0.1217 C   0  0  0  1  0  0  0  0  0  0  0  0
   -1.3137    4.0089   -0.3884 N   0  0  0  1  0  0  0  0  0  0  0  0
   -1.2853    3.8825   -1.7834 N   0  0  0  1  0  0  0  0  0  0  0  0
   -2.3659    4.3568   -2.5806 C   0  0  0  1  0  0  0  0  0  0  0  0
   -3.5847    4.6336   -1.9906 C   0  0  0  1  0  0  0  0  0  0  0  0
   -4.6087    5.1875   -2.7429 C   0  0  0  1  0  0  0  0  0  0  0  0
   -4.4128    5.4581   -4.0841 C   0  0  0  1  0  0  0  0  0  0  0  0
   -3.1903    5.1804   -4.6756 C   0  0  0  1  0  0  0  0  0  0  0  0
   -2.1691    4.6281   -3.9257 C   0  0  0  1  0  0  0  0  0  0  0  0
   -5.3836    6.0814   -4.7933 O   0  0  0  1  0  0  0  0  0  0  0  0
   -6.6581    6.2504   -4.1534 C   0  0  0  1  0  0  0  0  0  0  0  0
    3.4895    1.4719   -2.1710 N   0  0  0  1  0  0  0  0  0  0  0  0
    4.3980    1.0446   -1.1038 C   0  0  0  1  0  0  0  0  0  0  0  0
    5.2711   -0.1739   -1.5556 C   0  0  0  1  0  0  0  0  0  0  0  0
    6.4779   -0.1000   -0.6019 C   0  0  0  1  0  0  0  0  0  0  0  0
    6.6666    1.4064   -0.2081 C   0  0  0  1  0  0  0  0  0  0  0  0
    5.4594    2.1133   -0.8160 C   0  0  0  1  0  0  0  0  0  0  0  0
    6.2200   -0.9054    0.5990 N   0  0  0  1  0  0  0  0  0  0  0  0
   -0.0041    3.0466   -4.2351 H   0  0  0  1  0  0  0  0  0  0  0  0
    0.0095    3.4723    1.1344 H   0  0  0  1  0  0  0  0  0  0  0  0
   -3.7335    4.4263   -0.9824 H   0  0  0  1  0  0  0  0  0  0  0  0
   -5.5246    5.3995   -2.2981 H   0  0  0  1  0  0  0  0  0  0  0  0
   -3.0415    5.3877   -5.6838 H   0  0  0  1  0  0  0  0  0  0  0  0
   -1.2533    4.4160   -4.3704 H   0  0  0  1  0  0  0  0  0  0  0  0
   -7.2110    5.3362   -4.2116 H   0  0  0  1  0  0  0  0  0  0  0  0
   -7.2034    7.0287   -4.6451 H   0  0  0  1  0  0  0  0  0  0  0  0
   -6.5094    6.5122   -3.1266 H   0  0  0  1  0  0  0  0  0  0  0  0
    3.8217    1.2837   -3.0736 H   0  0  0  1  0  0  0  0  0  0  0  0
    3.8329    0.8124   -0.2254 H   0  0  0  1  0  0  0  0  0  0  0  0
    4.7399   -1.0947   -1.4344 H   0  0  0  1  0  0  0  0  0  0  0  0
    5.5788   -0.0705   -2.5752 H   0  0  0  1  0  0  0  0  0  0  0  0
    7.3562   -0.4630   -1.0936 H   0  0  0  1  0  0  0  0  0  0  0  0
    7.5767    1.7930   -0.6169 H   0  0  0  1  0  0  0  0  0  0  0  0
    6.6759    1.5209    0.8557 H   0  0  0  1  0  0  0  0  0  0  0  0
    5.7417    2.6022   -1.7249 H   0  0  0  1  0  0  0  0  0  0  0  0
    5.0736    2.8353   -0.1270 H   0  0  0  1  0  0  0  0  0  0  0  0
    5.3410   -0.6742    0.9653 H   0  0  0  1  0  0  0  0  0  0  0  0
    6.9113   -0.7228    1.2692 H   0  0  0  1  0  0  0  0  0  0  0  0
  1  2  4  0  0  0  0
  1  6  4  0  0  0  0
  2  3  4  0  0  0  0
  2 18  1  0  0  0  0
  3  4  4  0  0  0  0
  4  5  4  0  0  0  0
  4  7  4  0  0  0  0
  5  6  4  0  0  0  0
  5  9  4  0  0  0  0
  6 25  1  0  0  0  0
  7  8  4  0  0  0  0
  7 26  1  0  0  0  0
  8  9  4  0  0  0  0
  9 10  1  0  0  0  0
 10 11  4  0  0  0  0
 10 15  4  0  0  0  0
 11 12  4  0  0  0  0
 11 27  1  0  0  0  0
 12 13  4  0  0  0  0
 12 28  1  0  0  0  0
 13 14  4  0  0  0  0
 13 16  1  0  0  0  0
 14 15  4  0  0  0  0
 14 29  1  0  0  0  0
 15 30  1  0  0  0  0
 16 17  1  0  0  0  0
 17 31  1  0  0  0  0
 17 32  1  0  0  0  0
 17 33  1  0  0  0  0
 18 19  1  0  0  0  0
 18 34  1  0  0  0  0
 19 20  1  0  0  0  0
 19 23  1  0  0  0  0
 19 35  1  0  0  0  0
 20 21  1  0  0  0  0
 20 36  1  0  0  0  0
 20 37  1  0  0  0  0
 21 22  1  0  0  0  0
 21 24  1  0  0  0  0
 21 38  1  0  0  0  0
 22 23  1  0  0  0  0
 22 39  1  0  0  0  0
 22 40  1  0  0  0  0
 23 41  1  0  0  0  0
 23 42  1  0  0  0  0
 24 43  1  0  0  0  0
 24 44  1  0  0  0  0
M  END
> <ConfClashScore>
0 

> <ConfOneFourInteractionScore>
-0.984337 

> <ConfScore>
-0.0643592 

> <ConfScorePBest>
0.00413969 

> <ConfTolerance>
0.293472 

$$$$
c13.sdf
 OpenBabel04162418043D

 44 47  0  0  0  0  0  0  0  0999 V2000
    3.4821    2.9069   -3.6604 N   0  0  0  1  0  0  0  0  0  0  0  0
    4.5478    2.1721   -3.9302 C   0  0  0  1  0  0  0  0  0  0  0  0
    5.1069    2.1503   -5.1184 N   0  0  0  1  0  0  0  0  0  0  0  0
    4.6055    2.8860   -6.1138 C   0  0  0  1  0  0  0  0  0  0  0  0
    3.4683    3.6827   -5.8619 C   0  0  0  1  0  0  0  0  0  0  0  0
    2.9181    3.6662   -4.5836 C   0  0  0  1  0  0  0  0  0  0  0  0
    4.9524    3.0867   -7.4679 C   0  0  0  1  0  0  0  0  0  0  0  0
    4.1082    3.9267   -7.9962 N   0  0  0  1  0  0  0  0  0  0  0  0
    3.1692    4.3226   -7.0347 N   0  0  0  1  0  0  0  0  0  0  0  0
    2.0892    5.1636   -7.3913 C   0  0  0  1  0  0  0  0  0  0  0  0
    0.9773    5.2442   -6.5744 C   0  0  0  1  0  0  0  0  0  0  0  0
   -0.0787    6.0724   -6.9212 C   0  0  0  1  0  0  0  0  0  0  0  0
   -0.0222    6.8135   -8.0864 C   0  0  0  1  0  0  0  0  0  0  0  0
    1.0931    6.7326   -8.9056 C   0  0  0  1  0  0  0  0  0  0  0  0
    2.1462    5.9068   -8.5600 C   0  0  0  1  0  0  0  0  0  0  0  0
   -1.1128    7.5807   -8.3228 O   0  0  0  1  0  0  0  0  0  0  0  0
   -1.2227    8.1823   -9.6223 C   0  0  0  1  0  0  0  0  0  0  0  0
    5.1297    1.3939   -2.9927 N   0  0  0  1  0  0  0  0  0  0  0  0
    4.5932    1.2084   -1.6239 C   0  0  0  1  0  0  0  0  0  0  0  0
    4.9278   -0.1911   -1.0965 C   0  0  0  1  0  0  0  0  0  0  0  0
    6.3777   -0.0292   -0.6708 C   0  0  0  1  0  0  0  0  0  0  0  0
    6.4380    1.3637   -0.0351 C   0  0  0  1  0  0  0  0  0  0  0  0
    5.2768    2.1632   -0.6411 C   0  0  0  1  0  0  0  0  0  0  0  0
    6.7532   -1.0695    0.3127 N   0  0  0  1  0  0  0  0  0  0  0  0
    2.0801    4.2398   -4.3593 H   0  0  0  1  0  0  0  0  0  0  0  0
    5.7501    2.6381   -7.9618 H   0  0  0  1  0  0  0  0  0  0  0  0
    0.9329    4.6834   -5.6996 H   0  0  0  1  0  0  0  0  0  0  0  0
   -0.9137    6.1361   -6.3045 H   0  0  0  1  0  0  0  0  0  0  0  0
    1.1375    7.2933   -9.7804 H   0  0  0  1  0  0  0  0  0  0  0  0
    2.9812    5.8431   -9.1767 H   0  0  0  1  0  0  0  0  0  0  0  0
   -2.2549    8.3373   -9.8579 H   0  0  0  1  0  0  0  0  0  0  0  0
   -0.7836    7.5354  -10.3528 H   0  0  0  1  0  0  0  0  0  0  0  0
   -0.7116    9.1223   -9.6242 H   0  0  0  1  0  0  0  0  0  0  0  0
    5.9558    0.9240   -3.2317 H   0  0  0  1  0  0  0  0  0  0  0  0
    3.5350    1.3667   -1.6306 H   0  0  0  1  0  0  0  0  0  0  0  0
    4.8281   -0.9299   -1.8641 H   0  0  0  1  0  0  0  0  0  0  0  0
    4.3057   -0.4527   -0.2662 H   0  0  0  1  0  0  0  0  0  0  0  0
    7.0291   -0.0867   -1.5178 H   0  0  0  1  0  0  0  0  0  0  0  0
    7.3712    1.8351   -0.2632 H   0  0  0  1  0  0  0  0  0  0  0  0
    6.3242    1.2918    1.0264 H   0  0  0  1  0  0  0  0  0  0  0  0
    4.5922    2.4662    0.1233 H   0  0  0  1  0  0  0  0  0  0  0  0
    5.6449    3.0272   -1.1538 H   0  0  0  1  0  0  0  0  0  0  0  0
    6.0681   -1.1215    1.0115 H   0  0  0  1  0  0  0  0  0  0  0  0
    7.6157   -0.8399    0.7175 H   0  0  0  1  0  0  0  0  0  0  0  0
  1  2  4  0  0  0  0
  1  6  4  0  0  0  0
  2  3  4  0  0  0  0
  2 18  1  0  0  0  0
  3  4  4  0  0  0  0
  4  5  4  0  0  0  0
  4  7  4  0  0  0  0
  5  6  4  0  0  0  0
  5  9  4  0  0  0  0
  6 25  1  0  0  0  0
  7  8  4  0  0  0  0
  7 26  1  0  0  0  0
  8  9  4  0  0  0  0
  9 10  1  0  0  0  0
 10 11  4  0  0  0  0
 10 15  4  0  0  0  0
 11 12  4  0  0  0  0
 11 27  1  0  0  0  0
 12 13  4  0  0  0  0
 12 28  1  0  0  0  0
 13 14  4  0  0  0  0
 13 16  1  0  0  0  0
 14 15  4  0  0  0  0
 14 29  1  0  0  0  0
 15 30  1  0  0  0  0
 16 17  1  0  0  0  0
 17 31  1  0  0  0  0
 17 32  1  0  0  0  0
 17 33  1  0  0  0  0
 18 19  1  0  0  0  0
 18 34  1  0  0  0  0
 19 20  1  0  0  0  0
 19 23  1  0  0  0  0
 19 35  1  0  0  0  0
 20 21  1  0  0  0  0
 20 36  1  0  0  0  0
 20 37  1  0  0  0  0
 21 22  1  0  0  0  0
 21 24  1  0  0  0  0
 21 38  1  0  0  0  0
 22 23  1  0  0  0  0
 22 39  1  0  0  0  0
 22 40  1  0  0  0  0
 23 41  1  0  0  0  0
 23 42  1  0  0  0  0
 24 43  1  0  0  0  0
 24 44  1  0  0  0  0
M  END
> <ConfClashScore>
0 

> <ConfOneFourInteractionScore>
-0.984337 

> <ConfScore>
-0.0641324 

> <ConfScorePBest>
0.00412636 

> <ConfTolerance>
0.37606 

$$$$
c13.sdf
 OpenBabel04162418043D

 44 47  0  0  0  0  0  0  0  0999 V2000
    2.7549    2.3334   -4.2938 N   0  0  0  1  0  0  0  0  0  0  0  0
    3.0052    1.5429   -3.2638 C   0  0  0  1  0  0  0  0  0  0  0  0
    2.2250    0.5368   -2.9411 N   0  0  0  1  0  0  0  0  0  0  0  0
    1.1298    0.2748   -3.6590 C   0  0  0  1  0  0  0  0  0  0  0  0
    0.8314    1.0981   -4.7656 C   0  0  0  1  0  0  0  0  0  0  0  0
    1.6941    2.1497   -5.0604 C   0  0  0  1  0  0  0  0  0  0  0  0
    0.1086   -0.6978   -3.5869 C   0  0  0  1  0  0  0  0  0  0  0  0
   -0.7359   -0.4907   -4.5571 N   0  0  0  1  0  0  0  0  0  0  0  0
   -0.3262    0.6147   -5.3141 N   0  0  0  1  0  0  0  0  0  0  0  0
   -1.0479    1.0895   -6.4463 C   0  0  0  1  0  0  0  0  0  0  0  0
   -0.4350    1.1425   -7.6839 C   0  0  0  1  0  0  0  0  0  0  0  0
   -1.1392    1.5995   -8.7869 C   0  0  0  1  0  0  0  0  0  0  0  0
   -2.4526    2.0073   -8.6481 C   0  0  0  1  0  0  0  0  0  0  0  0
   -3.0671    1.9540   -7.4067 C   0  0  0  1  0  0  0  0  0  0  0  0
   -2.3651    1.4983   -6.3068 C   0  0  0  1  0  0  0  0  0  0  0  0
   -3.1388    2.4587   -9.7247 O   0  0  0  1  0  0  0  0  0  0  0  0
   -4.4963    2.8754   -9.5100 C   0  0  0  1  0  0  0  0  0  0  0  0
    4.1055    1.7778   -2.5138 N   0  0  0  1  0  0  0  0  0  0  0  0
    4.3966    1.0918   -1.2611 C   0  0  0  1  0  0  0  0  0  0  0  0
    5.2292   -0.2113   -1.5232 C   0  0  0  1  0  0  0  0  0  0  0  0
    6.4928   -0.1285   -0.6469 C   0  0  0  1  0  0  0  0  0  0  0  0
    6.7268    1.4144   -0.5219 C   0  0  0  1  0  0  0  0  0  0  0  0
    5.2962    1.9470   -0.3745 C   0  0  0  1  0  0  0  0  0  0  0  0
    6.2600   -0.7483    0.6938 N   0  0  0  1  0  0  0  0  0  0  0  0
    1.5078    2.7782   -5.8678 H   0  0  0  1  0  0  0  0  0  0  0  0
    0.0417   -1.4545   -2.8766 H   0  0  0  1  0  0  0  0  0  0  0  0
    0.5545    0.8394   -7.7876 H   0  0  0  1  0  0  0  0  0  0  0  0
   -0.6793    1.6356   -9.7190 H   0  0  0  1  0  0  0  0  0  0  0  0
   -4.0566    2.2571   -7.3030 H   0  0  0  1  0  0  0  0  0  0  0  0
   -2.8249    1.4622   -5.3747 H   0  0  0  1  0  0  0  0  0  0  0  0
   -5.1464    2.0293   -9.5890 H   0  0  0  1  0  0  0  0  0  0  0  0
   -4.7667    3.6026  -10.2469 H   0  0  0  1  0  0  0  0  0  0  0  0
   -4.5872    3.3049   -8.5342 H   0  0  0  1  0  0  0  0  0  0  0  0
    4.7450    2.4491   -2.8312 H   0  0  0  1  0  0  0  0  0  0  0  0
    3.4804    0.8607   -0.7592 H   0  0  0  1  0  0  0  0  0  0  0  0
    4.6542   -1.0733   -1.2565 H   0  0  0  1  0  0  0  0  0  0  0  0
    5.5027   -0.2699   -2.5560 H   0  0  0  1  0  0  0  0  0  0  0  0
    7.3234   -0.6070   -1.1223 H   0  0  0  1  0  0  0  0  0  0  0  0
    7.3185    1.6487    0.3383 H   0  0  0  1  0  0  0  0  0  0  0  0
    7.1988    1.8075   -1.3980 H   0  0  0  1  0  0  0  0  0  0  0  0
    4.9817    1.8722    0.6455 H   0  0  0  1  0  0  0  0  0  0  0  0
    5.2527    2.9692   -0.6877 H   0  0  0  1  0  0  0  0  0  0  0  0
    5.5194   -0.2892    1.1423 H   0  0  0  1  0  0  0  0  0  0  0  0
    7.0717   -0.6662    1.2367 H   0  0  0  1  0  0  0  0  0  0  0  0
  1  2  4  0  0  0  0
  1  6  4  0  0  0  0
  2  3  4  0  0  0  0
  2 18  1  0  0  0  0
  3  4  4  0  0  0  0
  4  5  4  0  0  0  0
  4  7  4  0  0  0  0
  5  6  4  0  0  0  0
  5  9  4  0  0  0  0
  6 25  1  0  0  0  0
  7  8  4  0  0  0  0
  7 26  1  0  0  0  0
  8  9  4  0  0  0  0
  9 10  1  0  0  0  0
 10 11  4  0  0  0  0
 10 15  4  0  0  0  0
 11 12  4  0  0  0  0
 11 27  1  0  0  0  0
 12 13  4  0  0  0  0
 12 28  1  0  0  0  0
 13 14  4  0  0  0  0
 13 16  1  0  0  0  0
 14 15  4  0  0  0  0
 14 29  1  0  0  0  0
 15 30  1  0  0  0  0
 16 17  1  0  0  0  0
 17 31  1  0  0  0  0
 17 32  1  0  0  0  0
 17 33  1  0  0  0  0
 18 19  1  0  0  0  0
 18 34  1  0  0  0  0
 19 20  1  0  0  0  0
 19 23  1  0  0  0  0
 19 35  1  0  0  0  0
 20 21  1  0  0  0  0
 20 36  1  0  0  0  0
 20 37  1  0  0  0  0
 21 22  1  0  0  0  0
 21 24  1  0  0  0  0
 21 38  1  0  0  0  0
 22 23  1  0  0  0  0
 22 39  1  0  0  0  0
 22 40  1  0  0  0  0
 23 41  1  0  0  0  0
 23 42  1  0  0  0  0
 24 43  1  0  0  0  0
 24 44  1  0  0  0  0
M  END
> <ConfClashScore>
0 

> <ConfOneFourInteractionScore>
-0.984337 

> <ConfScore>
-0.0638817 

> <ConfScorePBest>
0.00411303 

> <ConfTolerance>
0.420819 

$$$$
c13.sdf
 OpenBabel04162418043D

 44 47  0  0  0  0  0  0  0  0999 V2000
    2.3430    2.7386   -2.4266 N   0  0  0  1  0  0  0  0  0  0  0  0
    3.1964    2.2297   -3.2990 C   0  0  0  1  0  0  0  0  0  0  0  0
    3.0833    2.4258   -4.5927 N   0  0  0  1  0  0  0  0  0  0  0  0
    2.0803    3.1616   -5.0787 C   0  0  0  1  0  0  0  0  0  0  0  0
    1.1504    3.7205   -4.1764 C   0  0  0  1  0  0  0  0  0  0  0  0
    1.3201    3.4793   -2.8163 C   0  0  0  1  0  0  0  0  0  0  0  0
    1.6797    3.5559   -6.3741 C   0  0  0  1  0  0  0  0  0  0  0  0
    0.6060    4.2873   -6.2756 N   0  0  0  1  0  0  0  0  0  0  0  0
    0.2418    4.4155   -4.9288 N   0  0  0  1  0  0  0  0  0  0  0  0
   -0.8458    5.2349   -4.5147 C   0  0  0  1  0  0  0  0  0  0  0  0
   -2.1258    4.9623   -4.9590 C   0  0  0  1  0  0  0  0  0  0  0  0
   -3.1701    5.8111   -4.6265 C   0  0  0  1  0  0  0  0  0  0  0  0
   -2.9304    6.9327   -3.8553 C   0  0  0  1  0  0  0  0  0  0  0  0
   -1.6465    7.2060   -3.4098 C   0  0  0  1  0  0  0  0  0  0  0  0
   -0.6052    6.3598   -3.7412 C   0  0  0  1  0  0  0  0  0  0  0  0
   -4.0248    7.6883   -3.5997 O   0  0  0  1  0  0  0  0  0  0  0  0
   -3.8185    8.9282   -2.9049 C   0  0  0  1  0  0  0  0  0  0  0  0
    4.2194    1.4830   -2.8458 N   0  0  0  1  0  0  0  0  0  0  0  0
    4.4680    1.2129   -1.4270 C   0  0  0  1  0  0  0  0  0  0  0  0
    5.0474   -0.1967   -1.2479 C   0  0  0  1  0  0  0  0  0  0  0  0
    6.4279    0.0066   -0.6173 C   0  0  0  1  0  0  0  0  0  0  0  0
    6.3248    1.3525    0.1085 C   0  0  0  1  0  0  0  0  0  0  0  0
    5.5206    2.1822   -0.8787 C   0  0  0  1  0  0  0  0  0  0  0  0
    6.7287   -1.0733    0.3323 N   0  0  0  1  0  0  0  0  0  0  0  0
    0.6555    3.8741   -2.1205 H   0  0  0  1  0  0  0  0  0  0  0  0
    2.1620    3.3041   -7.2604 H   0  0  0  1  0  0  0  0  0  0  0  0
   -2.3055    4.1205   -5.5426 H   0  0  0  1  0  0  0  0  0  0  0  0
   -4.1340    5.6038   -4.9574 H   0  0  0  1  0  0  0  0  0  0  0  0
   -1.4668    8.0478   -2.8261 H   0  0  0  1  0  0  0  0  0  0  0  0
    0.3588    6.5669   -3.4104 H   0  0  0  1  0  0  0  0  0  0  0  0
   -4.6719    9.5594   -3.0395 H   0  0  0  1  0  0  0  0  0  0  0  0
   -2.9497    9.4154   -3.2957 H   0  0  0  1  0  0  0  0  0  0  0  0
   -3.6801    8.7335   -1.8619 H   0  0  0  1  0  0  0  0  0  0  0  0
    4.8350    1.0968   -3.5033 H   0  0  0  1  0  0  0  0  0  0  0  0
    3.5538    1.3100   -0.8794 H   0  0  0  1  0  0  0  0  0  0  0  0
    5.1374   -0.6872   -2.1947 H   0  0  0  1  0  0  0  0  0  0  0  0
    4.4233   -0.7784   -0.6022 H   0  0  0  1  0  0  0  0  0  0  0  0
    7.1864    0.0409   -1.3711 H   0  0  0  1  0  0  0  0  0  0  0  0
    5.8109    1.2526    1.0417 H   0  0  0  1  0  0  0  0  0  0  0  0
    7.2919    1.7783    0.2771 H   0  0  0  1  0  0  0  0  0  0  0  0
    5.0529    3.0085   -0.3852 H   0  0  0  1  0  0  0  0  0  0  0  0
    6.1473    2.5448   -1.6664 H   0  0  0  1  0  0  0  0  0  0  0  0
    5.9589   -1.2139    0.9224 H   0  0  0  1  0  0  0  0  0  0  0  0
    7.5109   -0.8275    0.8691 H   0  0  0  1  0  0  0  0  0  0  0  0
  1  2  4  0  0  0  0
  1  6  4  0  0  0  0
  2  3  4  0  0  0  0
  2 18  1  0  0  0  0
  3  4  4  0  0  0  0
  4  5  4  0  0  0  0
  4  7  4  0  0  0  0
  5  6  4  0  0  0  0
  5  9  4  0  0  0  0
  6 25  1  0  0  0  0
  7  8  4  0  0  0  0
  7 26  1  0  0  0  0
  8  9  4  0  0  0  0
  9 10  1  0  0  0  0
 10 11  4  0  0  0  0
 10 15  4  0  0  0  0
 11 12  4  0  0  0  0
 11 27  1  0  0  0  0
 12 13  4  0  0  0  0
 12 28  1  0  0  0  0
 13 14  4  0  0  0  0
 13 16  1  0  0  0  0
 14 15  4  0  0  0  0
 14 29  1  0  0  0  0
 15 30  1  0  0  0  0
 16 17  1  0  0  0  0
 17 31  1  0  0  0  0
 17 32  1  0  0  0  0
 17 33  1  0  0  0  0
 18 19  1  0  0  0  0
 18 34  1  0  0  0  0
 19 20  1  0  0  0  0
 19 23  1  0  0  0  0
 19 35  1  0  0  0  0
 20 21  1  0  0  0  0
 20 36  1  0  0  0  0
 20 37  1  0  0  0  0
 21 22  1  0  0  0  0
 21 24  1  0  0  0  0
 21 38  1  0  0  0  0
 22 23  1  0  0  0  0
 22 39  1  0  0  0  0
 22 40  1  0  0  0  0
 23 41  1  0  0  0  0
 23 42  1  0  0  0  0
 24 43  1  0  0  0  0
 24 44  1  0  0  0  0
M  END
> <ConfClashScore>
0 

> <ConfOneFourInteractionScore>
-0.984337 

> <ConfScore>
-0.0634236 

> <ConfScorePBest>
0.0040997 

> <ConfTolerance>
0.31801 

$$$$
c13.sdf
 OpenBabel04162418043D

 44 47  0  0  0  0  0  0  0  0999 V2000
    4.3166    3.6367   -2.8551 N   0  0  0  1  0  0  0  0  0  0  0  0
    4.9298    2.6835   -3.5360 C   0  0  0  1  0  0  0  0  0  0  0  0
    5.4047    2.8748   -4.7455 N   0  0  0  1  0  0  0  0  0  0  0  0
    5.2803    4.0647   -5.3389 C   0  0  0  1  0  0  0  0  0  0  0  0
    4.6312    5.1057   -4.6416 C   0  0  0  1  0  0  0  0  0  0  0  0
    4.1480    4.8453   -3.3626 C   0  0  0  1  0  0  0  0  0  0  0  0
    5.6652    4.5907   -6.5916 C   0  0  0  1  0  0  0  0  0  0  0  0
    5.2880    5.8361   -6.6564 N   0  0  0  1  0  0  0  0  0  0  0  0
    4.6418    6.1979   -5.4671 N   0  0  0  1  0  0  0  0  0  0  0  0
    4.0163    7.4478   -5.3465 C   0  0  0  1  0  0  0  0  0  0  0  0
    4.1413    8.2852   -4.2541 C   0  0  0  1  0  0  0  0  0  0  0  0
    3.4834    9.5052   -4.2374 C   0  0  0  1  0  0  0  0  0  0  0  0
    2.6982    9.8819   -5.3106 C   0  0  0  1  0  0  0  0  0  0  0  0
    2.5730    9.0419   -6.4062 C   0  0  0  1  0  0  0  0  0  0  0  0
    3.2290    7.8255   -6.4231 C   0  0  0  1  0  0  0  0  0  0  0  0
    2.1016   11.0905   -5.1789 O   0  0  0  1  0  0  0  0  0  0  0  0
    1.3927   11.6001   -6.3192 C   0  0  0  1  0  0  0  0  0  0  0  0
    5.0774    1.4377   -2.9540 N   0  0  0  1  0  0  0  0  0  0  0  0
    4.5508    1.1933   -1.6104 C   0  0  0  1  0  0  0  0  0  0  0  0
    4.9715   -0.1837   -1.0910 C   0  0  0  1  0  0  0  0  0  0  0  0
    6.3784    0.0032   -0.5182 C   0  0  0  1  0  0  0  0  0  0  0  0
    6.5565    1.5084   -0.2820 C   0  0  0  1  0  0  0  0  0  0  0  0
    5.1891    2.1307   -0.5853 C   0  0  0  1  0  0  0  0  0  0  0  0
    6.5124   -0.7326    0.7561 N   0  0  0  1  0  0  0  0  0  0  0  0
    3.6640    5.5869   -2.8173 H   0  0  0  1  0  0  0  0  0  0  0  0
    6.1670    4.0700   -7.3391 H   0  0  0  1  0  0  0  0  0  0  0  0
    4.7288    8.0000   -3.4447 H   0  0  0  1  0  0  0  0  0  0  0  0
    3.5806   10.1371   -3.4171 H   0  0  0  1  0  0  0  0  0  0  0  0
    1.9855    9.3271   -7.2156 H   0  0  0  1  0  0  0  0  0  0  0  0
    3.1318    7.1935   -7.2433 H   0  0  0  1  0  0  0  0  0  0  0  0
    0.7548   10.8369   -6.7136 H   0  0  0  1  0  0  0  0  0  0  0  0
    2.0938   11.9013   -7.0693 H   0  0  0  1  0  0  0  0  0  0  0  0
    0.8015   12.4417   -6.0244 H   0  0  0  1  0  0  0  0  0  0  0  0
    5.5339    0.7198   -3.4404 H   0  0  0  1  0  0  0  0  0  0  0  0
    3.4858    1.2958   -1.6200 H   0  0  0  1  0  0  0  0  0  0  0  0
    4.9853   -0.8956   -1.8897 H   0  0  0  1  0  0  0  0  0  0  0  0
    4.2991   -0.5161   -0.3279 H   0  0  0  1  0  0  0  0  0  0  0  0
    7.1104   -0.3507   -1.2137 H   0  0  0  1  0  0  0  0  0  0  0  0
    6.8372    1.6975    0.7331 H   0  0  0  1  0  0  0  0  0  0  0  0
    7.3024    1.9049   -0.9387 H   0  0  0  1  0  0  0  0  0  0  0  0
    5.3047    3.1129   -0.9938 H   0  0  0  1  0  0  0  0  0  0  0  0
    4.5930    2.1808    0.3019 H   0  0  0  1  0  0  0  0  0  0  0  0
    7.4520   -0.7361    1.0346 H   0  0  0  1  0  0  0  0  0  0  0  0
    6.2045   -1.6550    0.6344 H   0  0  0  1  0  0  0  0  0  0  0  0
  1  2  4  0  0  0  0
  1  6  4  0  0  0  0
  2  3  4  0  0  0  0
  2 18  1  0  0  0  0
  3  4  4  0  0  0  0
  4  5  4  0  0  0  0
  4  7  4  0  0  0  0
  5  6  4  0  0  0  0
  5  9  4  0  0  0  0
  6 25  1  0  0  0  0
  7  8  4  0  0  0  0
  7 26  1  0  0  0  0
  8  9  4  0  0  0  0
  9 10  1  0  0  0  0
 10 11  4  0  0  0  0
 10 15  4  0  0  0  0
 11 12  4  0  0  0  0
 11 27  1  0  0  0  0
 12 13  4  0  0  0  0
 12 28  1  0  0  0  0
 13 14  4  0  0  0  0
 13 16  1  0  0  0  0
 14 15  4  0  0  0  0
 14 29  1  0  0  0  0
 15 30  1  0  0  0  0
 16 17  1  0  0  0  0
 17 31  1  0  0  0  0
 17 32  1  0  0  0  0
 17 33  1  0  0  0  0
 18 19  1  0  0  0  0
 18 34  1  0  0  0  0
 19 20  1  0  0  0  0
 19 23  1  0  0  0  0
 19 35  1  0  0  0  0
 20 21  1  0  0  0  0
 20 36  1  0  0  0  0
 20 37  1  0  0  0  0
 21 22  1  0  0  0  0
 21 24  1  0  0  0  0
 21 38  1  0  0  0  0
 22 23  1  0  0  0  0
 22 39  1  0  0  0  0
 22 40  1  0  0  0  0
 23 41  1  0  0  0  0
 23 42  1  0  0  0  0
 24 43  1  0  0  0  0
 24 44  1  0  0  0  0
M  END
> <ConfClashScore>
0 

> <ConfOneFourInteractionScore>
-0.981848 

> <ConfScore>
-0.0628885 

> <ConfScorePBest>
0.00408638 

> <ConfTolerance>
0.356148 

$$$$
c13.sdf
 OpenBabel04162418043D

 44 47  0  0  0  0  0  0  0  0999 V2000
    2.6988    3.3266   -1.3809 N   0  0  0  1  0  0  0  0  0  0  0  0
    2.7307    2.4969   -2.4099 C   0  0  0  1  0  0  0  0  0  0  0  0
    1.9784    2.6633   -3.4735 N   0  0  0  1  0  0  0  0  0  0  0  0
    1.1386    3.6988   -3.5508 C   0  0  0  1  0  0  0  0  0  0  0  0
    1.0781    4.6049   -2.4707 C   0  0  0  1  0  0  0  0  0  0  0  0
    1.8986    4.3784   -1.3696 C   0  0  0  1  0  0  0  0  0  0  0  0
    0.2185    4.1566   -4.5194 C   0  0  0  1  0  0  0  0  0  0  0  0
   -0.3520    5.2404   -4.0754 N   0  0  0  1  0  0  0  0  0  0  0  0
    0.1517    5.5554   -2.8066 N   0  0  0  1  0  0  0  0  0  0  0  0
   -0.4090    6.6572   -2.1014 C   0  0  0  1  0  0  0  0  0  0  0  0
   -1.7638    6.6865   -1.8298 C   0  0  0  1  0  0  0  0  0  0  0  0
   -2.3089    7.7570   -1.1383 C   0  0  0  1  0  0  0  0  0  0  0  0
   -1.4987    8.7978   -0.7251 C   0  0  0  1  0  0  0  0  0  0  0  0
   -0.1398    8.7683   -0.9977 C   0  0  0  1  0  0  0  0  0  0  0  0
    0.4038    7.7009   -1.6871 C   0  0  0  1  0  0  0  0  0  0  0  0
   -2.0408    9.8845   -0.1421 O   0  0  0  1  0  0  0  0  0  0  0  0
   -3.4417    9.7624    0.1974 C   0  0  0  1  0  0  0  0  0  0  0  0
    3.5647    1.4423   -2.3672 N   0  0  0  1  0  0  0  0  0  0  0  0
    4.3792    1.0914   -1.2001 C   0  0  0  1  0  0  0  0  0  0  0  0
    5.2696   -0.1628   -1.4963 C   0  0  0  1  0  0  0  0  0  0  0  0
    6.4412   -0.0153   -0.4678 C   0  0  0  1  0  0  0  0  0  0  0  0
    6.5779    1.5057   -0.1765 C   0  0  0  1  0  0  0  0  0  0  0  0
    5.4052    2.1991   -0.8922 C   0  0  0  1  0  0  0  0  0  0  0  0
    6.1182   -0.7632    0.8022 N   0  0  0  1  0  0  0  0  0  0  0  0
    1.8824    5.0239   -0.5542 H   0  0  0  1  0  0  0  0  0  0  0  0
    0.0278    3.7033   -5.4358 H   0  0  0  1  0  0  0  0  0  0  0  0
   -2.3742    5.9053   -2.1441 H   0  0  0  1  0  0  0  0  0  0  0  0
   -3.3277    7.7772   -0.9304 H   0  0  0  1  0  0  0  0  0  0  0  0
    0.4706    9.5494   -0.6833 H   0  0  0  1  0  0  0  0  0  0  0  0
    1.4226    7.6807   -1.8951 H   0  0  0  1  0  0  0  0  0  0  0  0
   -3.5602    9.0276    0.9661 H   0  0  0  1  0  0  0  0  0  0  0  0
   -3.9937    9.4638   -0.6693 H   0  0  0  1  0  0  0  0  0  0  0  0
   -3.8074   10.7055    0.5463 H   0  0  0  1  0  0  0  0  0  0  0  0
    3.6317    0.8750   -3.1635 H   0  0  0  1  0  0  0  0  0  0  0  0
    3.7414    0.9170   -0.3588 H   0  0  0  1  0  0  0  0  0  0  0  0
    5.6362   -0.1450   -2.5013 H   0  0  0  1  0  0  0  0  0  0  0  0
    4.7247   -1.0686   -1.3307 H   0  0  0  1  0  0  0  0  0  0  0  0
    7.3501   -0.3956   -0.8849 H   0  0  0  1  0  0  0  0  0  0  0  0
    6.5253    1.6857    0.8770 H   0  0  0  1  0  0  0  0  0  0  0  0
    7.5093    1.8715   -0.5552 H   0  0  0  1  0  0  0  0  0  0  0  0
    5.7417    2.6563   -1.7992 H   0  0  0  1  0  0  0  0  0  0  0  0
    4.9700    2.9426   -0.2576 H   0  0  0  1  0  0  0  0  0  0  0  0
    6.8504   -0.6501    1.4436 H   0  0  0  1  0  0  0  0  0  0  0  0
    6.0052   -1.7155    0.6005 H   0  0  0  1  0  0  0  0  0  0  0  0
  1  2  4  0  0  0  0
  1  6  4  0  0  0  0
  2  3  4  0  0  0  0
  2 18  1  0  0  0  0
  3  4  4  0  0  0  0
  4  5  4  0  0  0  0
  4  7  4  0  0  0  0
  5  6  4  0  0  0  0
  5  9  4  0  0  0  0
  6 25  1  0  0  0  0
  7  8  4  0  0  0  0
  7 26  1  0  0  0  0
  8  9  4  0  0  0  0
  9 10  1  0  0  0  0
 10 11  4  0  0  0  0
 10 15  4  0  0  0  0
 11 12  4  0  0  0  0
 11 27  1  0  0  0  0
 12 13  4  0  0  0  0
 12 28  1  0  0  0  0
 13 14  4  0  0  0  0
 13 16  1  0  0  0  0
 14 15  4  0  0  0  0
 14 29  1  0  0  0  0
 15 30  1  0  0  0  0
 16 17  1  0  0  0  0
 17 31  1  0  0  0  0
 17 32  1  0  0  0  0
 17 33  1  0  0  0  0
 18 19  1  0  0  0  0
 18 34  1  0  0  0  0
 19 20  1  0  0  0  0
 19 23  1  0  0  0  0
 19 35  1  0  0  0  0
 20 21  1  0  0  0  0
 20 36  1  0  0  0  0
 20 37  1  0  0  0  0
 21 22  1  0  0  0  0
 21 24  1  0  0  0  0
 21 38  1  0  0  0  0
 22 23  1  0  0  0  0
 22 39  1  0  0  0  0
 22 40  1  0  0  0  0
 23 41  1  0  0  0  0
 23 42  1  0  0  0  0
 24 43  1  0  0  0  0
 24 44  1  0  0  0  0
M  END
> <ConfClashScore>
0 

> <ConfOneFourInteractionScore>
-0.981848 

> <ConfScore>
-0.0628885 

> <ConfScorePBest>
0.00407305 

> <ConfTolerance>
0.277137 

$$$$
c13.sdf
 OpenBabel04162418043D

 44 47  0  0  0  0  0  0  0  0999 V2000
    1.4626    1.2951   -3.1778 N   0  0  0  1  0  0  0  0  0  0  0  0
    2.1504    1.1345   -2.0600 C   0  0  0  1  0  0  0  0  0  0  0  0
    1.6037    0.6834   -0.9543 N   0  0  0  1  0  0  0  0  0  0  0  0
    0.3069    0.3657   -0.9235 C   0  0  0  1  0  0  0  0  0  0  0  0
   -0.4582    0.5244   -2.0985 C   0  0  0  1  0  0  0  0  0  0  0  0
    0.1743    1.0066   -3.2406 C   0  0  0  1  0  0  0  0  0  0  0  0
   -0.5671   -0.1303    0.0686 C   0  0  0  1  0  0  0  0  0  0  0  0
   -1.7553   -0.2632   -0.4488 N   0  0  0  1  0  0  0  0  0  0  0  0
   -1.7338    0.1320   -1.7928 N   0  0  0  1  0  0  0  0  0  0  0  0
   -2.8749    0.0104   -2.6346 C   0  0  0  1  0  0  0  0  0  0  0  0
   -3.1497    0.9886   -3.5715 C   0  0  0  1  0  0  0  0  0  0  0  0
   -4.2581    0.8675   -4.3950 C   0  0  0  1  0  0  0  0  0  0  0  0
   -5.0915   -0.2286   -4.2756 C   0  0  0  1  0  0  0  0  0  0  0  0
   -4.8158   -1.2096   -3.3359 C   0  0  0  1  0  0  0  0  0  0  0  0
   -3.7106   -1.0890   -2.5147 C   0  0  0  1  0  0  0  0  0  0  0  0
   -6.1208   -0.3885   -5.1410 O   0  0  0  1  0  0  0  0  0  0  0  0
   -6.3353    0.6539   -6.1054 C   0  0  0  1  0  0  0  0  0  0  0  0
    3.4521    1.4427   -2.0537 N   0  0  0  1  0  0  0  0  0  0  0  0
    4.4282    1.0796   -1.0210 C   0  0  0  1  0  0  0  0  0  0  0  0
    5.2845   -0.1672   -1.4581 C   0  0  0  1  0  0  0  0  0  0  0  0
    6.5327   -0.0202   -0.5297 C   0  0  0  1  0  0  0  0  0  0  0  0
    6.7139    1.4760   -0.2654 C   0  0  0  1  0  0  0  0  0  0  0  0
    5.4905    2.1587   -0.8618 C   0  0  0  1  0  0  0  0  0  0  0  0
    6.3069   -0.7394    0.7458 N   0  0  0  1  0  0  0  0  0  0  0  0
   -0.3560    1.1371   -4.1256 H   0  0  0  1  0  0  0  0  0  0  0  0
   -0.3054   -0.3529    1.0503 H   0  0  0  1  0  0  0  0  0  0  0  0
   -2.5249    1.8154   -3.6587 H   0  0  0  1  0  0  0  0  0  0  0  0
   -4.4627    1.6015   -5.1028 H   0  0  0  1  0  0  0  0  0  0  0  0
   -5.4406   -2.0365   -3.2487 H   0  0  0  1  0  0  0  0  0  0  0  0
   -3.5060   -1.8230   -1.8069 H   0  0  0  1  0  0  0  0  0  0  0  0
   -6.8538    0.2556   -6.9524 H   0  0  0  1  0  0  0  0  0  0  0  0
   -5.3916    1.0491   -6.4187 H   0  0  0  1  0  0  0  0  0  0  0  0
   -6.9201    1.4334   -5.6636 H   0  0  0  1  0  0  0  0  0  0  0  0
    3.7866    1.9624   -2.8142 H   0  0  0  1  0  0  0  0  0  0  0  0
    3.9197    0.8965   -0.0975 H   0  0  0  1  0  0  0  0  0  0  0  0
    5.5564   -0.1129   -2.4915 H   0  0  0  1  0  0  0  0  0  0  0  0
    4.7645   -1.0839   -1.2732 H   0  0  0  1  0  0  0  0  0  0  0  0
    7.4006   -0.4162   -1.0142 H   0  0  0  1  0  0  0  0  0  0  0  0
    7.6054    1.8316   -0.7383 H   0  0  0  1  0  0  0  0  0  0  0  0
    6.7683    1.6637    0.7866 H   0  0  0  1  0  0  0  0  0  0  0  0
    5.1403    2.9282   -0.2059 H   0  0  0  1  0  0  0  0  0  0  0  0
    5.7316    2.5833   -1.8139 H   0  0  0  1  0  0  0  0  0  0  0  0
    6.2400   -1.7015    0.5715 H   0  0  0  1  0  0  0  0  0  0  0  0
    5.4748   -0.4234    1.1559 H   0  0  0  1  0  0  0  0  0  0  0  0
  1  2  4  0  0  0  0
  1  6  4  0  0  0  0
  2  3  4  0  0  0  0
  2 18  1  0  0  0  0
  3  4  4  0  0  0  0
  4  5  4  0  0  0  0
  4  7  4  0  0  0  0
  5  6  4  0  0  0  0
  5  9  4  0  0  0  0
  6 25  1  0  0  0  0
  7  8  4  0  0  0  0
  7 26  1  0  0  0  0
  8  9  4  0  0  0  0
  9 10  1  0  0  0  0
 10 11  4  0  0  0  0
 10 15  4  0  0  0  0
 11 12  4  0  0  0  0
 11 27  1  0  0  0  0
 12 13  4  0  0  0  0
 12 28  1  0  0  0  0
 13 14  4  0  0  0  0
 13 16  1  0  0  0  0
 14 15  4  0  0  0  0
 14 29  1  0  0  0  0
 15 30  1  0  0  0  0
 16 17  1  0  0  0  0
 17 31  1  0  0  0  0
 17 32  1  0  0  0  0
 17 33  1  0  0  0  0
 18 19  1  0  0  0  0
 18 34  1  0  0  0  0
 19 20  1  0  0  0  0
 19 23  1  0  0  0  0
 19 35  1  0  0  0  0
 20 21  1  0  0  0  0
 20 36  1  0  0  0  0
 20 37  1  0  0  0  0
 21 22  1  0  0  0  0
 21 24  1  0  0  0  0
 21 38  1  0  0  0  0
 22 23  1  0  0  0  0
 22 39  1  0  0  0  0
 22 40  1  0  0  0  0
 23 41  1  0  0  0  0
 23 42  1  0  0  0  0
 24 43  1  0  0  0  0
 24 44  1  0  0  0  0
M  END
> <ConfClashScore>
0 

> <ConfOneFourInteractionScore>
-0.984337 

> <ConfScore>
-0.0622271 

> <ConfScorePBest>
0.00405972 

> <ConfTolerance>
0.310127 

$$$$
c13.sdf
 OpenBabel04162418043D

 44 47  0  0  0  0  0  0  0  0999 V2000
    3.3075   -0.4286   -3.3030 N   0  0  0  1  0  0  0  0  0  0  0  0
    3.5114    0.8649   -3.4866 C   0  0  0  1  0  0  0  0  0  0  0  0
    3.1822    1.4796   -4.5996 N   0  0  0  1  0  0  0  0  0  0  0  0
    2.6186    0.8025   -5.6033 C   0  0  0  1  0  0  0  0  0  0  0  0
    2.3859   -0.5800   -5.4422 C   0  0  0  1  0  0  0  0  0  0  0  0
    2.7554   -1.1782   -4.2411 C   0  0  0  1  0  0  0  0  0  0  0  0
    2.1574    1.1463   -6.8929 C   0  0  0  1  0  0  0  0  0  0  0  0
    1.6865    0.0764   -7.4681 N   0  0  0  1  0  0  0  0  0  0  0  0
    1.8085   -1.0191   -6.6033 N   0  0  0  1  0  0  0  0  0  0  0  0
    1.3505   -2.2947   -7.0407 C   0  0  0  1  0  0  0  0  0  0  0  0
    1.7923   -3.4415   -6.4085 C   0  0  0  1  0  0  0  0  0  0  0  0
    1.3423   -4.6827   -6.8308 C   0  0  0  1  0  0  0  0  0  0  0  0
    0.4561   -4.7739   -7.8875 C   0  0  0  1  0  0  0  0  0  0  0  0
    0.0130   -3.6235   -8.5215 C   0  0  0  1  0  0  0  0  0  0  0  0
    0.4616   -2.3859   -8.1005 C   0  0  0  1  0  0  0  0  0  0  0  0
    0.0937   -5.9878   -8.3660 O   0  0  0  1  0  0  0  0  0  0  0  0
   -0.6337   -6.0146   -9.6040 C   0  0  0  1  0  0  0  0  0  0  0  0
    4.0818    1.6470   -2.5215 N   0  0  0  1  0  0  0  0  0  0  0  0
    4.4364    1.1094   -1.2040 C   0  0  0  1  0  0  0  0  0  0  0  0
    5.2153   -0.2443   -1.3490 C   0  0  0  1  0  0  0  0  0  0  0  0
    6.5343   -0.0969   -0.5681 C   0  0  0  1  0  0  0  0  0  0  0  0
    6.8170    1.4406   -0.6535 C   0  0  0  1  0  0  0  0  0  0  0  0
    5.4137    2.0366   -0.4886 C   0  0  0  1  0  0  0  0  0  0  0  0
    6.3717   -0.5360    0.8501 N   0  0  0  1  0  0  0  0  0  0  0  0
    2.6001   -2.1946   -4.0849 H   0  0  0  1  0  0  0  0  0  0  0  0
    2.1884    2.0968   -7.3140 H   0  0  0  1  0  0  0  0  0  0  0  0
    2.4623   -3.3732   -5.6160 H   0  0  0  1  0  0  0  0  0  0  0  0
    1.6717   -5.5455   -6.3525 H   0  0  0  1  0  0  0  0  0  0  0  0
   -0.6569   -3.6918   -9.3140 H   0  0  0  1  0  0  0  0  0  0  0  0
    0.1323   -1.5231   -8.5788 H   0  0  0  1  0  0  0  0  0  0  0  0
   -1.4058   -5.2742   -9.5808 H   0  0  0  1  0  0  0  0  0  0  0  0
   -1.0713   -6.9816   -9.7394 H   0  0  0  1  0  0  0  0  0  0  0  0
    0.0339   -5.8081  -10.4142 H   0  0  0  1  0  0  0  0  0  0  0  0
    4.2583    2.5914   -2.7150 H   0  0  0  1  0  0  0  0  0  0  0  0
    3.5485    0.9744   -0.6225 H   0  0  0  1  0  0  0  0  0  0  0  0
    4.6357   -1.0460   -0.9413 H   0  0  0  1  0  0  0  0  0  0  0  0
    5.4203   -0.4404   -2.3807 H   0  0  0  1  0  0  0  0  0  0  0  0
    7.3196   -0.6593   -1.0284 H   0  0  0  1  0  0  0  0  0  0  0  0
    7.4688    1.7595    0.1329 H   0  0  0  1  0  0  0  0  0  0  0  0
    7.2422    1.7050   -1.5991 H   0  0  0  1  0  0  0  0  0  0  0  0
    5.3775    3.0128   -0.9252 H   0  0  0  1  0  0  0  0  0  0  0  0
    5.1634    2.1003    0.5498 H   0  0  0  1  0  0  0  0  0  0  0  0
    6.0017   -1.4432    0.8713 H   0  0  0  1  0  0  0  0  0  0  0  0
    5.7625    0.0759    1.3135 H   0  0  0  1  0  0  0  0  0  0  0  0
  1  2  4  0  0  0  0
  1  6  4  0  0  0  0
  2  3  4  0  0  0  0
  2 18  1  0  0  0  0
  3  4  4  0  0  0  0
  4  5  4  0  0  0  0
  4  7  4  0  0  0  0
  5  6  4  0  0  0  0
  5  9  4  0  0  0  0
  6 25  1  0  0  0  0
  7  8  4  0  0  0  0
  7 26  1  0  0  0  0
  8  9  4  0  0  0  0
  9 10  1  0  0  0  0
 10 11  4  0  0  0  0
 10 15  4  0  0  0  0
 11 12  4  0  0  0  0
 11 27  1  0  0  0  0
 12 13  4  0  0  0  0
 12 28  1  0  0  0  0
 13 14  4  0  0  0  0
 13 16  1  0  0  0  0
 14 15  4  0  0  0  0
 14 29  1  0  0  0  0
 15 30  1  0  0  0  0
 16 17  1  0  0  0  0
 17 31  1  0  0  0  0
 17 32  1  0  0  0  0
 17 33  1  0  0  0  0
 18 19  1  0  0  0  0
 18 34  1  0  0  0  0
 19 20  1  0  0  0  0
 19 23  1  0  0  0  0
 19 35  1  0  0  0  0
 20 21  1  0  0  0  0
 20 36  1  0  0  0  0
 20 37  1  0  0  0  0
 21 22  1  0  0  0  0
 21 24  1  0  0  0  0
 21 38  1  0  0  0  0
 22 23  1  0  0  0  0
 22 39  1  0  0  0  0
 22 40  1  0  0  0  0
 23 41  1  0  0  0  0
 23 42  1  0  0  0  0
 24 43  1  0  0  0  0
 24 44  1  0  0  0  0
M  END
> <ConfClashScore>
0 

> <ConfOneFourInteractionScore>
-0.985399 

> <ConfScore>
-0.0617123 

> <ConfScorePBest>
0.00404639 

> <ConfTolerance>
0.354867 

$$$$
c13.sdf
 OpenBabel04162418043D

 44 47  0  0  0  0  0  0  0  0999 V2000
    2.6939    1.3839   -4.4065 N   0  0  0  1  0  0  0  0  0  0  0  0
    3.1719    0.8485   -3.2959 C   0  0  0  1  0  0  0  0  0  0  0  0
    2.9436   -0.4005   -2.9602 N   0  0  0  1  0  0  0  0  0  0  0  0
    2.2049   -1.1867   -3.7474 C   0  0  0  1  0  0  0  0  0  0  0  0
    1.6784   -0.6487   -4.9410 C   0  0  0  1  0  0  0  0  0  0  0  0
    1.9530    0.6813   -5.2456 C   0  0  0  1  0  0  0  0  0  0  0  0
    1.7808   -2.5322   -3.6845 C   0  0  0  1  0  0  0  0  0  0  0  0
    1.0625   -2.7944   -4.7393 N   0  0  0  1  0  0  0  0  0  0  0  0
    0.9727   -1.6533   -5.5471 N   0  0  0  1  0  0  0  0  0  0  0  0
    0.2317   -1.7245   -6.7498 C   0  0  0  1  0  0  0  0  0  0  0  0
   -0.2058   -0.5650   -7.3616 C   0  0  0  1  0  0  0  0  0  0  0  0
   -0.9273   -0.6347   -8.5431 C   0  0  0  1  0  0  0  0  0  0  0  0
   -1.2140   -1.8638   -9.1065 C   0  0  0  1  0  0  0  0  0  0  0  0
   -0.7753   -3.0267   -8.4927 C   0  0  0  1  0  0  0  0  0  0  0  0
   -0.0558   -2.9573   -7.3147 C   0  0  0  1  0  0  0  0  0  0  0  0
   -1.9126   -2.0564  -10.2505 O   0  0  0  1  0  0  0  0  0  0  0  0
   -2.1187   -0.9125  -11.0940 C   0  0  0  1  0  0  0  0  0  0  0  0
    3.9415    1.6322   -2.4553 N   0  0  0  1  0  0  0  0  0  0  0  0
    4.4281    1.0315   -1.2211 C   0  0  0  1  0  0  0  0  0  0  0  0
    5.2669   -0.2102   -1.5327 C   0  0  0  1  0  0  0  0  0  0  0  0
    6.4720   -0.1411   -0.5915 C   0  0  0  1  0  0  0  0  0  0  0  0
    6.7420    1.3623   -0.5270 C   0  0  0  1  0  0  0  0  0  0  0  0
    5.3532    2.0091   -0.4852 C   0  0  0  1  0  0  0  0  0  0  0  0
    6.1389   -0.6903    0.7568 N   0  0  0  1  0  0  0  0  0  0  0  0
    1.5827    1.1135   -6.1160 H   0  0  0  1  0  0  0  0  0  0  0  0
    2.0049   -3.2030   -2.9220 H   0  0  0  1  0  0  0  0  0  0  0  0
    0.0065    0.3597   -6.9356 H   0  0  0  1  0  0  0  0  0  0  0  0
   -1.2531    0.2380   -9.0056 H   0  0  0  1  0  0  0  0  0  0  0  0
   -0.9875   -3.9514   -8.9187 H   0  0  0  1  0  0  0  0  0  0  0  0
    0.2700   -3.8300   -6.8521 H   0  0  0  1  0  0  0  0  0  0  0  0
   -2.6030   -1.2179  -11.9980 H   0  0  0  1  0  0  0  0  0  0  0  0
   -1.1742   -0.4676  -11.3284 H   0  0  0  1  0  0  0  0  0  0  0  0
   -2.7325   -0.1996  -10.5841 H   0  0  0  1  0  0  0  0  0  0  0  0
    4.1525    2.5617   -2.6829 H   0  0  0  1  0  0  0  0  0  0  0  0
    3.5975    0.7698   -0.5995 H   0  0  0  1  0  0  0  0  0  0  0  0
    5.5889   -0.1967   -2.5530 H   0  0  0  1  0  0  0  0  0  0  0  0
    4.7003   -1.0990   -1.3487 H   0  0  0  1  0  0  0  0  0  0  0  0
    7.3106   -0.6692   -0.9951 H   0  0  0  1  0  0  0  0  0  0  0  0
    7.2983    1.6075    0.3535 H   0  0  0  1  0  0  0  0  0  0  0  0
    7.2821    1.6854   -1.3923 H   0  0  0  1  0  0  0  0  0  0  0  0
    5.3666    2.9573   -0.9809 H   0  0  0  1  0  0  0  0  0  0  0  0
    5.0311    2.1397    0.5268 H   0  0  0  1  0  0  0  0  0  0  0  0
    5.3787   -0.1984    1.1317 H   0  0  0  1  0  0  0  0  0  0  0  0
    6.9139   -0.5944    1.3489 H   0  0  0  1  0  0  0  0  0  0  0  0
  1  2  4  0  0  0  0
  1  6  4  0  0  0  0
  2  3  4  0  0  0  0
  2 18  1  0  0  0  0
  3  4  4  0  0  0  0
  4  5  4  0  0  0  0
  4  7  4  0  0  0  0
  5  6  4  0  0  0  0
  5  9  4  0  0  0  0
  6 25  1  0  0  0  0
  7  8  4  0  0  0  0
  7 26  1  0  0  0  0
  8  9  4  0  0  0  0
  9 10  1  0  0  0  0
 10 11  4  0  0  0  0
 10 15  4  0  0  0  0
 11 12  4  0  0  0  0
 11 27  1  0  0  0  0
 12 13  4  0  0  0  0
 12 28  1  0  0  0  0
 13 14  4  0  0  0  0
 13 16  1  0  0  0  0
 14 15  4  0  0  0  0
 14 29  1  0  0  0  0
 15 30  1  0  0  0  0
 16 17  1  0  0  0  0
 17 31  1  0  0  0  0
 17 32  1  0  0  0  0
 17 33  1  0  0  0  0
 18 19  1  0  0  0  0
 18 34  1  0  0  0  0
 19 20  1  0  0  0  0
 19 23  1  0  0  0  0
 19 35  1  0  0  0  0
 20 21  1  0  0  0  0
 20 36  1  0  0  0  0
 20 37  1  0  0  0  0
 21 22  1  0  0  0  0
 21 24  1  0  0  0  0
 21 38  1  0  0  0  0
 22 23  1  0  0  0  0
 22 39  1  0  0  0  0
 22 40  1  0  0  0  0
 23 41  1  0  0  0  0
 23 42  1  0  0  0  0
 24 43  1  0  0  0  0
 24 44  1  0  0  0  0
M  END
> <ConfClashScore>
0 

> <ConfOneFourInteractionScore>
-0.981848 

> <ConfScore>
-0.0612785 

> <ConfScorePBest>
0.00403306 

> <ConfTolerance>
0.284558 

$$$$
c13.sdf
 OpenBabel04162418043D

 44 47  0  0  0  0  0  0  0  0999 V2000
    1.8386   -0.1161   -1.6897 N   0  0  0  1  0  0  0  0  0  0  0  0
    2.2505    0.9450   -2.3625 C   0  0  0  1  0  0  0  0  0  0  0  0
    1.5030    1.5439   -3.2612 N   0  0  0  1  0  0  0  0  0  0  0  0
    0.2762    1.0898   -3.5298 C   0  0  0  1  0  0  0  0  0  0  0  0
   -0.1964   -0.0412   -2.8304 C   0  0  0  1  0  0  0  0  0  0  0  0
    0.6395   -0.6348   -1.8893 C   0  0  0  1  0  0  0  0  0  0  0  0
   -0.7553    1.4862   -4.4090 C   0  0  0  1  0  0  0  0  0  0  0  0
   -1.7646    0.6755   -4.2628 N   0  0  0  1  0  0  0  0  0  0  0  0
   -1.4612   -0.2887   -3.2926 N   0  0  0  1  0  0  0  0  0  0  0  0
   -2.4531   -1.1650   -2.8076 C   0  0  0  1  0  0  0  0  0  0  0  0
   -2.9917   -2.1748   -3.5824 C   0  0  0  1  0  0  0  0  0  0  0  0
   -3.9615   -3.0119   -3.0532 C   0  0  0  1  0  0  0  0  0  0  0  0
   -4.3938   -2.8336   -1.7526 C   0  0  0  1  0  0  0  0  0  0  0  0
   -3.8534   -1.8207   -0.9756 C   0  0  0  1  0  0  0  0  0  0  0  0
   -2.8864   -0.9859   -1.5031 C   0  0  0  1  0  0  0  0  0  0  0  0
   -5.3406   -3.6127   -1.1780 O   0  0  0  1  0  0  0  0  0  0  0  0
   -6.0206   -4.5518   -2.0254 C   0  0  0  1  0  0  0  0  0  0  0  0
    3.4739    1.4808   -2.1645 N   0  0  0  1  0  0  0  0  0  0  0  0
    4.3961    1.0455   -1.1106 C   0  0  0  1  0  0  0  0  0  0  0  0
    5.2778   -0.1680   -1.5890 C   0  0  0  1  0  0  0  0  0  0  0  0
    6.4756   -0.0874   -0.5890 C   0  0  0  1  0  0  0  0  0  0  0  0
    6.6383    1.3865   -0.2113 C   0  0  0  1  0  0  0  0  0  0  0  0
    5.4454    2.1101   -0.8210 C   0  0  0  1  0  0  0  0  0  0  0  0
    6.1862   -0.8941    0.6190 N   0  0  0  1  0  0  0  0  0  0  0  0
    0.3269   -1.4698   -1.3538 H   0  0  0  1  0  0  0  0  0  0  0  0
   -0.7158    2.2923   -5.0650 H   0  0  0  1  0  0  0  0  0  0  0  0
   -2.6694   -2.3065   -4.5624 H   0  0  0  1  0  0  0  0  0  0  0  0
   -4.3640   -3.7743   -3.6350 H   0  0  0  1  0  0  0  0  0  0  0  0
   -4.1757   -1.6889    0.0044 H   0  0  0  1  0  0  0  0  0  0  0  0
   -2.4839   -0.2235   -0.9215 H   0  0  0  1  0  0  0  0  0  0  0  0
   -5.5995   -5.5260   -1.8890 H   0  0  0  1  0  0  0  0  0  0  0  0
   -5.9092   -4.2553   -3.0474 H   0  0  0  1  0  0  0  0  0  0  0  0
   -7.0597   -4.5739   -1.7712 H   0  0  0  1  0  0  0  0  0  0  0  0
    3.7627    2.2034   -2.7602 H   0  0  0  1  0  0  0  0  0  0  0  0
    3.8410    0.7983   -0.2299 H   0  0  0  1  0  0  0  0  0  0  0  0
    4.7517   -1.0951   -1.4963 H   0  0  0  1  0  0  0  0  0  0  0  0
    5.6027   -0.0414   -2.6006 H   0  0  0  1  0  0  0  0  0  0  0  0
    7.3688   -0.4489   -1.0543 H   0  0  0  1  0  0  0  0  0  0  0  0
    6.6375    1.4997    0.8527 H   0  0  0  1  0  0  0  0  0  0  0  0
    7.5520    1.7739   -0.6111 H   0  0  0  1  0  0  0  0  0  0  0  0
    5.7343    2.6004   -1.7271 H   0  0  0  1  0  0  0  0  0  0  0  0
    5.0593    2.8318   -0.1318 H   0  0  0  1  0  0  0  0  0  0  0  0
    5.4078   -0.5209    1.0828 H   0  0  0  1  0  0  0  0  0  0  0  0
    6.9622   -0.8760    1.2173 H   0  0  0  1  0  0  0  0  0  0  0  0
  1  2  4  0  0  0  0
  1  6  4  0  0  0  0
  2  3  4  0  0  0  0
  2 18  1  0  0  0  0
  3  4  4  0  0  0  0
  4  5  4  0  0  0  0
  4  7  4  0  0  0  0
  5  6  4  0  0  0  0
  5  9  4  0  0  0  0
  6 25  1  0  0  0  0
  7  8  4  0  0  0  0
  7 26  1  0  0  0  0
  8  9  4  0  0  0  0
  9 10  1  0  0  0  0
 10 11  4  0  0  0  0
 10 15  4  0  0  0  0
 11 12  4  0  0  0  0
 11 27  1  0  0  0  0
 12 13  4  0  0  0  0
 12 28  1  0  0  0  0
 13 14  4  0  0  0  0
 13 16  1  0  0  0  0
 14 15  4  0  0  0  0
 14 29  1  0  0  0  0
 15 30  1  0  0  0  0
 16 17  1  0  0  0  0
 17 31  1  0  0  0  0
 17 32  1  0  0  0  0
 17 33  1  0  0  0  0
 18 19  1  0  0  0  0
 18 34  1  0  0  0  0
 19 20  1  0  0  0  0
 19 23  1  0  0  0  0
 19 35  1  0  0  0  0
 20 21  1  0  0  0  0
 20 36  1  0  0  0  0
 20 37  1  0  0  0  0
 21 22  1  0  0  0  0
 21 24  1  0  0  0  0
 21 38  1  0  0  0  0
 22 23  1  0  0  0  0
 22 39  1  0  0  0  0
 22 40  1  0  0  0  0
 23 41  1  0  0  0  0
 23 42  1  0  0  0  0
 24 43  1  0  0  0  0
 24 44  1  0  0  0  0
M  END
> <ConfClashScore>
0 

> <ConfOneFourInteractionScore>
-0.984337 

> <ConfScore>
-0.0610598 

> <ConfScorePBest>
0.00401973 

> <ConfTolerance>
0.25193 

$$$$
c13.sdf
 OpenBabel04162418043D

 44 47  0  0  0  0  0  0  0  0999 V2000
    2.0043    2.8172   -3.1929 N   0  0  0  1  0  0  0  0  0  0  0  0
    2.7203    2.5694   -2.1093 C   0  0  0  1  0  0  0  0  0  0  0  0
    2.7438    3.3829   -1.0784 N   0  0  0  1  0  0  0  0  0  0  0  0
    2.0295    4.5112   -1.0927 C   0  0  0  1  0  0  0  0  0  0  0  0
    1.2534    4.8080   -2.2332 C   0  0  0  1  0  0  0  0  0  0  0  0
    1.2669    3.9091   -3.2957 C   0  0  0  1  0  0  0  0  0  0  0  0
    1.8368    5.5719   -0.1807 C   0  0  0  1  0  0  0  0  0  0  0  0
    1.0200    6.4371   -0.7114 N   0  0  0  1  0  0  0  0  0  0  0  0
    0.6326    6.0030   -1.9860 N   0  0  0  1  0  0  0  0  0  0  0  0
   -0.1823    6.8196   -2.8044 C   0  0  0  1  0  0  0  0  0  0  0  0
   -1.0743    7.7040   -2.2279 C   0  0  0  1  0  0  0  0  0  0  0  0
   -1.8690    8.5082   -3.0299 C   0  0  0  1  0  0  0  0  0  0  0  0
   -1.7733    8.4217   -4.4060 C   0  0  0  1  0  0  0  0  0  0  0  0
   -0.8786    7.5346   -4.9841 C   0  0  0  1  0  0  0  0  0  0  0  0
   -0.0862    6.7328   -4.1845 C   0  0  0  1  0  0  0  0  0  0  0  0
   -2.4986    9.1496   -5.2881 O   0  0  0  1  0  0  0  0  0  0  0  0
   -3.4486   10.0805   -4.7464 C   0  0  0  1  0  0  0  0  0  0  0  0
    3.4525    1.4420   -2.0593 N   0  0  0  1  0  0  0  0  0  0  0  0
    4.4272    1.0817   -1.0246 C   0  0  0  1  0  0  0  0  0  0  0  0
    5.2851   -0.1654   -1.4581 C   0  0  0  1  0  0  0  0  0  0  0  0
    6.5318   -0.0157   -0.5281 C   0  0  0  1  0  0  0  0  0  0  0  0
    6.7115    1.4811   -0.2664 C   0  0  0  1  0  0  0  0  0  0  0  0
    5.4886    2.1618   -0.8658 C   0  0  0  1  0  0  0  0  0  0  0  0
    6.3025   -0.7393    0.7602 N   0  0  0  1  0  0  0  0  0  0  0  0
    0.7080    4.0930   -4.1533 H   0  0  0  1  0  0  0  0  0  0  0  0
    2.2745    5.6497    0.7595 H   0  0  0  1  0  0  0  0  0  0  0  0
   -1.1492    7.7663   -1.1924 H   0  0  0  1  0  0  0  0  0  0  0  0
   -2.5373    9.1766   -2.5962 H   0  0  0  1  0  0  0  0  0  0  0  0
   -0.8037    7.4724   -6.0195 H   0  0  0  1  0  0  0  0  0  0  0  0
    0.5822    6.0643   -4.6182 H   0  0  0  1  0  0  0  0  0  0  0  0
   -3.8561   10.6756   -5.5367 H   0  0  0  1  0  0  0  0  0  0  0  0
   -2.9604   10.7158   -4.0372 H   0  0  0  1  0  0  0  0  0  0  0  0
   -4.2370    9.5436   -4.2616 H   0  0  0  1  0  0  0  0  0  0  0  0
    3.3217    0.7979   -2.7863 H   0  0  0  1  0  0  0  0  0  0  0  0
    3.9175    0.8999   -0.1015 H   0  0  0  1  0  0  0  0  0  0  0  0
    5.5585   -0.1128   -2.4912 H   0  0  0  1  0  0  0  0  0  0  0  0
    4.7655   -1.0821   -1.2723 H   0  0  0  1  0  0  0  0  0  0  0  0
    7.4007   -0.4121   -1.0105 H   0  0  0  1  0  0  0  0  0  0  0  0
    7.6035    1.8365   -0.7386 H   0  0  0  1  0  0  0  0  0  0  0  0
    6.7643    1.6708    0.7853 H   0  0  0  1  0  0  0  0  0  0  0  0
    5.1368    2.9323   -0.2119 H   0  0  0  1  0  0  0  0  0  0  0  0
    5.7308    2.5848   -1.8184 H   0  0  0  1  0  0  0  0  0  0  0  0
    6.2905   -1.7053    0.5952 H   0  0  0  1  0  0  0  0  0  0  0  0
    5.4431   -0.4627    1.1415 H   0  0  0  1  0  0  0  0  0  0  0  0
  1  2  4  0  0  0  0
  1  6  4  0  0  0  0
  2  3  4  0  0  0  0
  2 18  1  0  0  0  0
  3  4  4  0  0  0  0
  4  5  4  0  0  0  0
  4  7  4  0  0  0  0
  5  6  4  0  0  0  0
  5  9  4  0  0  0  0
  6 25  1  0  0  0  0
  7  8  4  0  0  0  0
  7 26  1  0  0  0  0
  8  9  4  0  0  0  0
  9 10  1  0  0  0  0
 10 11  4  0  0  0  0
 10 15  4  0  0  0  0
 11 12  4  0  0  0  0
 11 27  1  0  0  0  0
 12 13  4  0  0  0  0
 12 28  1  0  0  0  0
 13 14  4  0  0  0  0
 13 16  1  0  0  0  0
 14 15  4  0  0  0  0
 14 29  1  0  0  0  0
 15 30  1  0  0  0  0
 16 17  1  0  0  0  0
 17 31  1  0  0  0  0
 17 32  1  0  0  0  0
 17 33  1  0  0  0  0
 18 19  1  0  0  0  0
 18 34  1  0  0  0  0
 19 20  1  0  0  0  0
 19 23  1  0  0  0  0
 19 35  1  0  0  0  0
 20 21  1  0  0  0  0
 20 36  1  0  0  0  0
 20 37  1  0  0  0  0
 21 22  1  0  0  0  0
 21 24  1  0  0  0  0
 21 38  1  0  0  0  0
 22 23  1  0  0  0  0
 22 39  1  0  0  0  0
 22 40  1  0  0  0  0
 23 41  1  0  0  0  0
 23 42  1  0  0  0  0
 24 43  1  0  0  0  0
 24 44  1  0  0  0  0
M  END
> <ConfClashScore>
0 

> <ConfOneFourInteractionScore>
-0.985399 

> <ConfScore>
-0.0608833 

> <ConfScorePBest>
0.00400641 

> <ConfTolerance>
0.294588 

$$$$
c13.sdf
 OpenBabel04162418043D

 44 47  0  0  0  0  0  0  0  0999 V2000
    1.9612    1.0751   -3.7060 N   0  0  0  1  0  0  0  0  0  0  0  0
    2.6893    0.5709   -2.7242 C   0  0  0  1  0  0  0  0  0  0  0  0
    2.6140   -0.6906   -2.3664 N   0  0  0  1  0  0  0  0  0  0  0  0
    1.7809   -1.5223   -2.9970 C   0  0  0  1  0  0  0  0  0  0  0  0
    0.9882   -1.0185   -4.0502 C   0  0  0  1  0  0  0  0  0  0  0  0
    1.1100    0.3267   -4.3858 C   0  0  0  1  0  0  0  0  0  0  0  0
    1.4646   -2.8924   -2.8677 C   0  0  0  1  0  0  0  0  0  0  0  0
    0.5635   -3.1998   -3.7571 N   0  0  0  1  0  0  0  0  0  0  0  0
    0.2382   -2.0661   -4.5134 N   0  0  0  1  0  0  0  0  0  0  0  0
   -0.7216   -2.1381   -5.5499 C   0  0  0  1  0  0  0  0  0  0  0  0
   -0.4221   -1.6420   -6.8046 C   0  0  0  1  0  0  0  0  0  0  0  0
   -1.3607   -1.7174   -7.8218 C   0  0  0  1  0  0  0  0  0  0  0  0
   -2.5981   -2.2838   -7.5799 C   0  0  0  1  0  0  0  0  0  0  0  0
   -2.8983   -2.7814   -6.3214 C   0  0  0  1  0  0  0  0  0  0  0  0
   -1.9625   -2.7062   -5.3071 C   0  0  0  1  0  0  0  0  0  0  0  0
   -3.5933   -2.4079   -8.4899 O   0  0  0  1  0  0  0  0  0  0  0  0
   -3.2535   -2.1883   -9.8679 C   0  0  0  1  0  0  0  0  0  0  0  0
    3.5201    1.4132   -2.0997 N   0  0  0  1  0  0  0  0  0  0  0  0
    4.4632    1.0735   -1.0415 C   0  0  0  1  0  0  0  0  0  0  0  0
    5.2773   -0.1583   -1.4284 C   0  0  0  1  0  0  0  0  0  0  0  0
    6.5268   -0.0279   -0.5365 C   0  0  0  1  0  0  0  0  0  0  0  0
    6.6990    1.4601   -0.2748 C   0  0  0  1  0  0  0  0  0  0  0  0
    5.4765    2.1893   -0.8560 C   0  0  0  1  0  0  0  0  0  0  0  0
    6.3288   -0.7513    0.7310 N   0  0  0  1  0  0  0  0  0  0  0  0
    0.5427    0.7348   -5.1560 H   0  0  0  1  0  0  0  0  0  0  0  0
    1.8820   -3.5480   -2.1766 H   0  0  0  1  0  0  0  0  0  0  0  0
    0.5075   -1.2121   -6.9856 H   0  0  0  1  0  0  0  0  0  0  0  0
   -1.1339   -1.3477   -8.7670 H   0  0  0  1  0  0  0  0  0  0  0  0
   -3.8279   -3.2112   -6.1404 H   0  0  0  1  0  0  0  0  0  0  0  0
   -2.1892   -3.0759   -4.3618 H   0  0  0  1  0  0  0  0  0  0  0  0
   -2.8133   -1.2192   -9.9772 H   0  0  0  1  0  0  0  0  0  0  0  0
   -4.1382   -2.2476  -10.4669 H   0  0  0  1  0  0  0  0  0  0  0  0
   -2.5559   -2.9346  -10.1862 H   0  0  0  1  0  0  0  0  0  0  0  0
    3.4918    2.3513   -2.3816 H   0  0  0  1  0  0  0  0  0  0  0  0
    3.9299    0.8979   -0.1306 H   0  0  0  1  0  0  0  0  0  0  0  0
    5.5392   -0.1380   -2.4656 H   0  0  0  1  0  0  0  0  0  0  0  0
    4.7412   -1.0589   -1.2129 H   0  0  0  1  0  0  0  0  0  0  0  0
    7.3859   -0.4189   -1.0405 H   0  0  0  1  0  0  0  0  0  0  0  0
    6.7613    1.6385    0.7784 H   0  0  0  1  0  0  0  0  0  0  0  0
    7.5910    1.8113   -0.7500 H   0  0  0  1  0  0  0  0  0  0  0  0
    5.7143    2.6510   -1.7915 H   0  0  0  1  0  0  0  0  0  0  0  0
    5.1118    2.9295   -0.1749 H   0  0  0  1  0  0  0  0  0  0  0  0
    6.2155   -1.7073    0.5478 H   0  0  0  1  0  0  0  0  0  0  0  0
    5.5289   -0.4080    1.1812 H   0  0  0  1  0  0  0  0  0  0  0  0
  1  2  4  0  0  0  0
  1  6  4  0  0  0  0
  2  3  4  0  0  0  0
  2 18  1  0  0  0  0
  3  4  4  0  0  0  0
  4  5  4  0  0  0  0
  4  7  4  0  0  0  0
  5  6  4  0  0  0  0
  5  9  4  0  0  0  0
  6 25  1  0  0  0  0
  7  8  4  0  0  0  0
  7 26  1  0  0  0  0
  8  9  4  0  0  0  0
  9 10  1  0  0  0  0
 10 11  4  0  0  0  0
 10 15  4  0  0  0  0
 11 12  4  0  0  0  0
 11 27  1  0  0  0  0
 12 13  4  0  0  0  0
 12 28  1  0  0  0  0
 13 14  4  0  0  0  0
 13 16  1  0  0  0  0
 14 15  4  0  0  0  0
 14 29  1  0  0  0  0
 15 30  1  0  0  0  0
 16 17  1  0  0  0  0
 17 31  1  0  0  0  0
 17 32  1  0  0  0  0
 17 33  1  0  0  0  0
 18 19  1  0  0  0  0
 18 34  1  0  0  0  0
 19 20  1  0  0  0  0
 19 23  1  0  0  0  0
 19 35  1  0  0  0  0
 20 21  1  0  0  0  0
 20 36  1  0  0  0  0
 20 37  1  0  0  0  0
 21 22  1  0  0  0  0
 21 24  1  0  0  0  0
 21 38  1  0  0  0  0
 22 23  1  0  0  0  0
 22 39  1  0  0  0  0
 22 40  1  0  0  0  0
 23 41  1  0  0  0  0
 23 42  1  0  0  0  0
 24 43  1  0  0  0  0
 24 44  1  0  0  0  0
M  END
> <ConfClashScore>
0 

> <ConfOneFourInteractionScore>
-0.985399 

> <ConfScore>
-0.0607766 

> <ConfScorePBest>
0.00399308 

> <ConfTolerance>
0.265749 

$$$$
c13.sdf
 OpenBabel04162418043D

 44 47  0  0  0  0  0  0  0  0999 V2000
    4.6878    0.7312   -5.2515 N   0  0  0  1  0  0  0  0  0  0  0  0
    4.1715    0.7125   -4.0344 C   0  0  0  1  0  0  0  0  0  0  0  0
    2.9877    0.2047   -3.7783 N   0  0  0  1  0  0  0  0  0  0  0  0
    2.2516   -0.3204   -4.7612 C   0  0  0  1  0  0  0  0  0  0  0  0
    2.7713   -0.3177   -6.0732 C   0  0  0  1  0  0  0  0  0  0  0  0
    4.0313    0.2340   -6.2852 C   0  0  0  1  0  0  0  0  0  0  0  0
    0.9791   -0.9289   -4.8277 C   0  0  0  1  0  0  0  0  0  0  0  0
    0.7409   -1.2672   -6.0630 N   0  0  0  1  0  0  0  0  0  0  0  0
    1.8272   -0.9064   -6.8710 N   0  0  0  1  0  0  0  0  0  0  0  0
    1.7705   -1.1886   -8.2648 C   0  0  0  1  0  0  0  0  0  0  0  0
    1.6136   -2.4909   -8.7003 C   0  0  0  1  0  0  0  0  0  0  0  0
    1.5530   -2.7650  -10.0577 C   0  0  0  1  0  0  0  0  0  0  0  0
    1.6549   -1.7369  -10.9758 C   0  0  0  1  0  0  0  0  0  0  0  0
    1.8122   -0.4308  -10.5388 C   0  0  0  1  0  0  0  0  0  0  0  0
    1.8727   -0.1573   -9.1854 C   0  0  0  1  0  0  0  0  0  0  0  0
    1.6149   -1.8819  -12.3146 O   0  0  0  1  0  0  0  0  0  0  0  0
    1.7743   -3.2393  -12.7883 C   0  0  0  1  0  0  0  0  0  0  0  0
    4.8805    1.2300   -3.0249 N   0  0  0  1  0  0  0  0  0  0  0  0
    4.5317    1.1836   -1.6041 C   0  0  0  1  0  0  0  0  0  0  0  0
    4.9000   -0.1907   -1.0152 C   0  0  0  1  0  0  0  0  0  0  0  0
    6.3610    0.0340   -0.4995 C   0  0  0  1  0  0  0  0  0  0  0  0
    6.2839    1.4514    0.0811 C   0  0  0  1  0  0  0  0  0  0  0  0
    5.3522    2.2619   -0.8142 C   0  0  0  1  0  0  0  0  0  0  0  0
    6.7235   -0.9629    0.5519 N   0  0  0  1  0  0  0  0  0  0  0  0
    4.4480    0.2545   -7.2379 H   0  0  0  1  0  0  0  0  0  0  0  0
    0.3379   -1.0818   -4.0233 H   0  0  0  1  0  0  0  0  0  0  0  0
    1.5409   -3.2650   -8.0096 H   0  0  0  1  0  0  0  0  0  0  0  0
    1.4309   -3.7445  -10.3854 H   0  0  0  1  0  0  0  0  0  0  0  0
    1.8849    0.3434  -11.2295 H   0  0  0  1  0  0  0  0  0  0  0  0
    1.9948    0.8222   -8.8577 H   0  0  0  1  0  0  0  0  0  0  0  0
    0.9134   -3.8150  -12.5193 H   0  0  0  1  0  0  0  0  0  0  0  0
    2.6458   -3.6721  -12.3432 H   0  0  0  1  0  0  0  0  0  0  0  0
    1.8816   -3.2350  -13.8529 H   0  0  0  1  0  0  0  0  0  0  0  0
    5.7161    1.6851   -3.2598 H   0  0  0  1  0  0  0  0  0  0  0  0
    3.4833    1.3631   -1.4877 H   0  0  0  1  0  0  0  0  0  0  0  0
    4.8692   -0.9525   -1.7660 H   0  0  0  1  0  0  0  0  0  0  0  0
    4.2440   -0.4542   -0.2120 H   0  0  0  1  0  0  0  0  0  0  0  0
    7.0679   -0.0190   -1.3009 H   0  0  0  1  0  0  0  0  0  0  0  0
    7.2575    1.8951    0.0924 H   0  0  0  1  0  0  0  0  0  0  0  0
    5.8953    1.4175    1.0775 H   0  0  0  1  0  0  0  0  0  0  0  0
    4.7023    2.8759   -0.2263 H   0  0  0  1  0  0  0  0  0  0  0  0
    5.9137    2.8770   -1.4860 H   0  0  0  1  0  0  0  0  0  0  0  0
    7.6118   -0.7534    0.9090 H   0  0  0  1  0  0  0  0  0  0  0  0
    6.7326   -1.8613    0.1605 H   0  0  0  1  0  0  0  0  0  0  0  0
  1  2  4  0  0  0  0
  1  6  4  0  0  0  0
  2  3  4  0  0  0  0
  2 18  1  0  0  0  0
  3  4  4  0  0  0  0
  4  5  4  0  0  0  0
  4  7  4  0  0  0  0
  5  6  4  0  0  0  0
  5  9  4  0  0  0  0
  6 25  1  0  0  0  0
  7  8  4  0  0  0  0
  7 26  1  0  0  0  0
  8  9  4  0  0  0  0
  9 10  1  0  0  0  0
 10 11  4  0  0  0  0
 10 15  4  0  0  0  0
 11 12  4  0  0  0  0
 11 27  1  0  0  0  0
 12 13  4  0  0  0  0
 12 28  1  0  0  0  0
 13 14  4  0  0  0  0
 13 16  1  0  0  0  0
 14 15  4  0  0  0  0
 14 29  1  0  0  0  0
 15 30  1  0  0  0  0
 16 17  1  0  0  0  0
 17 31  1  0  0  0  0
 17 32  1  0  0  0  0
 17 33  1  0  0  0  0
 18 19  1  0  0  0  0
 18 34  1  0  0  0  0
 19 20  1  0  0  0  0
 19 23  1  0  0  0  0
 19 35  1  0  0  0  0
 20 21  1  0  0  0  0
 20 36  1  0  0  0  0
 20 37  1  0  0  0  0
 21 22  1  0  0  0  0
 21 24  1  0  0  0  0
 21 38  1  0  0  0  0
 22 23  1  0  0  0  0
 22 39  1  0  0  0  0
 22 40  1  0  0  0  0
 23 41  1  0  0  0  0
 23 42  1  0  0  0  0
 24 43  1  0  0  0  0
 24 44  1  0  0  0  0
M  END
> <ConfClashScore>
0 

> <ConfOneFourInteractionScore>
-0.984337 

> <ConfScore>
-0.0595693 

> <ConfScorePBest>
0.00397975 

> <ConfTolerance>
0.362265 

$$$$
c13.sdf
 OpenBabel04162418043D

 44 47  0  0  0  0  0  0  0  0999 V2000
    5.1653    2.0689   -5.1775 N   0  0  0  1  0  0  0  0  0  0  0  0
    4.4597    1.8165   -4.0881 C   0  0  0  1  0  0  0  0  0  0  0  0
    3.1492    1.8997   -4.0618 N   0  0  0  1  0  0  0  0  0  0  0  0
    2.4730    2.2497   -5.1590 C   0  0  0  1  0  0  0  0  0  0  0  0
    3.1937    2.5263   -6.3403 C   0  0  0  1  0  0  0  0  0  0  0  0
    4.5812    2.4220   -6.3093 C   0  0  0  1  0  0  0  0  0  0  0  0
    1.1058    2.4284   -5.4639 C   0  0  0  1  0  0  0  0  0  0  0  0
    0.9983    2.7811   -6.7135 N   0  0  0  1  0  0  0  0  0  0  0  0
    2.2702    2.8544   -7.2963 N   0  0  0  1  0  0  0  0  0  0  0  0
    2.4780    3.2138   -8.6485 C   0  0  0  1  0  0  0  0  0  0  0  0
    1.9622    4.4225   -9.0764 C   0  0  0  1  0  0  0  0  0  0  0  0
    2.1415    4.8261  -10.3903 C   0  0  0  1  0  0  0  0  0  0  0  0
    2.8315    4.0176  -11.2738 C   0  0  0  1  0  0  0  0  0  0  0  0
    3.3488    2.8053  -10.8444 C   0  0  0  1  0  0  0  0  0  0  0  0
    3.1701    2.4027   -9.5344 C   0  0  0  1  0  0  0  0  0  0  0  0
    3.0643    4.3027  -12.5770 O   0  0  0  1  0  0  0  0  0  0  0  0
    2.6466    5.5922  -13.0515 C   0  0  0  1  0  0  0  0  0  0  0  0
    5.1070    1.4611   -2.9638 N   0  0  0  1  0  0  0  0  0  0  0  0
    4.5558    1.1960   -1.6320 C   0  0  0  1  0  0  0  0  0  0  0  0
    4.9684   -0.1882   -1.1255 C   0  0  0  1  0  0  0  0  0  0  0  0
    6.3646   -0.0087   -0.5248 C   0  0  0  1  0  0  0  0  0  0  0  0
    6.5368    1.4929   -0.2631 C   0  0  0  1  0  0  0  0  0  0  0  0
    5.1746    2.1187   -0.5818 C   0  0  0  1  0  0  0  0  0  0  0  0
    6.4776   -0.7723    0.7559 N   0  0  0  1  0  0  0  0  0  0  0  0
    5.1471    2.6180   -7.1596 H   0  0  0  1  0  0  0  0  0  0  0  0
    0.3153    2.2997   -4.8005 H   0  0  0  1  0  0  0  0  0  0  0  0
    1.4395    5.0290   -8.4127 H   0  0  0  1  0  0  0  0  0  0  0  0
    1.7568    5.7375  -10.7114 H   0  0  0  1  0  0  0  0  0  0  0  0
    3.8715    2.1987  -11.5081 H   0  0  0  1  0  0  0  0  0  0  0  0
    3.5547    1.4914   -9.2133 H   0  0  0  1  0  0  0  0  0  0  0  0
    2.9682    6.3469  -12.3645 H   0  0  0  1  0  0  0  0  0  0  0  0
    1.5799    5.6142  -13.1314 H   0  0  0  1  0  0  0  0  0  0  0  0
    3.0807    5.7763  -14.0120 H   0  0  0  1  0  0  0  0  0  0  0  0
    6.0790    1.3666   -3.0465 H   0  0  0  1  0  0  0  0  0  0  0  0
    3.4910    1.2979   -1.6594 H   0  0  0  1  0  0  0  0  0  0  0  0
    4.9974   -0.8881   -1.9343 H   0  0  0  1  0  0  0  0  0  0  0  0
    4.2827   -0.5324   -0.3797 H   0  0  0  1  0  0  0  0  0  0  0  0
    7.1094   -0.3518   -1.2121 H   0  0  0  1  0  0  0  0  0  0  0  0
    6.7990    1.6672    0.7596 H   0  0  0  1  0  0  0  0  0  0  0  0
    7.2941    1.8996   -0.9003 H   0  0  0  1  0  0  0  0  0  0  0  0
    5.2965    3.1069   -0.9735 H   0  0  0  1  0  0  0  0  0  0  0  0
    4.5625    2.1551    0.2951 H   0  0  0  1  0  0  0  0  0  0  0  0
    7.3092   -0.5251    1.2117 H   0  0  0  1  0  0  0  0  0  0  0  0
    6.4839   -1.7332    0.5635 H   0  0  0  1  0  0  0  0  0  0  0  0
  1  2  4  0  0  0  0
  1  6  4  0  0  0  0
  2  3  4  0  0  0  0
  2 18  1  0  0  0  0
  3  4  4  0  0  0  0
  4  5  4  0  0  0  0
  4  7  4  0  0  0  0
  5  6  4  0  0  0  0
  5  9  4  0  0  0  0
  6 25  1  0  0  0  0
  7  8  4  0  0  0  0
  7 26  1  0  0  0  0
  8  9  4  0  0  0  0
  9 10  1  0  0  0  0
 10 11  4  0  0  0  0
 10 15  4  0  0  0  0
 11 12  4  0  0  0  0
 11 27  1  0  0  0  0
 12 13  4  0  0  0  0
 12 28  1  0  0  0  0
 13 14  4  0  0  0  0
 13 16  1  0  0  0  0
 14 15  4  0  0  0  0
 14 29  1  0  0  0  0
 15 30  1  0  0  0  0
 16 17  1  0  0  0  0
 17 31  1  0  0  0  0
 17 32  1  0  0  0  0
 17 33  1  0  0  0  0
 18 19  1  0  0  0  0
 18 34  1  0  0  0  0
 19 20  1  0  0  0  0
 19 23  1  0  0  0  0
 19 35  1  0  0  0  0
 20 21  1  0  0  0  0
 20 36  1  0  0  0  0
 20 37  1  0  0  0  0
 21 22  1  0  0  0  0
 21 24  1  0  0  0  0
 21 38  1  0  0  0  0
 22 23  1  0  0  0  0
 22 39  1  0  0  0  0
 22 40  1  0  0  0  0
 23 41  1  0  0  0  0
 23 42  1  0  0  0  0
 24 43  1  0  0  0  0
 24 44  1  0  0  0  0
M  END
> <ConfClashScore>
0 

> <ConfOneFourInteractionScore>
-0.984337 

> <ConfScore>
-0.0593327 

> <ConfScorePBest>
0.00396642 

> <ConfTolerance>
0.328891 

$$$$
c13.sdf
 OpenBabel04162418043D

 44 47  0  0  0  0  0  0  0  0999 V2000
    3.5961    3.1929   -3.2962 N   0  0  0  1  0  0  0  0  0  0  0  0
    4.3352    2.2325   -3.8251 C   0  0  0  1  0  0  0  0  0  0  0  0
    4.6820    2.2261   -5.0919 N   0  0  0  1  0  0  0  0  0  0  0  0
    4.2902    3.2114   -5.9038 C   0  0  0  1  0  0  0  0  0  0  0  0
    3.5002    4.2534   -5.3734 C   0  0  0  1  0  0  0  0  0  0  0  0
    3.1633    4.2078   -4.0238 C   0  0  0  1  0  0  0  0  0  0  0  0
    4.4813    3.5005   -7.2728 C   0  0  0  1  0  0  0  0  0  0  0  0
    3.8668    4.6141   -7.5551 N   0  0  0  1  0  0  0  0  0  0  0  0
    3.2439    5.1163   -6.4050 N   0  0  0  1  0  0  0  0  0  0  0  0
    2.5127    6.3341   -6.4957 C   0  0  0  1  0  0  0  0  0  0  0  0
    1.2690    6.4391   -5.9022 C   0  0  0  1  0  0  0  0  0  0  0  0
    0.5593    7.6269   -5.9859 C   0  0  0  1  0  0  0  0  0  0  0  0
    1.0930    8.7044   -6.6675 C   0  0  0  1  0  0  0  0  0  0  0  0
    2.3405    8.5989   -7.2627 C   0  0  0  1  0  0  0  0  0  0  0  0
    3.0482    7.4146   -7.1793 C   0  0  0  1  0  0  0  0  0  0  0  0
    0.3115    9.8016   -6.6867 O   0  0  0  1  0  0  0  0  0  0  0  0
    0.8636   10.9339   -7.3978 C   0  0  0  1  0  0  0  0  0  0  0  0
    4.7216    1.2509   -3.0025 N   0  0  0  1  0  0  0  0  0  0  0  0
    4.5105    1.1960   -1.5551 C   0  0  0  1  0  0  0  0  0  0  0  0
    4.8767   -0.1989   -1.0130 C   0  0  0  1  0  0  0  0  0  0  0  0
    6.3441   -0.0309   -0.6282 C   0  0  0  1  0  0  0  0  0  0  0  0
    6.4510    1.3606   -0.0293 C   0  0  0  1  0  0  0  0  0  0  0  0
    5.4357    2.1742   -0.8484 C   0  0  0  1  0  0  0  0  0  0  0  0
    6.7384   -1.0550    0.3684 N   0  0  0  1  0  0  0  0  0  0  0  0
    2.5825    4.9573   -3.5964 H   0  0  0  1  0  0  0  0  0  0  0  0
    5.0230    2.9203   -7.9447 H   0  0  0  1  0  0  0  0  0  0  0  0
    0.8656    5.6271   -5.3928 H   0  0  0  1  0  0  0  0  0  0  0  0
   -0.3748    7.7072   -5.5359 H   0  0  0  1  0  0  0  0  0  0  0  0
    2.7438    9.4109   -7.7721 H   0  0  0  1  0  0  0  0  0  0  0  0
    3.9823    7.3342   -7.6293 H   0  0  0  1  0  0  0  0  0  0  0  0
    0.2501   11.7945   -7.2303 H   0  0  0  1  0  0  0  0  0  0  0  0
    0.8945   10.7166   -8.4450 H   0  0  0  1  0  0  0  0  0  0  0  0
    1.8545   11.1283   -7.0439 H   0  0  0  1  0  0  0  0  0  0  0  0
    5.1927    0.4938   -3.4091 H   0  0  0  1  0  0  0  0  0  0  0  0
    3.4888    1.4244   -1.3343 H   0  0  0  1  0  0  0  0  0  0  0  0
    4.2804   -0.4510   -0.1611 H   0  0  0  1  0  0  0  0  0  0  0  0
    4.7585   -0.9494   -1.7665 H   0  0  0  1  0  0  0  0  0  0  0  0
    6.9690   -0.1145   -1.4927 H   0  0  0  1  0  0  0  0  0  0  0  0
    7.4397    1.7531   -0.1449 H   0  0  0  1  0  0  0  0  0  0  0  0
    6.1889    1.3530    1.0081 H   0  0  0  1  0  0  0  0  0  0  0  0
    4.8675    2.8059   -0.1980 H   0  0  0  1  0  0  0  0  0  0  0  0
    5.9492    2.7743   -1.5703 H   0  0  0  1  0  0  0  0  0  0  0  0
    6.1336   -1.0121    1.1383 H   0  0  0  1  0  0  0  0  0  0  0  0
    7.6569   -0.8853    0.6650 H   0  0  0  1  0  0  0  0  0  0  0  0
  1  2  4  0  0  0  0
  1  6  4  0  0  0  0
  2  3  4  0  0  0  0
  2 18  1  0  0  0  0
  3  4  4  0  0  0  0
  4  5  4  0  0  0  0
  4  7  4  0  0  0  0
  5  6  4  0  0  0  0
  5  9  4  0  0  0  0
  6 25  1  0  0  0  0
  7  8  4  0  0  0  0
  7 26  1  0  0  0  0
  8  9  4  0  0  0  0
  9 10  1  0  0  0  0
 10 11  4  0  0  0  0
 10 15  4  0  0  0  0
 11 12  4  0  0  0  0
 11 27  1  0  0  0  0
 12 13  4  0  0  0  0
 12 28  1  0  0  0  0
 13 14  4  0  0  0  0
 13 16  1  0  0  0  0
 14 15  4  0  0  0  0
 14 29  1  0  0  0  0
 15 30  1  0  0  0  0
 16 17  1  0  0  0  0
 17 31  1  0  0  0  0
 17 32  1  0  0  0  0
 17 33  1  0  0  0  0
 18 19  1  0  0  0  0
 18 34  1  0  0  0  0
 19 20  1  0  0  0  0
 19 23  1  0  0  0  0
 19 35  1  0  0  0  0
 20 21  1  0  0  0  0
 20 36  1  0  0  0  0
 20 37  1  0  0  0  0
 21 22  1  0  0  0  0
 21 24  1  0  0  0  0
 21 38  1  0  0  0  0
 22 23  1  0  0  0  0
 22 39  1  0  0  0  0
 22 40  1  0  0  0  0
 23 41  1  0  0  0  0
 23 42  1  0  0  0  0
 24 43  1  0  0  0  0
 24 44  1  0  0  0  0
M  END
> <ConfClashScore>
0 

> <ConfOneFourInteractionScore>
-0.984337 

> <ConfScore>
-0.0578808 

> <ConfScorePBest>
0.00395309 

> <ConfTolerance>
0.265117 

$$$$
c13.sdf
 OpenBabel04162418043D

 44 47  0  0  0  0  0  0  0  0999 V2000
    2.8349    3.1825   -3.7893 N   0  0  0  1  0  0  0  0  0  0  0  0
    3.2934    2.7891   -2.6132 C   0  0  0  1  0  0  0  0  0  0  0  0
    3.1925    3.5298   -1.5333 N   0  0  0  1  0  0  0  0  0  0  0  0
    2.6106    4.7304   -1.5904 C   0  0  0  1  0  0  0  0  0  0  0  0
    2.1095    5.1828   -2.8297 C   0  0  0  1  0  0  0  0  0  0  0  0
    2.2445    4.3552   -3.9405 C   0  0  0  1  0  0  0  0  0  0  0  0
    2.3467    5.7481   -0.6477 C   0  0  0  1  0  0  0  0  0  0  0  0
    1.7413    6.7312   -1.2513 N   0  0  0  1  0  0  0  0  0  0  0  0
    1.5735    6.4229   -2.6076 N   0  0  0  1  0  0  0  0  0  0  0  0
    0.7989    7.2897   -3.4289 C   0  0  0  1  0  0  0  0  0  0  0  0
    1.1582    7.4959   -4.7474 C   0  0  0  1  0  0  0  0  0  0  0  0
    0.4007    8.3359   -5.5487 C   0  0  0  1  0  0  0  0  0  0  0  0
   -0.7107    8.9714   -5.0278 C   0  0  0  1  0  0  0  0  0  0  0  0
   -1.0708    8.7644   -3.7053 C   0  0  0  1  0  0  0  0  0  0  0  0
   -0.3156    7.9269   -2.9062 C   0  0  0  1  0  0  0  0  0  0  0  0
   -1.5445    9.8180   -5.6704 O   0  0  0  1  0  0  0  0  0  0  0  0
   -1.4595    9.9465   -7.1087 C   0  0  0  1  0  0  0  0  0  0  0  0
    3.8858    1.5851   -2.5177 N   0  0  0  1  0  0  0  0  0  0  0  0
    4.4197    1.0336   -1.2681 C   0  0  0  1  0  0  0  0  0  0  0  0
    5.3579   -0.1410   -1.5593 C   0  0  0  1  0  0  0  0  0  0  0  0
    6.4519   -0.0335   -0.4914 C   0  0  0  1  0  0  0  0  0  0  0  0
    6.6835    1.4672   -0.4275 C   0  0  0  1  0  0  0  0  0  0  0  0
    5.2829    2.0773   -0.5467 C   0  0  0  1  0  0  0  0  0  0  0  0
    5.9825   -0.5663    0.8215 N   0  0  0  1  0  0  0  0  0  0  0  0
    1.8879    4.6536   -4.8707 H   0  0  0  1  0  0  0  0  0  0  0  0
    2.5948    5.7178    0.3619 H   0  0  0  1  0  0  0  0  0  0  0  0
    1.9967    7.0209   -5.1384 H   0  0  0  1  0  0  0  0  0  0  0  0
    0.6686    8.4879   -6.5421 H   0  0  0  1  0  0  0  0  0  0  0  0
   -1.9093    9.2394   -3.3143 H   0  0  0  1  0  0  0  0  0  0  0  0
   -0.5835    7.7748   -1.9129 H   0  0  0  1  0  0  0  0  0  0  0  0
   -2.2852   10.5263   -7.4649 H   0  0  0  1  0  0  0  0  0  0  0  0
   -1.4873    8.9746   -7.5556 H   0  0  0  1  0  0  0  0  0  0  0  0
   -0.5432   10.4335   -7.3696 H   0  0  0  1  0  0  0  0  0  0  0  0
    3.9654    1.0446   -3.3312 H   0  0  0  1  0  0  0  0  0  0  0  0
    3.6108    0.7198   -0.6418 H   0  0  0  1  0  0  0  0  0  0  0  0
    5.7773   -0.0556   -2.5399 H   0  0  0  1  0  0  0  0  0  0  0  0
    4.8364   -1.0714   -1.4736 H   0  0  0  1  0  0  0  0  0  0  0  0
    7.3392   -0.5514   -0.7904 H   0  0  0  1  0  0  0  0  0  0  0  0
    7.3059    1.7885   -1.2364 H   0  0  0  1  0  0  0  0  0  0  0  0
    7.1370    1.7404    0.5024 H   0  0  0  1  0  0  0  0  0  0  0  0
    4.8835    2.2809    0.4248 H   0  0  0  1  0  0  0  0  0  0  0  0
    5.3206    2.9834   -1.1145 H   0  0  0  1  0  0  0  0  0  0  0  0
    6.6215   -0.3190    1.5222 H   0  0  0  1  0  0  0  0  0  0  0  0
    5.9140   -1.5426    0.7720 H   0  0  0  1  0  0  0  0  0  0  0  0
  1  2  4  0  0  0  0
  1  6  4  0  0  0  0
  2  3  4  0  0  0  0
  2 18  1  0  0  0  0
  3  4  4  0  0  0  0
  4  5  4  0  0  0  0
  4  7  4  0  0  0  0
  5  6  4  0  0  0  0
  5  9  4  0  0  0  0
  6 25  1  0  0  0  0
  7  8  4  0  0  0  0
  7 26  1  0  0  0  0
  8  9  4  0  0  0  0
  9 10  1  0  0  0  0
 10 11  4  0  0  0  0
 10 15  4  0  0  0  0
 11 12  4  0  0  0  0
 11 27  1  0  0  0  0
 12 13  4  0  0  0  0
 12 28  1  0  0  0  0
 13 14  4  0  0  0  0
 13 16  1  0  0  0  0
 14 15  4  0  0  0  0
 14 29  1  0  0  0  0
 15 30  1  0  0  0  0
 16 17  1  0  0  0  0
 17 31  1  0  0  0  0
 17 32  1  0  0  0  0
 17 33  1  0  0  0  0
 18 19  1  0  0  0  0
 18 34  1  0  0  0  0
 19 20  1  0  0  0  0
 19 23  1  0  0  0  0
 19 35  1  0  0  0  0
 20 21  1  0  0  0  0
 20 36  1  0  0  0  0
 20 37  1  0  0  0  0
 21 22  1  0  0  0  0
 21 24  1  0  0  0  0
 21 38  1  0  0  0  0
 22 23  1  0  0  0  0
 22 39  1  0  0  0  0
 22 40  1  0  0  0  0
 23 41  1  0  0  0  0
 23 42  1  0  0  0  0
 24 43  1  0  0  0  0
 24 44  1  0  0  0  0
M  END
> <ConfClashScore>
0 

> <ConfOneFourInteractionScore>
-0.985399 

> <ConfScore>
-0.0576517 

> <ConfScorePBest>
0.00393977 

> <ConfTolerance>
0.298392 

$$$$
c13.sdf
 OpenBabel04162418043D

 44 47  0  0  0  0  0  0  0  0999 V2000
    2.6795    2.2443   -4.3232 N   0  0  0  1  0  0  0  0  0  0  0  0
    2.9546    2.2238   -3.0301 C   0  0  0  1  0  0  0  0  0  0  0  0
    2.3757    3.0333   -2.1731 N   0  0  0  1  0  0  0  0  0  0  0  0
    1.4708    3.9226   -2.5901 C   0  0  0  1  0  0  0  0  0  0  0  0
    1.1523    3.9726   -3.9639 C   0  0  0  1  0  0  0  0  0  0  0  0
    1.7974    3.0905   -4.8258 C   0  0  0  1  0  0  0  0  0  0  0  0
    0.6855    4.9083   -1.9531 C   0  0  0  1  0  0  0  0  0  0  0  0
   -0.0452    5.5060   -2.8509 N   0  0  0  1  0  0  0  0  0  0  0  0
    0.2125    4.9569   -4.1138 N   0  0  0  1  0  0  0  0  0  0  0  0
   -0.3698    5.5511   -5.2517 C   0  0  0  1  0  0  0  0  0  0  0  0
    0.3208    5.4610   -6.4454 C   0  0  0  1  0  0  0  0  0  0  0  0
   -0.2088    6.0233   -7.5964 C   0  0  0  1  0  0  0  0  0  0  0  0
   -1.4248    6.6786   -7.5493 C   0  0  0  1  0  0  0  0  0  0  0  0
   -2.1173    6.7689   -6.3518 C   0  0  0  1  0  0  0  0  0  0  0  0
   -1.5893    6.2083   -5.2041 C   0  0  0  1  0  0  0  0  0  0  0  0
   -2.0369    7.2690   -8.6031 O   0  0  0  1  0  0  0  0  0  0  0  0
   -1.3028    7.3354   -9.8356 C   0  0  0  1  0  0  0  0  0  0  0  0
    3.8563    1.3460   -2.5763 N   0  0  0  1  0  0  0  0  0  0  0  0
    4.4092    1.2167   -1.2338 C   0  0  0  1  0  0  0  0  0  0  0  0
    5.0164   -0.1778   -1.0352 C   0  0  0  1  0  0  0  0  0  0  0  0
    6.4627    0.0378   -0.5835 C   0  0  0  1  0  0  0  0  0  0  0  0
    6.5272    1.4819   -0.0805 C   0  0  0  1  0  0  0  0  0  0  0  0
    5.5709    2.1965   -1.0354 C   0  0  0  1  0  0  0  0  0  0  0  0
    6.8095   -0.9039    0.5047 N   0  0  0  1  0  0  0  0  0  0  0  0
    1.5894    3.0971   -5.8448 H   0  0  0  1  0  0  0  0  0  0  0  0
    0.6897    5.1218   -0.9352 H   0  0  0  1  0  0  0  0  0  0  0  0
    1.2377    4.9715   -6.4802 H   0  0  0  1  0  0  0  0  0  0  0  0
    0.3089    5.9521   -8.4956 H   0  0  0  1  0  0  0  0  0  0  0  0
   -3.0342    7.2585   -6.3171 H   0  0  0  1  0  0  0  0  0  0  0  0
   -2.1070    6.2795   -4.3049 H   0  0  0  1  0  0  0  0  0  0  0  0
   -1.7520    6.6826  -10.5546 H   0  0  0  1  0  0  0  0  0  0  0  0
   -0.2905    7.0342   -9.6641 H   0  0  0  1  0  0  0  0  0  0  0  0
   -1.3188    8.3390  -10.2064 H   0  0  0  1  0  0  0  0  0  0  0  0
    4.1903    0.7026   -3.2357 H   0  0  0  1  0  0  0  0  0  0  0  0
    3.6401    1.3966   -0.5119 H   0  0  0  1  0  0  0  0  0  0  0  0
    4.4718   -0.7148   -0.2868 H   0  0  0  1  0  0  0  0  0  0  0  0
    4.9941   -0.7248   -1.9545 H   0  0  0  1  0  0  0  0  0  0  0  0
    7.1348   -0.1019   -1.4043 H   0  0  0  1  0  0  0  0  0  0  0  0
    7.5191    1.8759   -0.1574 H   0  0  0  1  0  0  0  0  0  0  0  0
    6.1912    1.5556    0.9327 H   0  0  0  1  0  0  0  0  0  0  0  0
    5.2223    3.1117   -0.6044 H   0  0  0  1  0  0  0  0  0  0  0  0
    6.0536    2.4021   -1.9680 H   0  0  0  1  0  0  0  0  0  0  0  0
    6.7400   -1.8243    0.1754 H   0  0  0  1  0  0  0  0  0  0  0  0
    6.1914   -0.7779    1.2547 H   0  0  0  1  0  0  0  0  0  0  0  0
  1  2  4  0  0  0  0
  1  6  4  0  0  0  0
  2  3  4  0  0  0  0
  2 18  1  0  0  0  0
  3  4  4  0  0  0  0
  4  5  4  0  0  0  0
  4  7  4  0  0  0  0
  5  6  4  0  0  0  0
  5  9  4  0  0  0  0
  6 25  1  0  0  0  0
  7  8  4  0  0  0  0
  7 26  1  0  0  0  0
  8  9  4  0  0  0  0
  9 10  1  0  0  0  0
 10 11  4  0  0  0  0
 10 15  4  0  0  0  0
 11 12  4  0  0  0  0
 11 27  1  0  0  0  0
 12 13  4  0  0  0  0
 12 28  1  0  0  0  0
 13 14  4  0  0  0  0
 13 16  1  0  0  0  0
 14 15  4  0  0  0  0
 14 29  1  0  0  0  0
 15 30  1  0  0  0  0
 16 17  1  0  0  0  0
 17 31  1  0  0  0  0
 17 32  1  0  0  0  0
 17 33  1  0  0  0  0
 18 19  1  0  0  0  0
 18 34  1  0  0  0  0
 19 20  1  0  0  0  0
 19 23  1  0  0  0  0
 19 35  1  0  0  0  0
 20 21  1  0  0  0  0
 20 36  1  0  0  0  0
 20 37  1  0  0  0  0
 21 22  1  0  0  0  0
 21 24  1  0  0  0  0
 21 38  1  0  0  0  0
 22 23  1  0  0  0  0
 22 39  1  0  0  0  0
 22 40  1  0  0  0  0
 23 41  1  0  0  0  0
 23 42  1  0  0  0  0
 24 43  1  0  0  0  0
 24 44  1  0  0  0  0
M  END
> <ConfClashScore>
0 

> <ConfOneFourInteractionScore>
-0.984337 

> <ConfScore>
-0.0576365 

> <ConfScorePBest>
0.00392644 

> <ConfTolerance>
0.32816 

$$$$
c13.sdf
 OpenBabel04162418043D

 44 47  0  0  0  0  0  0  0  0999 V2000
    1.7156    1.0915   -1.8250 N   0  0  0  1  0  0  0  0  0  0  0  0
    2.6003    1.5747   -2.6808 C   0  0  0  1  0  0  0  0  0  0  0  0
    2.2585    2.0427   -3.8594 N   0  0  0  1  0  0  0  0  0  0  0  0
    0.9781    2.0453   -4.2391 C   0  0  0  1  0  0  0  0  0  0  0  0
    0.0064    1.5371   -3.3509 C   0  0  0  1  0  0  0  0  0  0  0  0
    0.4268    1.0542   -2.1152 C   0  0  0  1  0  0  0  0  0  0  0  0
    0.2912    2.4620   -5.4004 C   0  0  0  1  0  0  0  0  0  0  0  0
   -0.9809    2.2314   -5.2397 N   0  0  0  1  0  0  0  0  0  0  0  0
   -1.2031    1.6573   -3.9811 N   0  0  0  1  0  0  0  0  0  0  0  0
   -2.5049    1.3120   -3.5651 C   0  0  0  1  0  0  0  0  0  0  0  0
   -2.7818    0.1300   -2.9045 C   0  0  0  1  0  0  0  0  0  0  0  0
   -4.0801   -0.1572   -2.5129 C   0  0  0  1  0  0  0  0  0  0  0  0
   -5.0986    0.7358   -2.7877 C   0  0  0  1  0  0  0  0  0  0  0  0
   -4.8207    1.9213   -3.4503 C   0  0  0  1  0  0  0  0  0  0  0  0
   -3.5262    2.2078   -3.8408 C   0  0  0  1  0  0  0  0  0  0  0  0
   -6.3236    0.3456   -2.3625 O   0  0  0  1  0  0  0  0  0  0  0  0
   -7.4155    1.2510   -2.5875 C   0  0  0  1  0  0  0  0  0  0  0  0
    3.9349    1.6167   -2.3884 N   0  0  0  1  0  0  0  0  0  0  0  0
    4.4649    1.0538   -1.1590 C   0  0  0  1  0  0  0  0  0  0  0  0
    5.3228   -0.1755   -1.4675 C   0  0  0  1  0  0  0  0  0  0  0  0
    6.5498   -0.0610   -0.5597 C   0  0  0  1  0  0  0  0  0  0  0  0
    6.7878    1.4489   -0.5322 C   0  0  0  1  0  0  0  0  0  0  0  0
    5.3865    2.0661   -0.4671 C   0  0  0  1  0  0  0  0  0  0  0  0
    6.2634   -0.5902    0.8091 N   0  0  0  1  0  0  0  0  0  0  0  0
   -0.2595    0.6717   -1.4338 H   0  0  0  1  0  0  0  0  0  0  0  0
    0.7286    2.8835   -6.2446 H   0  0  0  1  0  0  0  0  0  0  0  0
   -2.0161   -0.5438   -2.7013 H   0  0  0  1  0  0  0  0  0  0  0  0
   -4.2878   -1.0448   -2.0123 H   0  0  0  1  0  0  0  0  0  0  0  0
   -5.5863    2.5952   -3.6536 H   0  0  0  1  0  0  0  0  0  0  0  0
   -3.3184    3.0954   -4.3414 H   0  0  0  1  0  0  0  0  0  0  0  0
   -7.2725    2.1354   -2.0024 H   0  0  0  1  0  0  0  0  0  0  0  0
   -8.3333    0.7802   -2.3033 H   0  0  0  1  0  0  0  0  0  0  0  0
   -7.4541    1.5121   -3.6245 H   0  0  0  1  0  0  0  0  0  0  0  0
    4.5500    2.0376   -3.0247 H   0  0  0  1  0  0  0  0  0  0  0  0
    3.6565    0.7869   -0.5108 H   0  0  0  1  0  0  0  0  0  0  0  0
    4.7810   -1.0725   -1.2512 H   0  0  0  1  0  0  0  0  0  0  0  0
    5.6182   -0.1759   -2.4959 H   0  0  0  1  0  0  0  0  0  0  0  0
    7.3893   -0.5788   -0.9745 H   0  0  0  1  0  0  0  0  0  0  0  0
    7.2982    1.7660   -1.4176 H   0  0  0  1  0  0  0  0  0  0  0  0
    7.3609    1.7242    0.3284 H   0  0  0  1  0  0  0  0  0  0  0  0
    5.0877    2.2103    0.5502 H   0  0  0  1  0  0  0  0  0  0  0  0
    5.3660    3.0040   -0.9817 H   0  0  0  1  0  0  0  0  0  0  0  0
    6.0232   -1.5384    0.7496 H   0  0  0  1  0  0  0  0  0  0  0  0
    5.5194   -0.0891    1.2037 H   0  0  0  1  0  0  0  0  0  0  0  0
  1  2  4  0  0  0  0
  1  6  4  0  0  0  0
  2  3  4  0  0  0  0
  2 18  1  0  0  0  0
  3  4  4  0  0  0  0
  4  5  4  0  0  0  0
  4  7  4  0  0  0  0
  5  6  4  0  0  0  0
  5  9  4  0  0  0  0
  6 25  1  0  0  0  0
  7  8  4  0  0  0  0
  7 26  1  0  0  0  0
  8  9  4  0  0  0  0
  9 10  1  0  0  0  0
 10 11  4  0  0  0  0
 10 15  4  0  0  0  0
 11 12  4  0  0  0  0
 11 27  1  0  0  0  0
 12 13  4  0  0  0  0
 12 28  1  0  0  0  0
 13 14  4  0  0  0  0
 13 16  1  0  0  0  0
 14 15  4  0  0  0  0
 14 29  1  0  0  0  0
 15 30  1  0  0  0  0
 16 17  1  0  0  0  0
 17 31  1  0  0  0  0
 17 32  1  0  0  0  0
 17 33  1  0  0  0  0
 18 19  1  0  0  0  0
 18 34  1  0  0  0  0
 19 20  1  0  0  0  0
 19 23  1  0  0  0  0
 19 35  1  0  0  0  0
 20 21  1  0  0  0  0
 20 36  1  0  0  0  0
 20 37  1  0  0  0  0
 21 22  1  0  0  0  0
 21 24  1  0  0  0  0
 21 38  1  0  0  0  0
 22 23  1  0  0  0  0
 22 39  1  0  0  0  0
 22 40  1  0  0  0  0
 23 41  1  0  0  0  0
 23 42  1  0  0  0  0
 24 43  1  0  0  0  0
 24 44  1  0  0  0  0
M  END
> <ConfClashScore>
0 

> <ConfOneFourInteractionScore>
-0.984337 

> <ConfScore>
-0.0573275 

> <ConfScorePBest>
0.00391311 

> <ConfTolerance>
0.33828 

$$$$
c13.sdf
 OpenBabel04162418043D

 44 47  0  0  0  0  0  0  0  0999 V2000
    2.0893    2.9304   -3.2335 N   0  0  0  1  0  0  0  0  0  0  0  0
    2.8784    2.6218   -2.2184 C   0  0  0  1  0  0  0  0  0  0  0  0
    3.0506    3.4212   -1.1907 N   0  0  0  1  0  0  0  0  0  0  0  0
    2.4201    4.5973   -1.1374 C   0  0  0  1  0  0  0  0  0  0  0  0
    1.5697    4.9596   -2.2035 C   0  0  0  1  0  0  0  0  0  0  0  0
    1.4254    4.0728   -3.2664 C   0  0  0  1  0  0  0  0  0  0  0  0
    2.3846    5.6598   -0.2079 C   0  0  0  1  0  0  0  0  0  0  0  0
    1.5880    6.5858   -0.6609 N   0  0  0  1  0  0  0  0  0  0  0  0
    1.0598    6.1929   -1.8977 N   0  0  0  1  0  0  0  0  0  0  0  0
    0.2398    7.0428   -2.6761 C   0  0  0  1  0  0  0  0  0  0  0  0
    0.7363    8.2914   -2.9997 C   0  0  0  1  0  0  0  0  0  0  0  0
   -0.0236    9.1623   -3.7650 C   0  0  0  1  0  0  0  0  0  0  0  0
   -1.2799    8.7841   -4.2000 C   0  0  0  1  0  0  0  0  0  0  0  0
   -1.7777    7.5318   -3.8753 C   0  0  0  1  0  0  0  0  0  0  0  0
   -1.0201    6.6634   -3.1123 C   0  0  0  1  0  0  0  0  0  0  0  0
   -1.9725    9.6829   -4.9390 O   0  0  0  1  0  0  0  0  0  0  0  0
   -3.2590    9.2758   -5.4308 C   0  0  0  1  0  0  0  0  0  0  0  0
    3.5466    1.4544   -2.2016 N   0  0  0  1  0  0  0  0  0  0  0  0
    4.4337    1.0446   -1.1268 C   0  0  0  1  0  0  0  0  0  0  0  0
    5.2654   -0.1621   -1.5531 C   0  0  0  1  0  0  0  0  0  0  0  0
    6.4699   -0.0945   -0.5948 C   0  0  0  1  0  0  0  0  0  0  0  0
    6.6294    1.3727   -0.2284 C   0  0  0  1  0  0  0  0  0  0  0  0
    5.4371    2.1425   -0.8196 C   0  0  0  1  0  0  0  0  0  0  0  0
    6.2085   -0.9030    0.6189 N   0  0  0  1  0  0  0  0  0  0  0  0
    0.8077    4.3043   -4.0704 H   0  0  0  1  0  0  0  0  0  0  0  0
    2.9079    5.6969    0.6901 H   0  0  0  1  0  0  0  0  0  0  0  0
    1.6799    8.5775   -2.6690 H   0  0  0  1  0  0  0  0  0  0  0  0
    0.3516   10.1003   -4.0119 H   0  0  0  1  0  0  0  0  0  0  0  0
   -2.7213    7.2456   -4.2060 H   0  0  0  1  0  0  0  0  0  0  0  0
   -1.3953    5.7253   -2.8653 H   0  0  0  1  0  0  0  0  0  0  0  0
   -3.1629    8.3504   -5.9592 H   0  0  0  1  0  0  0  0  0  0  0  0
   -3.6415   10.0255   -6.0915 H   0  0  0  1  0  0  0  0  0  0  0  0
   -3.9310    9.1483   -4.6080 H   0  0  0  1  0  0  0  0  0  0  0  0
    3.4280    0.8443   -2.9593 H   0  0  0  1  0  0  0  0  0  0  0  0
    3.8565    0.8118   -0.2564 H   0  0  0  1  0  0  0  0  0  0  0  0
    4.7192   -1.0730   -1.4233 H   0  0  0  1  0  0  0  0  0  0  0  0
    5.5778   -0.0751   -2.5728 H   0  0  0  1  0  0  0  0  0  0  0  0
    7.3525   -0.4546   -1.0807 H   0  0  0  1  0  0  0  0  0  0  0  0
    6.6402    1.4819    0.8360 H   0  0  0  1  0  0  0  0  0  0  0  0
    7.5437    1.7512   -0.6355 H   0  0  0  1  0  0  0  0  0  0  0  0
    5.7204    2.6634   -1.7103 H   0  0  0  1  0  0  0  0  0  0  0  0
    5.0396    2.8379   -0.1102 H   0  0  0  1  0  0  0  0  0  0  0  0
    5.3996   -0.5736    1.0635 H   0  0  0  1  0  0  0  0  0  0  0  0
    6.9704   -0.8290    1.2307 H   0  0  0  1  0  0  0  0  0  0  0  0
  1  2  4  0  0  0  0
  1  6  4  0  0  0  0
  2  3  4  0  0  0  0
  2 18  1  0  0  0  0
  3  4  4  0  0  0  0
  4  5  4  0  0  0  0
  4  7  4  0  0  0  0
  5  6  4  0  0  0  0
  5  9  4  0  0  0  0
  6 25  1  0  0  0  0
  7  8  4  0  0  0  0
  7 26  1  0  0  0  0
  8  9  4  0  0  0  0
  9 10  1  0  0  0  0
 10 11  4  0  0  0  0
 10 15  4  0  0  0  0
 11 12  4  0  0  0  0
 11 27  1  0  0  0  0
 12 13  4  0  0  0  0
 12 28  1  0  0  0  0
 13 14  4  0  0  0  0
 13 16  1  0  0  0  0
 14 15  4  0  0  0  0
 14 29  1  0  0  0  0
 15 30  1  0  0  0  0
 16 17  1  0  0  0  0
 17 31  1  0  0  0  0
 17 32  1  0  0  0  0
 17 33  1  0  0  0  0
 18 19  1  0  0  0  0
 18 34  1  0  0  0  0
 19 20  1  0  0  0  0
 19 23  1  0  0  0  0
 19 35  1  0  0  0  0
 20 21  1  0  0  0  0
 20 36  1  0  0  0  0
 20 37  1  0  0  0  0
 21 22  1  0  0  0  0
 21 24  1  0  0  0  0
 21 38  1  0  0  0  0
 22 23  1  0  0  0  0
 22 39  1  0  0  0  0
 22 40  1  0  0  0  0
 23 41  1  0  0  0  0
 23 42  1  0  0  0  0
 24 43  1  0  0  0  0
 24 44  1  0  0  0  0
M  END
> <ConfClashScore>
0 

> <ConfOneFourInteractionScore>
-0.985399 

> <ConfScore>
-0.0569451 

> <ConfScorePBest>
0.00389978 

> <ConfTolerance>
0.261447 

$$$$
c13.sdf
 OpenBabel04162418043D

 44 47  0  0  0  0  0  0  0  0999 V2000
    2.5499    2.2141   -3.0425 N   0  0  0  1  0  0  0  0  0  0  0  0
    3.7364    2.0671   -3.6074 C   0  0  0  1  0  0  0  0  0  0  0  0
    3.9618    2.3742   -4.8644 N   0  0  0  1  0  0  0  0  0  0  0  0
    2.9778    2.8552   -5.6285 C   0  0  0  1  0  0  0  0  0  0  0  0
    1.6981    3.0253   -5.0586 C   0  0  0  1  0  0  0  0  0  0  0  0
    1.5177    2.6831   -3.7217 C   0  0  0  1  0  0  0  0  0  0  0  0
    2.8838    3.2720   -6.9744 C   0  0  0  1  0  0  0  0  0  0  0  0
    1.6624    3.6609   -7.2078 N   0  0  0  1  0  0  0  0  0  0  0  0
    0.8916    3.5247   -6.0459 N   0  0  0  1  0  0  0  0  0  0  0  0
   -0.5058    3.7980   -6.0708 C   0  0  0  1  0  0  0  0  0  0  0  0
   -1.3361    3.0767   -6.9077 C   0  0  0  1  0  0  0  0  0  0  0  0
   -2.6971    3.3391   -6.9279 C   0  0  0  1  0  0  0  0  0  0  0  0
   -3.2230    4.3256   -6.1152 C   0  0  0  1  0  0  0  0  0  0  0  0
   -2.3901    5.0491   -5.2759 C   0  0  0  1  0  0  0  0  0  0  0  0
   -1.0330    4.7875   -5.2556 C   0  0  0  1  0  0  0  0  0  0  0  0
   -4.5588    4.4948   -6.2247 O   0  0  0  1  0  0  0  0  0  0  0  0
   -5.2191    5.4640   -5.3958 C   0  0  0  1  0  0  0  0  0  0  0  0
    4.7802    1.5715   -2.8473 N   0  0  0  1  0  0  0  0  0  0  0  0
    4.4996    1.2000   -1.4596 C   0  0  0  1  0  0  0  0  0  0  0  0
    5.0367   -0.2080   -1.1429 C   0  0  0  1  0  0  0  0  0  0  0  0
    6.5039   -0.0372   -0.6154 C   0  0  0  1  0  0  0  0  0  0  0  0
    6.6908    1.4715   -0.4906 C   0  0  0  1  0  0  0  0  0  0  0  0
    5.2951    2.1065   -0.4613 C   0  0  0  1  0  0  0  0  0  0  0  0
    6.6689   -0.7042    0.7186 N   0  0  0  1  0  0  0  0  0  0  0  0
    0.5893    2.7942   -3.2664 H   0  0  0  1  0  0  0  0  0  0  0  0
    3.6611    3.2691   -7.6653 H   0  0  0  1  0  0  0  0  0  0  0  0
   -0.9399    2.3371   -7.5221 H   0  0  0  1  0  0  0  0  0  0  0  0
   -3.3225    2.7936   -7.5547 H   0  0  0  1  0  0  0  0  0  0  0  0
   -2.7863    5.7887   -4.6614 H   0  0  0  1  0  0  0  0  0  0  0  0
   -0.4076    5.3330   -4.6288 H   0  0  0  1  0  0  0  0  0  0  0  0
   -6.2383    5.5641   -5.7058 H   0  0  0  1  0  0  0  0  0  0  0  0
   -4.7242    6.4082   -5.4881 H   0  0  0  1  0  0  0  0  0  0  0  0
   -5.1867    5.1420   -4.3759 H   0  0  0  1  0  0  0  0  0  0  0  0
    5.6787    1.4722   -3.2257 H   0  0  0  1  0  0  0  0  0  0  0  0
    3.4466    1.2603   -1.2796 H   0  0  0  1  0  0  0  0  0  0  0  0
    5.0333   -0.8092   -2.0281 H   0  0  0  1  0  0  0  0  0  0  0  0
    4.4296   -0.6718   -0.3938 H   0  0  0  1  0  0  0  0  0  0  0  0
    7.2059   -0.4491   -1.3100 H   0  0  0  1  0  0  0  0  0  0  0  0
    7.2158    1.7012    0.4130 H   0  0  0  1  0  0  0  0  0  0  0  0
    7.2433    1.8419   -1.3287 H   0  0  0  1  0  0  0  0  0  0  0  0
    5.3237    3.1219   -0.7976 H   0  0  0  1  0  0  0  0  0  0  0  0
    4.8715    2.0672    0.5204 H   0  0  0  1  0  0  0  0  0  0  0  0
    6.5970   -1.6755    0.6098 H   0  0  0  1  0  0  0  0  0  0  0  0
    5.9687   -0.3914    1.3288 H   0  0  0  1  0  0  0  0  0  0  0  0
  1  2  4  0  0  0  0
  1  6  4  0  0  0  0
  2  3  4  0  0  0  0
  2 18  1  0  0  0  0
  3  4  4  0  0  0  0
  4  5  4  0  0  0  0
  4  7  4  0  0  0  0
  5  6  4  0  0  0  0
  5  9  4  0  0  0  0
  6 25  1  0  0  0  0
  7  8  4  0  0  0  0
  7 26  1  0  0  0  0
  8  9  4  0  0  0  0
  9 10  1  0  0  0  0
 10 11  4  0  0  0  0
 10 15  4  0  0  0  0
 11 12  4  0  0  0  0
 11 27  1  0  0  0  0
 12 13  4  0  0  0  0
 12 28  1  0  0  0  0
 13 14  4  0  0  0  0
 13 16  1  0  0  0  0
 14 15  4  0  0  0  0
 14 29  1  0  0  0  0
 15 30  1  0  0  0  0
 16 17  1  0  0  0  0
 17 31  1  0  0  0  0
 17 32  1  0  0  0  0
 17 33  1  0  0  0  0
 18 19  1  0  0  0  0
 18 34  1  0  0  0  0
 19 20  1  0  0  0  0
 19 23  1  0  0  0  0
 19 35  1  0  0  0  0
 20 21  1  0  0  0  0
 20 36  1  0  0  0  0
 20 37  1  0  0  0  0
 21 22  1  0  0  0  0
 21 24  1  0  0  0  0
 21 38  1  0  0  0  0
 22 23  1  0  0  0  0
 22 39  1  0  0  0  0
 22 40  1  0  0  0  0
 23 41  1  0  0  0  0
 23 42  1  0  0  0  0
 24 43  1  0  0  0  0
 24 44  1  0  0  0  0
M  END
> <ConfClashScore>
0 

> <ConfOneFourInteractionScore>
-0.984337 

> <ConfScore>
-0.0563918 

> <ConfScorePBest>
0.00388645 

> <ConfTolerance>
0.338069 

$$$$
c13.sdf
 OpenBabel04162418043D

 44 47  0  0  0  0  0  0  0  0999 V2000
    2.8162    2.5921   -3.1621 N   0  0  0  1  0  0  0  0  0  0  0  0
    3.7986    1.9251   -3.7440 C   0  0  0  1  0  0  0  0  0  0  0  0
    3.9339    1.8651   -5.0490 N   0  0  0  1  0  0  0  0  0  0  0  0
    3.0642    2.4897   -5.8472 C   0  0  0  1  0  0  0  0  0  0  0  0
    2.0029    3.2114   -5.2605 C   0  0  0  1  0  0  0  0  0  0  0  0
    1.9094    3.2402   -3.8722 C   0  0  0  1  0  0  0  0  0  0  0  0
    2.9243    2.6231   -7.2460 C   0  0  0  1  0  0  0  0  0  0  0  0
    1.8768    3.3570   -7.4937 N   0  0  0  1  0  0  0  0  0  0  0  0
    1.2740    3.7442   -6.2897 N   0  0  0  1  0  0  0  0  0  0  0  0
    0.1621    4.6323   -6.3440 C   0  0  0  1  0  0  0  0  0  0  0  0
   -0.3447    5.0310   -7.5665 C   0  0  0  1  0  0  0  0  0  0  0  0
   -1.4304    5.8912   -7.6193 C   0  0  0  1  0  0  0  0  0  0  0  0
   -2.0027    6.3545   -6.4496 C   0  0  0  1  0  0  0  0  0  0  0  0
   -1.4943    5.9546   -5.2236 C   0  0  0  1  0  0  0  0  0  0  0  0
   -0.4118    5.0969   -5.1708 C   0  0  0  1  0  0  0  0  0  0  0  0
   -3.0601    7.1990   -6.5013 O   0  0  0  1  0  0  0  0  0  0  0  0
   -3.4804    7.8006   -5.2668 C   0  0  0  1  0  0  0  0  0  0  0  0
    4.6716    1.2977   -2.9271 N   0  0  0  1  0  0  0  0  0  0  0  0
    4.5088    1.2057   -1.4726 C   0  0  0  1  0  0  0  0  0  0  0  0
    4.9719   -0.1744   -0.9681 C   0  0  0  1  0  0  0  0  0  0  0  0
    6.4384    0.0726   -0.6244 C   0  0  0  1  0  0  0  0  0  0  0  0
    6.4831    1.4576   -0.0030 C   0  0  0  1  0  0  0  0  0  0  0  0
    5.3973    2.2242   -0.7758 C   0  0  0  1  0  0  0  0  0  0  0  0
    6.9264   -0.9523    0.3488 N   0  0  0  1  0  0  0  0  0  0  0  0
    1.1413    3.7613   -3.4030 H   0  0  0  1  0  0  0  0  0  0  0  0
    3.5536    2.2047   -7.9605 H   0  0  0  1  0  0  0  0  0  0  0  0
    0.0884    4.6856   -8.4466 H   0  0  0  1  0  0  0  0  0  0  0  0
   -1.8143    6.1880   -8.5391 H   0  0  0  1  0  0  0  0  0  0  0  0
   -1.9274    6.3000   -4.3434 H   0  0  0  1  0  0  0  0  0  0  0  0
   -0.0278    4.8000   -4.2510 H   0  0  0  1  0  0  0  0  0  0  0  0
   -4.2843    7.2321   -4.8480 H   0  0  0  1  0  0  0  0  0  0  0  0
   -3.8103    8.8015   -5.4523 H   0  0  0  1  0  0  0  0  0  0  0  0
   -2.6596    7.8165   -4.5805 H   0  0  0  1  0  0  0  0  0  0  0  0
    5.4607    0.8790   -3.3301 H   0  0  0  1  0  0  0  0  0  0  0  0
    3.4829    1.3702   -1.2169 H   0  0  0  1  0  0  0  0  0  0  0  0
    4.8740   -0.9176   -1.7316 H   0  0  0  1  0  0  0  0  0  0  0  0
    4.4180   -0.4754   -0.1035 H   0  0  0  1  0  0  0  0  0  0  0  0
    7.0399    0.0403   -1.5088 H   0  0  0  1  0  0  0  0  0  0  0  0
    6.2543    1.4169    1.0415 H   0  0  0  1  0  0  0  0  0  0  0  0
    7.4433    1.9091   -0.1409 H   0  0  0  1  0  0  0  0  0  0  0  0
    4.8140    2.8105   -0.0968 H   0  0  0  1  0  0  0  0  0  0  0  0
    5.8525    2.8655   -1.5013 H   0  0  0  1  0  0  0  0  0  0  0  0
    6.8484   -1.8445   -0.0491 H   0  0  0  1  0  0  0  0  0  0  0  0
    6.3859   -0.9107    1.1652 H   0  0  0  1  0  0  0  0  0  0  0  0
  1  2  4  0  0  0  0
  1  6  4  0  0  0  0
  2  3  4  0  0  0  0
  2 18  1  0  0  0  0
  3  4  4  0  0  0  0
  4  5  4  0  0  0  0
  4  7  4  0  0  0  0
  5  6  4  0  0  0  0
  5  9  4  0  0  0  0
  6 25  1  0  0  0  0
  7  8  4  0  0  0  0
  7 26  1  0  0  0  0
  8  9  4  0  0  0  0
  9 10  1  0  0  0  0
 10 11  4  0  0  0  0
 10 15  4  0  0  0  0
 11 12  4  0  0  0  0
 11 27  1  0  0  0  0
 12 13  4  0  0  0  0
 12 28  1  0  0  0  0
 13 14  4  0  0  0  0
 13 16  1  0  0  0  0
 14 15  4  0  0  0  0
 14 29  1  0  0  0  0
 15 30  1  0  0  0  0
 16 17  1  0  0  0  0
 17 31  1  0  0  0  0
 17 32  1  0  0  0  0
 17 33  1  0  0  0  0
 18 19  1  0  0  0  0
 18 34  1  0  0  0  0
 19 20  1  0  0  0  0
 19 23  1  0  0  0  0
 19 35  1  0  0  0  0
 20 21  1  0  0  0  0
 20 36  1  0  0  0  0
 20 37  1  0  0  0  0
 21 22  1  0  0  0  0
 21 24  1  0  0  0  0
 21 38  1  0  0  0  0
 22 23  1  0  0  0  0
 22 39  1  0  0  0  0
 22 40  1  0  0  0  0
 23 41  1  0  0  0  0
 23 42  1  0  0  0  0
 24 43  1  0  0  0  0
 24 44  1  0  0  0  0
M  END
> <ConfClashScore>
0 

> <ConfOneFourInteractionScore>
-0.984337 

> <ConfScore>
-0.0549914 

> <ConfScorePBest>
0.00387312 

> <ConfTolerance>
0.302493 

$$$$
c13.sdf
 OpenBabel04162418043D

 44 47  0  0  0  0  0  0  0  0999 V2000
    1.5833    2.3760   -2.8695 N   0  0  0  1  0  0  0  0  0  0  0  0
    2.3695    2.1162   -1.8387 C   0  0  0  1  0  0  0  0  0  0  0  0
    2.0836    2.5068   -0.6177 N   0  0  0  1  0  0  0  0  0  0  0  0
    0.9649    3.1942   -0.3736 C   0  0  0  1  0  0  0  0  0  0  0  0
    0.1019    3.4895   -1.4503 C   0  0  0  1  0  0  0  0  0  0  0  0
    0.4560    3.0502   -2.7225 C   0  0  0  1  0  0  0  0  0  0  0  0
    0.3762    3.7471    0.7847 C   0  0  0  1  0  0  0  0  0  0  0  0
   -0.7418    4.3265    0.4502 N   0  0  0  1  0  0  0  0  0  0  0  0
   -0.9516    4.1911   -0.9284 N   0  0  0  1  0  0  0  0  0  0  0  0
   -2.1110    4.7416   -1.5473 C   0  0  0  1  0  0  0  0  0  0  0  0
   -2.4040    4.4257   -2.8605 C   0  0  0  1  0  0  0  0  0  0  0  0
   -3.5806    4.8790   -3.4363 C   0  0  0  1  0  0  0  0  0  0  0  0
   -4.4583    5.6512   -2.6990 C   0  0  0  1  0  0  0  0  0  0  0  0
   -4.1643    5.9680   -1.3819 C   0  0  0  1  0  0  0  0  0  0  0  0
   -2.9911    5.5161   -0.8076 C   0  0  0  1  0  0  0  0  0  0  0  0
   -5.6025    6.0973   -3.2619 O   0  0  0  1  0  0  0  0  0  0  0  0
   -5.9264    5.7110   -4.6066 C   0  0  0  1  0  0  0  0  0  0  0  0
    3.5092    1.4136   -2.1002 N   0  0  0  1  0  0  0  0  0  0  0  0
    4.4639    1.0716   -1.0407 C   0  0  0  1  0  0  0  0  0  0  0  0
    5.2757   -0.1602   -1.4321 C   0  0  0  1  0  0  0  0  0  0  0  0
    6.5301   -0.0300   -0.5471 C   0  0  0  1  0  0  0  0  0  0  0  0
    6.7039    1.4579   -0.2863 C   0  0  0  1  0  0  0  0  0  0  0  0
    5.4784    2.1873   -0.8607 C   0  0  0  1  0  0  0  0  0  0  0  0
    6.3355   -0.7670    0.7454 N   0  0  0  1  0  0  0  0  0  0  0  0
   -0.1541    3.2484   -3.5411 H   0  0  0  1  0  0  0  0  0  0  0  0
    0.7699    3.6997    1.7462 H   0  0  0  1  0  0  0  0  0  0  0  0
   -1.7417    3.8480   -3.4166 H   0  0  0  1  0  0  0  0  0  0  0  0
   -3.8030    4.6379   -4.4233 H   0  0  0  1  0  0  0  0  0  0  0  0
   -4.8265    6.5457   -0.8258 H   0  0  0  1  0  0  0  0  0  0  0  0
   -2.7686    5.7571    0.1793 H   0  0  0  1  0  0  0  0  0  0  0  0
   -5.4189    6.3540   -5.2950 H   0  0  0  1  0  0  0  0  0  0  0  0
   -6.9828    5.7919   -4.7560 H   0  0  0  1  0  0  0  0  0  0  0  0
   -5.6188    4.6994   -4.7708 H   0  0  0  1  0  0  0  0  0  0  0  0
    3.6948    1.1301   -3.0198 H   0  0  0  1  0  0  0  0  0  0  0  0
    3.9356    0.8960   -0.1269 H   0  0  0  1  0  0  0  0  0  0  0  0
    4.7407   -1.0608   -1.2137 H   0  0  0  1  0  0  0  0  0  0  0  0
    5.5320   -0.1399   -2.4708 H   0  0  0  1  0  0  0  0  0  0  0  0
    7.3864   -0.4210   -1.0558 H   0  0  0  1  0  0  0  0  0  0  0  0
    7.5934    1.8092   -0.7663 H   0  0  0  1  0  0  0  0  0  0  0  0
    6.7720    1.6364    0.7666 H   0  0  0  1  0  0  0  0  0  0  0  0
    5.7110    2.6491   -1.7975 H   0  0  0  1  0  0  0  0  0  0  0  0
    5.1174    2.9275   -0.1776 H   0  0  0  1  0  0  0  0  0  0  0  0
    6.1345   -1.7078    0.5585 H   0  0  0  1  0  0  0  0  0  0  0  0
    5.5908   -0.3663    1.2407 H   0  0  0  1  0  0  0  0  0  0  0  0
  1  2  4  0  0  0  0
  1  6  4  0  0  0  0
  2  3  4  0  0  0  0
  2 18  1  0  0  0  0
  3  4  4  0  0  0  0
  4  5  4  0  0  0  0
  4  7  4  0  0  0  0
  5  6  4  0  0  0  0
  5  9  4  0  0  0  0
  6 25  1  0  0  0  0
  7  8  4  0  0  0  0
  7 26  1  0  0  0  0
  8  9  4  0  0  0  0
  9 10  1  0  0  0  0
 10 11  4  0  0  0  0
 10 15  4  0  0  0  0
 11 12  4  0  0  0  0
 11 27  1  0  0  0  0
 12 13  4  0  0  0  0
 12 28  1  0  0  0  0
 13 14  4  0  0  0  0
 13 16  1  0  0  0  0
 14 15  4  0  0  0  0
 14 29  1  0  0  0  0
 15 30  1  0  0  0  0
 16 17  1  0  0  0  0
 17 31  1  0  0  0  0
 17 32  1  0  0  0  0
 17 33  1  0  0  0  0
 18 19  1  0  0  0  0
 18 34  1  0  0  0  0
 19 20  1  0  0  0  0
 19 23  1  0  0  0  0
 19 35  1  0  0  0  0
 20 21  1  0  0  0  0
 20 36  1  0  0  0  0
 20 37  1  0  0  0  0
 21 22  1  0  0  0  0
 21 24  1  0  0  0  0
 21 38  1  0  0  0  0
 22 23  1  0  0  0  0
 22 39  1  0  0  0  0
 22 40  1  0  0  0  0
 23 41  1  0  0  0  0
 23 42  1  0  0  0  0
 24 43  1  0  0  0  0
 24 44  1  0  0  0  0
M  END
> <ConfClashScore>
0 

> <ConfOneFourInteractionScore>
-0.984337 

> <ConfScore>
-0.0549914 

> <ConfScorePBest>
0.0038598 

> <ConfTolerance>
0.304404 

$$$$
c13.sdf
 OpenBabel04162418043D

 44 47  0  0  0  0  0  0  0  0999 V2000
    1.4348    2.1207   -3.0072 N   0  0  0  1  0  0  0  0  0  0  0  0
    2.1727    1.6744   -2.0049 C   0  0  0  1  0  0  0  0  0  0  0  0
    1.6728    1.4315   -0.8149 N   0  0  0  1  0  0  0  0  0  0  0  0
    0.3746    1.6321   -0.5744 C   0  0  0  1  0  0  0  0  0  0  0  0
   -0.4433    2.1081   -1.6213 C   0  0  0  1  0  0  0  0  0  0  0  0
    0.1411    2.3480   -2.8614 C   0  0  0  1  0  0  0  0  0  0  0  0
   -0.4582    1.4763    0.5553 C   0  0  0  1  0  0  0  0  0  0  0  0
   -1.6715    1.8236    0.2320 N   0  0  0  1  0  0  0  0  0  0  0  0
   -1.7083    2.2229   -1.1104 N   0  0  0  1  0  0  0  0  0  0  0  0
   -2.9303    2.6382   -1.6603 C   0  0  0  1  0  0  0  0  0  0  0  0
   -3.0607    3.5958   -2.6483 C   0  0  0  1  0  0  0  0  0  0  0  0
   -4.3176    3.9305   -3.1274 C   0  0  0  1  0  0  0  0  0  0  0  0
   -5.4409    3.3104   -2.6135 C   0  0  0  1  0  0  0  0  0  0  0  0
   -5.3100    2.3499   -1.6226 C   0  0  0  1  0  0  0  0  0  0  0  0
   -4.0568    2.0162   -1.1447 C   0  0  0  1  0  0  0  0  0  0  0  0
   -6.6121    3.7221   -3.1545 O   0  0  0  1  0  0  0  0  0  0  0  0
   -7.7964    2.9996   -2.7830 C   0  0  0  1  0  0  0  0  0  0  0  0
    3.5034    1.4577   -2.2131 N   0  0  0  1  0  0  0  0  0  0  0  0
    4.3976    1.0439   -1.1240 C   0  0  0  1  0  0  0  0  0  0  0  0
    5.2697   -0.1401   -1.5418 C   0  0  0  1  0  0  0  0  0  0  0  0
    6.4727   -0.0958   -0.5931 C   0  0  0  1  0  0  0  0  0  0  0  0
    6.6345    1.3813   -0.2122 C   0  0  0  1  0  0  0  0  0  0  0  0
    5.4425    2.1213   -0.8235 C   0  0  0  1  0  0  0  0  0  0  0  0
    6.2143   -0.9124    0.6061 N   0  0  0  1  0  0  0  0  0  0  0  0
   -0.4288    2.6991   -3.6574 H   0  0  0  1  0  0  0  0  0  0  0  0
   -0.1533    1.1398    1.4909 H   0  0  0  1  0  0  0  0  0  0  0  0
   -2.2158    4.0653   -3.0322 H   0  0  0  1  0  0  0  0  0  0  0  0
   -4.4154    4.6482   -3.8737 H   0  0  0  1  0  0  0  0  0  0  0  0
   -6.1548    1.8804   -1.2387 H   0  0  0  1  0  0  0  0  0  0  0  0
   -3.9589    1.2985   -0.3985 H   0  0  0  1  0  0  0  0  0  0  0  0
   -7.8695    2.9579   -1.7163 H   0  0  0  1  0  0  0  0  0  0  0  0
   -7.7454    2.0056   -3.1758 H   0  0  0  1  0  0  0  0  0  0  0  0
   -8.6566    3.4969   -3.1800 H   0  0  0  1  0  0  0  0  0  0  0  0
    3.8721    1.5813   -3.1127 H   0  0  0  1  0  0  0  0  0  0  0  0
    3.8182    0.8118   -0.2549 H   0  0  0  1  0  0  0  0  0  0  0  0
    4.7350   -1.0600   -1.4291 H   0  0  0  1  0  0  0  0  0  0  0  0
    5.5874   -0.0338   -2.5580 H   0  0  0  1  0  0  0  0  0  0  0  0
    7.3521   -0.4538   -1.0864 H   0  0  0  1  0  0  0  0  0  0  0  0
    6.6310    1.4908    0.8522 H   0  0  0  1  0  0  0  0  0  0  0  0
    7.5509    1.7666   -0.6079 H   0  0  0  1  0  0  0  0  0  0  0  0
    5.0520    2.8368   -0.1303 H   0  0  0  1  0  0  0  0  0  0  0  0
    5.7346    2.6194   -1.7244 H   0  0  0  1  0  0  0  0  0  0  0  0
    5.4245   -0.5676    1.0728 H   0  0  0  1  0  0  0  0  0  0  0  0
    6.9903   -0.8705    1.2030 H   0  0  0  1  0  0  0  0  0  0  0  0
  1  2  4  0  0  0  0
  1  6  4  0  0  0  0
  2  3  4  0  0  0  0
  2 18  1  0  0  0  0
  3  4  4  0  0  0  0
  4  5  4  0  0  0  0
  4  7  4  0  0  0  0
  5  6  4  0  0  0  0
  5  9  4  0  0  0  0
  6 25  1  0  0  0  0
  7  8  4  0  0  0  0
  7 26  1  0  0  0  0
  8  9  4  0  0  0  0
  9 10  1  0  0  0  0
 10 11  4  0  0  0  0
 10 15  4  0  0  0  0
 11 12  4  0  0  0  0
 11 27  1  0  0  0  0
 12 13  4  0  0  0  0
 12 28  1  0  0  0  0
 13 14  4  0  0  0  0
 13 16  1  0  0  0  0
 14 15  4  0  0  0  0
 14 29  1  0  0  0  0
 15 30  1  0  0  0  0
 16 17  1  0  0  0  0
 17 31  1  0  0  0  0
 17 32  1  0  0  0  0
 17 33  1  0  0  0  0
 18 19  1  0  0  0  0
 18 34  1  0  0  0  0
 19 20  1  0  0  0  0
 19 23  1  0  0  0  0
 19 35  1  0  0  0  0
 20 21  1  0  0  0  0
 20 36  1  0  0  0  0
 20 37  1  0  0  0  0
 21 22  1  0  0  0  0
 21 24  1  0  0  0  0
 21 38  1  0  0  0  0
 22 23  1  0  0  0  0
 22 39  1  0  0  0  0
 22 40  1  0  0  0  0
 23 41  1  0  0  0  0
 23 42  1  0  0  0  0
 24 43  1  0  0  0  0
 24 44  1  0  0  0  0
M  END
> <ConfClashScore>
0 

> <ConfOneFourInteractionScore>
-0.984337 

> <ConfScore>
-0.0543251 

> <ConfScorePBest>
0.00384647 

> <ConfTolerance>
0.381061 

$$$$
c13.sdf
 OpenBabel04162418043D

 44 47  0  0  0  0  0  0  0  0999 V2000
    3.1726    3.1006   -3.0350 N   0  0  0  1  0  0  0  0  0  0  0  0
    4.0013    2.2740   -3.6501 C   0  0  0  1  0  0  0  0  0  0  0  0
    4.2683    2.3682   -4.9326 N   0  0  0  1  0  0  0  0  0  0  0  0
    3.6986    3.3231   -5.6723 C   0  0  0  1  0  0  0  0  0  0  0  0
    2.8087    4.2234   -5.0487 C   0  0  0  1  0  0  0  0  0  0  0  0
    2.5633    4.0756   -3.6868 C   0  0  0  1  0  0  0  0  0  0  0  0
    3.7656    3.6926   -7.0335 C   0  0  0  1  0  0  0  0  0  0  0  0
    2.9903    4.7217   -7.2266 N   0  0  0  1  0  0  0  0  0  0  0  0
    2.3761    5.0850   -6.0209 N   0  0  0  1  0  0  0  0  0  0  0  0
    1.5621    6.2402   -5.9609 C   0  0  0  1  0  0  0  0  0  0  0  0
    1.9233    7.2985   -5.1488 C   0  0  0  1  0  0  0  0  0  0  0  0
    1.1284    8.4328   -5.0942 C   0  0  0  1  0  0  0  0  0  0  0  0
   -0.0281    8.5033   -5.8477 C   0  0  0  1  0  0  0  0  0  0  0  0
   -0.3902    7.4418   -6.6623 C   0  0  0  1  0  0  0  0  0  0  0  0
    0.4023    6.3107   -6.7168 C   0  0  0  1  0  0  0  0  0  0  0  0
   -0.8833    9.5531   -5.8723 O   0  0  0  1  0  0  0  0  0  0  0  0
   -0.5550   10.6862   -5.0533 C   0  0  0  1  0  0  0  0  0  0  0  0
    4.6021    1.2857   -2.9267 N   0  0  0  1  0  0  0  0  0  0  0  0
    4.4766    1.2140   -1.4639 C   0  0  0  1  0  0  0  0  0  0  0  0
    4.9442   -0.1886   -0.9480 C   0  0  0  1  0  0  0  0  0  0  0  0
    6.4594    0.0410   -0.6241 C   0  0  0  1  0  0  0  0  0  0  0  0
    6.4925    1.4663   -0.0394 C   0  0  0  1  0  0  0  0  0  0  0  0
    5.4100    2.2601   -0.7919 C   0  0  0  1  0  0  0  0  0  0  0  0
    6.9488   -0.9575    0.3755 N   0  0  0  1  0  0  0  0  0  0  0  0
    1.9136    4.7195   -3.1919 H   0  0  0  1  0  0  0  0  0  0  0  0
    4.3391    3.2210   -7.7618 H   0  0  0  1  0  0  0  0  0  0  0  0
    2.7914    7.2439   -4.5787 H   0  0  0  1  0  0  0  0  0  0  0  0
    1.4022    9.2308   -4.4861 H   0  0  0  1  0  0  0  0  0  0  0  0
   -1.2583    7.4964   -7.2324 H   0  0  0  1  0  0  0  0  0  0  0  0
    0.1285    5.5127   -7.3249 H   0  0  0  1  0  0  0  0  0  0  0  0
    0.4715   10.6275   -4.7572 H   0  0  0  1  0  0  0  0  0  0  0  0
   -1.1774   10.6892   -4.1830 H   0  0  0  1  0  0  0  0  0  0  0  0
   -0.7145   11.5862   -5.6096 H   0  0  0  1  0  0  0  0  0  0  0  0
    5.1309    0.6060   -3.3944 H   0  0  0  1  0  0  0  0  0  0  0  0
    3.4593    1.3913   -1.1836 H   0  0  0  1  0  0  0  0  0  0  0  0
    4.8218   -0.9363   -1.7036 H   0  0  0  1  0  0  0  0  0  0  0  0
    4.4029   -0.4754   -0.0707 H   0  0  0  1  0  0  0  0  0  0  0  0
    7.0535   -0.0216   -1.5118 H   0  0  0  1  0  0  0  0  0  0  0  0
    7.4539    1.9095   -0.1953 H   0  0  0  1  0  0  0  0  0  0  0  0
    6.2755    1.4432    1.0081 H   0  0  0  1  0  0  0  0  0  0  0  0
    4.8533    2.8651   -0.1071 H   0  0  0  1  0  0  0  0  0  0  0  0
    5.8602    2.8841   -1.5354 H   0  0  0  1  0  0  0  0  0  0  0  0
    6.9196   -1.8549   -0.0172 H   0  0  0  1  0  0  0  0  0  0  0  0
    6.3768   -0.9305    1.1708 H   0  0  0  1  0  0  0  0  0  0  0  0
  1  2  4  0  0  0  0
  1  6  4  0  0  0  0
  2  3  4  0  0  0  0
  2 18  1  0  0  0  0
  3  4  4  0  0  0  0
  4  5  4  0  0  0  0
  4  7  4  0  0  0  0
  5  6  4  0  0  0  0
  5  9  4  0  0  0  0
  6 25  1  0  0  0  0
  7  8  4  0  0  0  0
  7 26  1  0  0  0  0
  8  9  4  0  0  0  0
  9 10  1  0  0  0  0
 10 11  4  0  0  0  0
 10 15  4  0  0  0  0
 11 12  4  0  0  0  0
 11 27  1  0  0  0  0
 12 13  4  0  0  0  0
 12 28  1  0  0  0  0
 13 14  4  0  0  0  0
 13 16  1  0  0  0  0
 14 15  4  0  0  0  0
 14 29  1  0  0  0  0
 15 30  1  0  0  0  0
 16 17  1  0  0  0  0
 17 31  1  0  0  0  0
 17 32  1  0  0  0  0
 17 33  1  0  0  0  0
 18 19  1  0  0  0  0
 18 34  1  0  0  0  0
 19 20  1  0  0  0  0
 19 23  1  0  0  0  0
 19 35  1  0  0  0  0
 20 21  1  0  0  0  0
 20 36  1  0  0  0  0
 20 37  1  0  0  0  0
 21 22  1  0  0  0  0
 21 24  1  0  0  0  0
 21 38  1  0  0  0  0
 22 23  1  0  0  0  0
 22 39  1  0  0  0  0
 22 40  1  0  0  0  0
 23 41  1  0  0  0  0
 23 42  1  0  0  0  0
 24 43  1  0  0  0  0
 24 44  1  0  0  0  0
M  END
> <ConfClashScore>
0 

> <ConfOneFourInteractionScore>
-0.984337 

> <ConfScore>
-0.0542839 

> <ConfScorePBest>
0.00383314 

> <ConfTolerance>
0.320035 

$$$$
c13.sdf
 OpenBabel04162418043D

 44 47  0  0  0  0  0  0  0  0999 V2000
    1.7065    1.0898   -1.8559 N   0  0  0  1  0  0  0  0  0  0  0  0
    2.5347    1.7176   -2.6735 C   0  0  0  1  0  0  0  0  0  0  0  0
    2.1166    2.3874   -3.7230 N   0  0  0  1  0  0  0  0  0  0  0  0
    0.8128    2.4571   -4.0038 C   0  0  0  1  0  0  0  0  0  0  0  0
   -0.1002    1.7989   -3.1526 C   0  0  0  1  0  0  0  0  0  0  0  0
    0.4000    1.1044   -2.0552 C   0  0  0  1  0  0  0  0  0  0  0  0
    0.0512    3.0733   -5.0208 C   0  0  0  1  0  0  0  0  0  0  0  0
   -1.2093    2.8174   -4.8130 N   0  0  0  1  0  0  0  0  0  0  0  0
   -1.3495    2.0289   -3.6634 N   0  0  0  1  0  0  0  0  0  0  0  0
   -2.6274    1.6135   -3.2217 C   0  0  0  1  0  0  0  0  0  0  0  0
   -3.0928    2.0105   -1.9824 C   0  0  0  1  0  0  0  0  0  0  0  0
   -4.3474    1.6077   -1.5518 C   0  0  0  1  0  0  0  0  0  0  0  0
   -5.1306    0.8048   -2.3594 C   0  0  0  1  0  0  0  0  0  0  0  0
   -4.6636    0.4067   -3.6024 C   0  0  0  1  0  0  0  0  0  0  0  0
   -3.4127    0.8082   -4.0319 C   0  0  0  1  0  0  0  0  0  0  0  0
   -6.3624    0.3473   -2.0459 O   0  0  0  1  0  0  0  0  0  0  0  0
   -6.9092    0.6220   -0.7467 C   0  0  0  1  0  0  0  0  0  0  0  0
    3.8381    1.6408   -2.3824 N   0  0  0  1  0  0  0  0  0  0  0  0
    4.4309    1.0040   -1.2019 C   0  0  0  1  0  0  0  0  0  0  0  0
    5.3450   -0.1514   -1.6193 C   0  0  0  1  0  0  0  0  0  0  0  0
    6.4926   -0.1203   -0.6040 C   0  0  0  1  0  0  0  0  0  0  0  0
    6.7374    1.3719   -0.4508 C   0  0  0  1  0  0  0  0  0  0  0  0
    5.3368    1.9935   -0.4568 C   0  0  0  1  0  0  0  0  0  0  0  0
    6.0846   -0.7424    0.6991 N   0  0  0  1  0  0  0  0  0  0  0  0
   -0.2413    0.6068   -1.4050 H   0  0  0  1  0  0  0  0  0  0  0  0
    0.4333    3.6381   -5.8060 H   0  0  0  1  0  0  0  0  0  0  0  0
   -2.5019    2.6113   -1.3730 H   0  0  0  1  0  0  0  0  0  0  0  0
   -4.6993    1.9097   -0.6209 H   0  0  0  1  0  0  0  0  0  0  0  0
   -5.2545   -0.1941   -4.2118 H   0  0  0  1  0  0  0  0  0  0  0  0
   -3.0607    0.5062   -4.9627 H   0  0  0  1  0  0  0  0  0  0  0  0
   -7.8963    0.2142   -0.6811 H   0  0  0  1  0  0  0  0  0  0  0  0
   -6.9498    1.6802   -0.5935 H   0  0  0  1  0  0  0  0  0  0  0  0
   -6.2890    0.1762    0.0026 H   0  0  0  1  0  0  0  0  0  0  0  0
    4.4580    2.0507   -3.0212 H   0  0  0  1  0  0  0  0  0  0  0  0
    3.6527    0.6513   -0.5577 H   0  0  0  1  0  0  0  0  0  0  0  0
    4.8221   -1.0836   -1.5702 H   0  0  0  1  0  0  0  0  0  0  0  0
    5.7146   -0.0011   -2.6121 H   0  0  0  1  0  0  0  0  0  0  0  0
    7.3599   -0.6197   -0.9823 H   0  0  0  1  0  0  0  0  0  0  0  0
    7.3201    1.7451   -1.2669 H   0  0  0  1  0  0  0  0  0  0  0  0
    7.2394    1.5799    0.4710 H   0  0  0  1  0  0  0  0  0  0  0  0
    4.9887    2.1321    0.5455 H   0  0  0  1  0  0  0  0  0  0  0  0
    5.3518    2.9359   -0.9633 H   0  0  0  1  0  0  0  0  0  0  0  0
    5.2831   -0.2929    1.0395 H   0  0  0  1  0  0  0  0  0  0  0  0
    6.8127   -0.6475    1.3482 H   0  0  0  1  0  0  0  0  0  0  0  0
  1  2  4  0  0  0  0
  1  6  4  0  0  0  0
  2  3  4  0  0  0  0
  2 18  1  0  0  0  0
  3  4  4  0  0  0  0
  4  5  4  0  0  0  0
  4  7  4  0  0  0  0
  5  6  4  0  0  0  0
  5  9  4  0  0  0  0
  6 25  1  0  0  0  0
  7  8  4  0  0  0  0
  7 26  1  0  0  0  0
  8  9  4  0  0  0  0
  9 10  1  0  0  0  0
 10 11  4  0  0  0  0
 10 15  4  0  0  0  0
 11 12  4  0  0  0  0
 11 27  1  0  0  0  0
 12 13  4  0  0  0  0
 12 28  1  0  0  0  0
 13 14  4  0  0  0  0
 13 16  1  0  0  0  0
 14 15  4  0  0  0  0
 14 29  1  0  0  0  0
 15 30  1  0  0  0  0
 16 17  1  0  0  0  0
 17 31  1  0  0  0  0
 17 32  1  0  0  0  0
 17 33  1  0  0  0  0
 18 19  1  0  0  0  0
 18 34  1  0  0  0  0
 19 20  1  0  0  0  0
 19 23  1  0  0  0  0
 19 35  1  0  0  0  0
 20 21  1  0  0  0  0
 20 36  1  0  0  0  0
 20 37  1  0  0  0  0
 21 22  1  0  0  0  0
 21 24  1  0  0  0  0
 21 38  1  0  0  0  0
 22 23  1  0  0  0  0
 22 39  1  0  0  0  0
 22 40  1  0  0  0  0
 23 41  1  0  0  0  0
 23 42  1  0  0  0  0
 24 43  1  0  0  0  0
 24 44  1  0  0  0  0
M  END
> <ConfClashScore>
0 

> <ConfOneFourInteractionScore>
-0.984337 

> <ConfScore>
-0.0533894 

> <ConfScorePBest>
0.00381981 

> <ConfTolerance>
0.338641 

$$$$
c13.sdf
 OpenBabel04162418043D

 44 47  0  0  0  0  0  0  0  0999 V2000
    4.9476    2.3231   -4.9645 N   0  0  0  1  0  0  0  0  0  0  0  0
    4.7124    2.3875   -3.6649 C   0  0  0  1  0  0  0  0  0  0  0  0
    4.4395    3.5171   -3.0529 N   0  0  0  1  0  0  0  0  0  0  0  0
    4.3898    4.6617   -3.7391 C   0  0  0  1  0  0  0  0  0  0  0  0
    4.6356    4.6305   -5.1284 C   0  0  0  1  0  0  0  0  0  0  0  0
    4.9197    3.4048   -5.7233 C   0  0  0  1  0  0  0  0  0  0  0  0
    4.1324    6.0082   -3.4004 C   0  0  0  1  0  0  0  0  0  0  0  0
    4.2126    6.7339   -4.4794 N   0  0  0  1  0  0  0  0  0  0  0  0
    4.5232    5.9194   -5.5763 N   0  0  0  1  0  0  0  0  0  0  0  0
    4.6654    6.4670   -6.8600 C   0  0  0  1  0  0  0  0  0  0  0  0
    3.7651    7.3369   -7.4457 C   0  0  0  1  0  0  0  0  0  0  0  0
    4.0031    7.8256   -8.7208 C   0  0  0  1  0  0  0  0  0  0  0  0
    5.1379    7.4389   -9.4087 C   0  0  0  1  0  0  0  0  0  0  0  0
    6.0407    6.5664   -8.8211 C   0  0  0  1  0  0  0  0  0  0  0  0
    5.8035    6.0790   -7.5497 C   0  0  0  1  0  0  0  0  0  0  0  0
    5.2604    7.9759  -10.6458 O   0  0  0  1  0  0  0  0  0  0  0  0
    6.5004    7.7566  -11.3364 C   0  0  0  1  0  0  0  0  0  0  0  0
    4.7540    1.2544   -2.9412 N   0  0  0  1  0  0  0  0  0  0  0  0
    4.5051    1.1970   -1.4957 C   0  0  0  1  0  0  0  0  0  0  0  0
    4.9518   -0.1349   -0.9187 C   0  0  0  1  0  0  0  0  0  0  0  0
    6.4451    0.0189   -0.6429 C   0  0  0  1  0  0  0  0  0  0  0  0
    6.5416    1.4635   -0.1163 C   0  0  0  1  0  0  0  0  0  0  0  0
    5.3790    2.2153   -0.7451 C   0  0  0  1  0  0  0  0  0  0  0  0
    6.9049   -0.9562    0.3788 N   0  0  0  1  0  0  0  0  0  0  0  0
    5.1064    3.3414   -6.7444 H   0  0  0  1  0  0  0  0  0  0  0  0
    3.9147    6.3621   -2.4470 H   0  0  0  1  0  0  0  0  0  0  0  0
    2.9092    7.6248   -6.9298 H   0  0  0  1  0  0  0  0  0  0  0  0
    3.3278    8.4833   -9.1600 H   0  0  0  1  0  0  0  0  0  0  0  0
    6.8966    6.2785   -9.3370 H   0  0  0  1  0  0  0  0  0  0  0  0
    6.4788    5.4213   -7.1105 H   0  0  0  1  0  0  0  0  0  0  0  0
    6.6152    6.7128  -11.5417 H   0  0  0  1  0  0  0  0  0  0  0  0
    7.3126    8.0911  -10.7255 H   0  0  0  1  0  0  0  0  0  0  0  0
    6.4972    8.3026  -12.2567 H   0  0  0  1  0  0  0  0  0  0  0  0
    4.9627    0.4175   -3.4066 H   0  0  0  1  0  0  0  0  0  0  0  0
    3.4664    1.3687   -1.3050 H   0  0  0  1  0  0  0  0  0  0  0  0
    4.7809   -0.9229   -1.6221 H   0  0  0  1  0  0  0  0  0  0  0  0
    4.4241   -0.3450   -0.0119 H   0  0  0  1  0  0  0  0  0  0  0  0
    7.0179   -0.1050   -1.5381 H   0  0  0  1  0  0  0  0  0  0  0  0
    6.4598    1.4768    0.9505 H   0  0  0  1  0  0  0  0  0  0  0  0
    7.4716    1.9047   -0.4086 H   0  0  0  1  0  0  0  0  0  0  0  0
    5.7493    2.9499   -1.4293 H   0  0  0  1  0  0  0  0  0  0  0  0
    4.8026    2.6960    0.0175 H   0  0  0  1  0  0  0  0  0  0  0  0
    6.7517   -1.8678    0.0533 H   0  0  0  1  0  0  0  0  0  0  0  0
    6.4047   -0.8181    1.2102 H   0  0  0  1  0  0  0  0  0  0  0  0
  1  2  4  0  0  0  0
  1  6  4  0  0  0  0
  2  3  4  0  0  0  0
  2 18  1  0  0  0  0
  3  4  4  0  0  0  0
  4  5  4  0  0  0  0
  4  7  4  0  0  0  0
  5  6  4  0  0  0  0
  5  9  4  0  0  0  0
  6 25  1  0  0  0  0
  7  8  4  0  0  0  0
  7 26  1  0  0  0  0
  8  9  4  0  0  0  0
  9 10  1  0  0  0  0
 10 11  4  0  0  0  0
 10 15  4  0  0  0  0
 11 12  4  0  0  0  0
 11 27  1  0  0  0  0
 12 13  4  0  0  0  0
 12 28  1  0  0  0  0
 13 14  4  0  0  0  0
 13 16  1  0  0  0  0
 14 15  4  0  0  0  0
 14 29  1  0  0  0  0
 15 30  1  0  0  0  0
 16 17  1  0  0  0  0
 17 31  1  0  0  0  0
 17 32  1  0  0  0  0
 17 33  1  0  0  0  0
 18 19  1  0  0  0  0
 18 34  1  0  0  0  0
 19 20  1  0  0  0  0
 19 23  1  0  0  0  0
 19 35  1  0  0  0  0
 20 21  1  0  0  0  0
 20 36  1  0  0  0  0
 20 37  1  0  0  0  0
 21 22  1  0  0  0  0
 21 24  1  0  0  0  0
 21 38  1  0  0  0  0
 22 23  1  0  0  0  0
 22 39  1  0  0  0  0
 22 40  1  0  0  0  0
 23 41  1  0  0  0  0
 23 42  1  0  0  0  0
 24 43  1  0  0  0  0
 24 44  1  0  0  0  0
M  END
> <ConfClashScore>
0 

> <ConfOneFourInteractionScore>
-0.985399 

> <ConfScore>
-0.0502001 

> <ConfScorePBest>
0.00380648 

> <ConfTolerance>
0.221609 

$$$$
c13.sdf
 OpenBabel04162418043D

 44 47  0  0  0  0  0  0  0  0999 V2000
    2.6578    3.3273   -1.1395 N   0  0  0  1  0  0  0  0  0  0  0  0
    2.6638    2.4942   -2.1663 C   0  0  0  1  0  0  0  0  0  0  0  0
    1.8815    2.6546   -3.2090 N   0  0  0  1  0  0  0  0  0  0  0  0
    1.0365    3.6871   -3.2663 C   0  0  0  1  0  0  0  0  0  0  0  0
    1.0032    4.5967   -2.1879 C   0  0  0  1  0  0  0  0  0  0  0  0
    1.8548    4.3766   -1.1094 C   0  0  0  1  0  0  0  0  0  0  0  0
    0.0882    4.1386   -4.2103 C   0  0  0  1  0  0  0  0  0  0  0  0
   -0.4733    5.2221   -3.7542 N   0  0  0  1  0  0  0  0  0  0  0  0
    0.0646    5.5430   -2.5009 N   0  0  0  1  0  0  0  0  0  0  0  0
   -0.3779    6.6732   -1.7976 C   0  0  0  1  0  0  0  0  0  0  0  0
    0.0196    7.8897   -2.3195 C   0  0  0  1  0  0  0  0  0  0  0  0
   -0.3688    9.0686   -1.7024 C   0  0  0  1  0  0  0  0  0  0  0  0
   -1.1492    9.0275   -0.5624 C   0  0  0  1  0  0  0  0  0  0  0  0
   -1.5478    7.8073   -0.0391 C   0  0  0  1  0  0  0  0  0  0  0  0
   -1.1605    6.6318   -0.6543 C   0  0  0  1  0  0  0  0  0  0  0  0
   -1.4612   10.2399   -0.0460 O   0  0  0  1  0  0  0  0  0  0  0  0
   -2.3921   10.2676    1.0472 C   0  0  0  1  0  0  0  0  0  0  0  0
    3.5021    1.4424   -2.1434 N   0  0  0  1  0  0  0  0  0  0  0  0
    4.4218    1.0872   -1.0615 C   0  0  0  1  0  0  0  0  0  0  0  0
    5.2738   -0.1708   -1.4424 C   0  0  0  1  0  0  0  0  0  0  0  0
    6.5393   -0.0297   -0.5310 C   0  0  0  1  0  0  0  0  0  0  0  0
    6.7104    1.4904   -0.2533 C   0  0  0  1  0  0  0  0  0  0  0  0
    5.4778    2.1898   -0.8529 C   0  0  0  1  0  0  0  0  0  0  0  0
    6.3373   -0.7733    0.7567 N   0  0  0  1  0  0  0  0  0  0  0  0
    1.8592    5.0247   -0.2961 H   0  0  0  1  0  0  0  0  0  0  0  0
   -0.1264    3.6816   -5.1195 H   0  0  0  1  0  0  0  0  0  0  0  0
    0.6101    7.9206   -3.1750 H   0  0  0  1  0  0  0  0  0  0  0  0
   -0.0731    9.9841   -2.0973 H   0  0  0  1  0  0  0  0  0  0  0  0
   -2.1383    7.7764    0.8164 H   0  0  0  1  0  0  0  0  0  0  0  0
   -1.4563    5.7162   -0.2594 H   0  0  0  1  0  0  0  0  0  0  0  0
   -2.4025   11.2449    1.4828 H   0  0  0  1  0  0  0  0  0  0  0  0
   -2.0965    9.5516    1.7853 H   0  0  0  1  0  0  0  0  0  0  0  0
   -3.3709   10.0271    0.6881 H   0  0  0  1  0  0  0  0  0  0  0  0
    3.4965    0.8561   -2.9286 H   0  0  0  1  0  0  0  0  0  0  0  0
    3.8669    0.9149   -0.1631 H   0  0  0  1  0  0  0  0  0  0  0  0
    5.5424   -0.1537   -2.4780 H   0  0  0  1  0  0  0  0  0  0  0  0
    4.7431   -1.0743   -1.2259 H   0  0  0  1  0  0  0  0  0  0  0  0
    7.4023   -0.4138   -1.0336 H   0  0  0  1  0  0  0  0  0  0  0  0
    7.6029    1.8523   -0.7195 H   0  0  0  1  0  0  0  0  0  0  0  0
    6.7599    1.6696    0.8004 H   0  0  0  1  0  0  0  0  0  0  0  0
    5.7278    2.6464   -1.7878 H   0  0  0  1  0  0  0  0  0  0  0  0
    5.1089    2.9347   -0.1790 H   0  0  0  1  0  0  0  0  0  0  0  0
    6.2934   -1.7354    0.5754 H   0  0  0  1  0  0  0  0  0  0  0  0
    5.5003   -0.4813    1.1744 H   0  0  0  1  0  0  0  0  0  0  0  0
  1  2  4  0  0  0  0
  1  6  4  0  0  0  0
  2  3  4  0  0  0  0
  2 18  1  0  0  0  0
  3  4  4  0  0  0  0
  4  5  4  0  0  0  0
  4  7  4  0  0  0  0
  5  6  4  0  0  0  0
  5  9  4  0  0  0  0
  6 25  1  0  0  0  0
  7  8  4  0  0  0  0
  7 26  1  0  0  0  0
  8  9  4  0  0  0  0
  9 10  1  0  0  0  0
 10 11  4  0  0  0  0
 10 15  4  0  0  0  0
 11 12  4  0  0  0  0
 11 27  1  0  0  0  0
 12 13  4  0  0  0  0
 12 28  1  0  0  0  0
 13 14  4  0  0  0  0
 13 16  1  0  0  0  0
 14 15  4  0  0  0  0
 14 29  1  0  0  0  0
 15 30  1  0  0  0  0
 16 17  1  0  0  0  0
 17 31  1  0  0  0  0
 17 32  1  0  0  0  0
 17 33  1  0  0  0  0
 18 19  1  0  0  0  0
 18 34  1  0  0  0  0
 19 20  1  0  0  0  0
 19 23  1  0  0  0  0
 19 35  1  0  0  0  0
 20 21  1  0  0  0  0
 20 36  1  0  0  0  0
 20 37  1  0  0  0  0
 21 22  1  0  0  0  0
 21 24  1  0  0  0  0
 21 38  1  0  0  0  0
 22 23  1  0  0  0  0
 22 39  1  0  0  0  0
 22 40  1  0  0  0  0
 23 41  1  0  0  0  0
 23 42  1  0  0  0  0
 24 43  1  0  0  0  0
 24 44  1  0  0  0  0
M  END
> <ConfClashScore>
0 

> <ConfOneFourInteractionScore>
-0.985399 

> <ConfScore>
-0.0502001 

> <ConfScorePBest>
0.00379316 

> <ConfTolerance>
0.322946 

$$$$
c13.sdf
 OpenBabel04162418043D

 44 47  0  0  0  0  0  0  0  0999 V2000
    2.6484    0.3883   -3.4253 N   0  0  0  1  0  0  0  0  0  0  0  0
    3.4600    1.4153   -3.6120 C   0  0  0  1  0  0  0  0  0  0  0  0
    3.4570    2.1246   -4.7174 N   0  0  0  1  0  0  0  0  0  0  0  0
    2.6153    1.8242   -5.7098 C   0  0  0  1  0  0  0  0  0  0  0  0
    1.7344    0.7341   -5.5451 C   0  0  0  1  0  0  0  0  0  0  0  0
    1.7821    0.0184   -4.3524 C   0  0  0  1  0  0  0  0  0  0  0  0
    2.3608    2.3647   -6.9893 C   0  0  0  1  0  0  0  0  0  0  0  0
    1.4137    1.6721   -7.5555 N   0  0  0  1  0  0  0  0  0  0  0  0
    0.9951    0.6493   -6.6943 N   0  0  0  1  0  0  0  0  0  0  0  0
   -0.0243   -0.2171   -7.1168 C   0  0  0  1  0  0  0  0  0  0  0  0
   -0.4707   -0.3261   -8.4203 C   0  0  0  1  0  0  0  0  0  0  0  0
   -1.4831   -1.2197   -8.7335 C   0  0  0  1  0  0  0  0  0  0  0  0
   -2.0497   -1.9978   -7.7416 C   0  0  0  1  0  0  0  0  0  0  0  0
   -1.6018   -1.8883   -6.4343 C   0  0  0  1  0  0  0  0  0  0  0  0
   -0.5924   -0.9973   -6.1218 C   0  0  0  1  0  0  0  0  0  0  0  0
   -3.0318   -2.8283   -8.1653 O   0  0  0  1  0  0  0  0  0  0  0  0
   -3.7014   -3.6153   -7.1679 C   0  0  0  1  0  0  0  0  0  0  0  0
    4.3218    1.7472   -2.6339 N   0  0  0  1  0  0  0  0  0  0  0  0
    4.4493    1.0955   -1.3295 C   0  0  0  1  0  0  0  0  0  0  0  0
    5.1917   -0.2404   -1.4677 C   0  0  0  1  0  0  0  0  0  0  0  0
    6.4621   -0.1149   -0.6202 C   0  0  0  1  0  0  0  0  0  0  0  0
    6.7250    1.3802   -0.5471 C   0  0  0  1  0  0  0  0  0  0  0  0
    5.3089    1.9445   -0.3888 C   0  0  0  1  0  0  0  0  0  0  0  0
    6.2425   -0.6822    0.7515 N   0  0  0  1  0  0  0  0  0  0  0  0
    1.1488   -0.7912   -4.1939 H   0  0  0  1  0  0  0  0  0  0  0  0
    2.8487    3.1810   -7.4101 H   0  0  0  1  0  0  0  0  0  0  0  0
   -0.0472    0.2622   -9.1660 H   0  0  0  1  0  0  0  0  0  0  0  0
   -1.8163   -1.3047   -9.7150 H   0  0  0  1  0  0  0  0  0  0  0  0
   -2.0253   -2.4765   -5.6886 H   0  0  0  1  0  0  0  0  0  0  0  0
   -0.2592   -0.9123   -5.1404 H   0  0  0  1  0  0  0  0  0  0  0  0
   -4.2018   -2.9677   -6.4787 H   0  0  0  1  0  0  0  0  0  0  0  0
   -2.9838   -4.2096   -6.6418 H   0  0  0  1  0  0  0  0  0  0  0  0
   -4.4175   -4.2549   -7.6402 H   0  0  0  1  0  0  0  0  0  0  0  0
    4.9237    2.4998   -2.8123 H   0  0  0  1  0  0  0  0  0  0  0  0
    3.4769    0.9414   -0.9106 H   0  0  0  1  0  0  0  0  0  0  0  0
    5.4455   -0.4191   -2.4917 H   0  0  0  1  0  0  0  0  0  0  0  0
    4.5824   -1.0421   -1.1057 H   0  0  0  1  0  0  0  0  0  0  0  0
    7.2807   -0.6201   -1.0888 H   0  0  0  1  0  0  0  0  0  0  0  0
    7.3380    1.6265    0.2946 H   0  0  0  1  0  0  0  0  0  0  0  0
    7.1881    1.7378   -1.4430 H   0  0  0  1  0  0  0  0  0  0  0  0
    5.2784    2.9749   -0.6758 H   0  0  0  1  0  0  0  0  0  0  0  0
    4.9734    1.8453    0.6224 H   0  0  0  1  0  0  0  0  0  0  0  0
    5.4930   -0.2193    1.1809 H   0  0  0  1  0  0  0  0  0  0  0  0
    7.0528   -0.5598    1.2890 H   0  0  0  1  0  0  0  0  0  0  0  0
  1  2  4  0  0  0  0
  1  6  4  0  0  0  0
  2  3  4  0  0  0  0
  2 18  1  0  0  0  0
  3  4  4  0  0  0  0
  4  5  4  0  0  0  0
  4  7  4  0  0  0  0
  5  6  4  0  0  0  0
  5  9  4  0  0  0  0
  6 25  1  0  0  0  0
  7  8  4  0  0  0  0
  7 26  1  0  0  0  0
  8  9  4  0  0  0  0
  9 10  1  0  0  0  0
 10 11  4  0  0  0  0
 10 15  4  0  0  0  0
 11 12  4  0  0  0  0
 11 27  1  0  0  0  0
 12 13  4  0  0  0  0
 12 28  1  0  0  0  0
 13 14  4  0  0  0  0
 13 16  1  0  0  0  0
 14 15  4  0  0  0  0
 14 29  1  0  0  0  0
 15 30  1  0  0  0  0
 16 17  1  0  0  0  0
 17 31  1  0  0  0  0
 17 32  1  0  0  0  0
 17 33  1  0  0  0  0
 18 19  1  0  0  0  0
 18 34  1  0  0  0  0
 19 20  1  0  0  0  0
 19 23  1  0  0  0  0
 19 35  1  0  0  0  0
 20 21  1  0  0  0  0
 20 36  1  0  0  0  0
 20 37  1  0  0  0  0
 21 22  1  0  0  0  0
 21 24  1  0  0  0  0
 21 38  1  0  0  0  0
 22 23  1  0  0  0  0
 22 39  1  0  0  0  0
 22 40  1  0  0  0  0
 23 41  1  0  0  0  0
 23 42  1  0  0  0  0
 24 43  1  0  0  0  0
 24 44  1  0  0  0  0
M  END
> <ConfClashScore>
0 

> <ConfOneFourInteractionScore>
-0.984337 

> <ConfScore>
-0.0496979 

> <ConfScorePBest>
0.00377983 

> <ConfTolerance>
0.396374 

$$$$
c13.sdf
 OpenBabel04162418043D

 44 47  0  0  0  0  0  0  0  0999 V2000
    4.2586    3.4671   -3.0071 N   0  0  0  1  0  0  0  0  0  0  0  0
    4.3479    2.3136   -3.6473 C   0  0  0  1  0  0  0  0  0  0  0  0
    4.2477    2.2226   -4.9537 N   0  0  0  1  0  0  0  0  0  0  0  0
    4.0480    3.3166   -5.6931 C   0  0  0  1  0  0  0  0  0  0  0  0
    3.9477    4.5652   -5.0433 C   0  0  0  1  0  0  0  0  0  0  0  0
    4.0616    4.6011   -3.6566 C   0  0  0  1  0  0  0  0  0  0  0  0
    3.8992    3.5631   -7.0756 C   0  0  0  1  0  0  0  0  0  0  0  0
    3.7243    4.8414   -7.2564 N   0  0  0  1  0  0  0  0  0  0  0  0
    3.7473    5.5022   -6.0212 N   0  0  0  1  0  0  0  0  0  0  0  0
    3.6658    6.9239   -6.0123 C   0  0  0  1  0  0  0  0  0  0  0  0
    4.7262    7.6796   -6.4756 C   0  0  0  1  0  0  0  0  0  0  0  0
    4.6448    9.0634   -6.4719 C   0  0  0  1  0  0  0  0  0  0  0  0
    3.5055    9.6875   -5.9999 C   0  0  0  1  0  0  0  0  0  0  0  0
    2.4420    8.9294   -5.5352 C   0  0  0  1  0  0  0  0  0  0  0  0
    2.5231    7.5496   -5.5389 C   0  0  0  1  0  0  0  0  0  0  0  0
    3.3136   11.0268   -5.9426 O   0  0  0  1  0  0  0  0  0  0  0  0
    4.3903   11.8639   -6.3925 C   0  0  0  1  0  0  0  0  0  0  0  0
    4.5545    1.1588   -2.9151 N   0  0  0  1  0  0  0  0  0  0  0  0
    4.4836    1.1993   -1.4515 C   0  0  0  1  0  0  0  0  0  0  0  0
    4.9237   -0.1425   -0.8559 C   0  0  0  1  0  0  0  0  0  0  0  0
    6.4274    0.0064   -0.6237 C   0  0  0  1  0  0  0  0  0  0  0  0
    6.5330    1.4485   -0.1219 C   0  0  0  1  0  0  0  0  0  0  0  0
    5.4703    2.2333   -0.8946 C   0  0  0  1  0  0  0  0  0  0  0  0
    6.9118   -0.9542    0.3950 N   0  0  0  1  0  0  0  0  0  0  0  0
    3.9931    5.5022   -3.1419 H   0  0  0  1  0  0  0  0  0  0  0  0
    3.9250    2.8430   -7.8256 H   0  0  0  1  0  0  0  0  0  0  0  0
    5.5851    7.2102   -6.8271 H   0  0  0  1  0  0  0  0  0  0  0  0
    5.4410    9.6321   -6.8242 H   0  0  0  1  0  0  0  0  0  0  0  0
    1.5831    9.3988   -5.1837 H   0  0  0  1  0  0  0  0  0  0  0  0
    1.7268    6.9810   -5.1865 H   0  0  0  1  0  0  0  0  0  0  0  0
    4.6668   11.5859   -7.3881 H   0  0  0  1  0  0  0  0  0  0  0  0
    5.2314   11.7430   -5.7422 H   0  0  0  1  0  0  0  0  0  0  0  0
    4.0751   12.8863   -6.3824 H   0  0  0  1  0  0  0  0  0  0  0  0
    4.7479    0.3147   -3.3740 H   0  0  0  1  0  0  0  0  0  0  0  0
    3.4846    1.4339   -1.1487 H   0  0  0  1  0  0  0  0  0  0  0  0
    4.4167   -0.3290    0.0677 H   0  0  0  1  0  0  0  0  0  0  0  0
    4.7255   -0.9413   -1.5397 H   0  0  0  1  0  0  0  0  0  0  0  0
    6.9759   -0.1297   -1.5323 H   0  0  0  1  0  0  0  0  0  0  0  0
    6.3387    1.4930    0.9294 H   0  0  0  1  0  0  0  0  0  0  0  0
    7.5073    1.8429   -0.3220 H   0  0  0  1  0  0  0  0  0  0  0  0
    4.9640    2.9122   -0.2407 H   0  0  0  1  0  0  0  0  0  0  0  0
    5.9238    2.7797   -1.6951 H   0  0  0  1  0  0  0  0  0  0  0  0
    6.6726   -1.8655    0.1252 H   0  0  0  1  0  0  0  0  0  0  0  0
    6.4972   -0.7502    1.2592 H   0  0  0  1  0  0  0  0  0  0  0  0
  1  2  4  0  0  0  0
  1  6  4  0  0  0  0
  2  3  4  0  0  0  0
  2 18  1  0  0  0  0
  3  4  4  0  0  0  0
  4  5  4  0  0  0  0
  4  7  4  0  0  0  0
  5  6  4  0  0  0  0
  5  9  4  0  0  0  0
  6 25  1  0  0  0  0
  7  8  4  0  0  0  0
  7 26  1  0  0  0  0
  8  9  4  0  0  0  0
  9 10  1  0  0  0  0
 10 11  4  0  0  0  0
 10 15  4  0  0  0  0
 11 12  4  0  0  0  0
 11 27  1  0  0  0  0
 12 13  4  0  0  0  0
 12 28  1  0  0  0  0
 13 14  4  0  0  0  0
 13 16  1  0  0  0  0
 14 15  4  0  0  0  0
 14 29  1  0  0  0  0
 15 30  1  0  0  0  0
 16 17  1  0  0  0  0
 17 31  1  0  0  0  0
 17 32  1  0  0  0  0
 17 33  1  0  0  0  0
 18 19  1  0  0  0  0
 18 34  1  0  0  0  0
 19 20  1  0  0  0  0
 19 23  1  0  0  0  0
 19 35  1  0  0  0  0
 20 21  1  0  0  0  0
 20 36  1  0  0  0  0
 20 37  1  0  0  0  0
 21 22  1  0  0  0  0
 21 24  1  0  0  0  0
 21 38  1  0  0  0  0
 22 23  1  0  0  0  0
 22 39  1  0  0  0  0
 22 40  1  0  0  0  0
 23 41  1  0  0  0  0
 23 42  1  0  0  0  0
 24 43  1  0  0  0  0
 24 44  1  0  0  0  0
M  END
> <ConfClashScore>
0 

> <ConfOneFourInteractionScore>
-0.981848 

> <ConfScore>
-0.0495162 

> <ConfScorePBest>
0.0037665 

> <ConfTolerance>
0.265812 

$$$$
c13.sdf
 OpenBabel04162418043D

 44 47  0  0  0  0  0  0  0  0999 V2000
    3.1071    2.5591   -4.3849 N   0  0  0  1  0  0  0  0  0  0  0  0
    3.5932    2.5526   -3.1552 C   0  0  0  1  0  0  0  0  0  0  0  0
    3.7445    3.6508   -2.4510 N   0  0  0  1  0  0  0  0  0  0  0  0
    3.4047    4.8351   -2.9662 C   0  0  0  1  0  0  0  0  0  0  0  0
    2.8823    4.8799   -4.2763 C   0  0  0  1  0  0  0  0  0  0  0  0
    2.7442    3.6844   -4.9754 C   0  0  0  1  0  0  0  0  0  0  0  0
    3.4375    6.1657   -2.4944 C   0  0  0  1  0  0  0  0  0  0  0  0
    2.9788    6.9518   -3.4266 N   0  0  0  1  0  0  0  0  0  0  0  0
    2.6222    6.1957   -4.5509 N   0  0  0  1  0  0  0  0  0  0  0  0
    2.0964    6.8175   -5.7014 C   0  0  0  1  0  0  0  0  0  0  0  0
    0.8536    6.4034   -6.1419 C   0  0  0  1  0  0  0  0  0  0  0  0
    0.2873    6.9852   -7.2654 C   0  0  0  1  0  0  0  0  0  0  0  0
    0.9677    7.9757   -7.9482 C   0  0  0  1  0  0  0  0  0  0  0  0
    2.2142    8.3910   -7.5063 C   0  0  0  1  0  0  0  0  0  0  0  0
    2.7790    7.8109   -6.3861 C   0  0  0  1  0  0  0  0  0  0  0  0
    0.5184    8.4816   -9.1213 O   0  0  0  1  0  0  0  0  0  0  0  0
    1.3376    9.4689   -9.7668 C   0  0  0  1  0  0  0  0  0  0  0  0
    3.9416    1.3206   -2.6326 N   0  0  0  1  0  0  0  0  0  0  0  0
    4.4128    1.2211   -1.2474 C   0  0  0  1  0  0  0  0  0  0  0  0
    4.9858   -0.1771   -0.9801 C   0  0  0  1  0  0  0  0  0  0  0  0
    6.4543    0.0478   -0.6089 C   0  0  0  1  0  0  0  0  0  0  0  0
    6.4973    1.4773   -0.0581 C   0  0  0  1  0  0  0  0  0  0  0  0
    5.5595    2.2082   -1.0048 C   0  0  0  1  0  0  0  0  0  0  0  0
    6.8869   -0.9210    0.4195 N   0  0  0  1  0  0  0  0  0  0  0  0
    2.3632    3.6767   -5.9431 H   0  0  0  1  0  0  0  0  0  0  0  0
    3.7725    6.4681   -1.5574 H   0  0  0  1  0  0  0  0  0  0  0  0
    0.3433    5.6552   -5.6305 H   0  0  0  1  0  0  0  0  0  0  0  0
   -0.6497    6.6764   -7.5945 H   0  0  0  1  0  0  0  0  0  0  0  0
    2.7245    9.1391   -8.0177 H   0  0  0  1  0  0  0  0  0  0  0  0
    3.7159    8.1197   -6.0569 H   0  0  0  1  0  0  0  0  0  0  0  0
    1.2815   10.3895   -9.2245 H   0  0  0  1  0  0  0  0  0  0  0  0
    0.9893    9.6225  -10.7668 H   0  0  0  1  0  0  0  0  0  0  0  0
    2.3523    9.1302   -9.7901 H   0  0  0  1  0  0  0  0  0  0  0  0
    3.8737    0.5153   -3.1869 H   0  0  0  1  0  0  0  0  0  0  0  0
    3.6022    1.4234   -0.5789 H   0  0  0  1  0  0  0  0  0  0  0  0
    4.4638   -0.6472   -0.1730 H   0  0  0  1  0  0  0  0  0  0  0  0
    4.9107   -0.7859   -1.8568 H   0  0  0  1  0  0  0  0  0  0  0  0
    7.0804   -0.0438   -1.4717 H   0  0  0  1  0  0  0  0  0  0  0  0
    7.4871    1.8814   -0.1025 H   0  0  0  1  0  0  0  0  0  0  0  0
    6.1404    1.5165    0.9498 H   0  0  0  1  0  0  0  0  0  0  0  0
    6.0566    2.4432   -1.9227 H   0  0  0  1  0  0  0  0  0  0  0  0
    5.1949    3.1083   -0.5556 H   0  0  0  1  0  0  0  0  0  0  0  0
    6.8330   -1.8296    0.0563 H   0  0  0  1  0  0  0  0  0  0  0  0
    6.3031   -0.8476    1.2032 H   0  0  0  1  0  0  0  0  0  0  0  0
  1  2  4  0  0  0  0
  1  6  4  0  0  0  0
  2  3  4  0  0  0  0
  2 18  1  0  0  0  0
  3  4  4  0  0  0  0
  4  5  4  0  0  0  0
  4  7  4  0  0  0  0
  5  6  4  0  0  0  0
  5  9  4  0  0  0  0
  6 25  1  0  0  0  0
  7  8  4  0  0  0  0
  7 26  1  0  0  0  0
  8  9  4  0  0  0  0
  9 10  1  0  0  0  0
 10 11  4  0  0  0  0
 10 15  4  0  0  0  0
 11 12  4  0  0  0  0
 11 27  1  0  0  0  0
 12 13  4  0  0  0  0
 12 28  1  0  0  0  0
 13 14  4  0  0  0  0
 13 16  1  0  0  0  0
 14 15  4  0  0  0  0
 14 29  1  0  0  0  0
 15 30  1  0  0  0  0
 16 17  1  0  0  0  0
 17 31  1  0  0  0  0
 17 32  1  0  0  0  0
 17 33  1  0  0  0  0
 18 19  1  0  0  0  0
 18 34  1  0  0  0  0
 19 20  1  0  0  0  0
 19 23  1  0  0  0  0
 19 35  1  0  0  0  0
 20 21  1  0  0  0  0
 20 36  1  0  0  0  0
 20 37  1  0  0  0  0
 21 22  1  0  0  0  0
 21 24  1  0  0  0  0
 21 38  1  0  0  0  0
 22 23  1  0  0  0  0
 22 39  1  0  0  0  0
 22 40  1  0  0  0  0
 23 41  1  0  0  0  0
 23 42  1  0  0  0  0
 24 43  1  0  0  0  0
 24 44  1  0  0  0  0
M  END
> <ConfClashScore>
0.000308609 

> <ConfOneFourInteractionScore>
-0.985399 

> <ConfScore>
-0.0493902 

> <ConfScorePBest>
0.00375317 

> <ConfTolerance>
0.318932 

$$$$
c13.sdf
 OpenBabel04162418043D

 44 47  0  0  0  0  0  0  0  0999 V2000
    4.0039   -0.5642   -3.7117 N   0  0  0  1  0  0  0  0  0  0  0  0
    4.6875    0.5480   -3.9218 C   0  0  0  1  0  0  0  0  0  0  0  0
    5.1072    0.9029   -5.1147 N   0  0  0  1  0  0  0  0  0  0  0  0
    4.8512    0.1345   -6.1765 C   0  0  0  1  0  0  0  0  0  0  0  0
    4.1238   -1.0601   -5.9894 C   0  0  0  1  0  0  0  0  0  0  0  0
    3.7044   -1.3856   -4.7029 C   0  0  0  1  0  0  0  0  0  0  0  0
    5.1477    0.2201   -7.5545 C   0  0  0  1  0  0  0  0  0  0  0  0
    4.6495   -0.8229   -8.1554 N   0  0  0  1  0  0  0  0  0  0  0  0
    4.0049   -1.6449   -7.2217 N   0  0  0  1  0  0  0  0  0  0  0  0
    3.3747   -2.8554   -7.6284 C   0  0  0  1  0  0  0  0  0  0  0  0
    2.0942   -3.1465   -7.1974 C   0  0  0  1  0  0  0  0  0  0  0  0
    1.4789   -4.3223   -7.5976 C   0  0  0  1  0  0  0  0  0  0  0  0
    2.1477   -5.2062   -8.4233 C   0  0  0  1  0  0  0  0  0  0  0  0
    3.4320   -4.9141   -8.8555 C   0  0  0  1  0  0  0  0  0  0  0  0
    4.0457   -3.7417   -8.4565 C   0  0  0  1  0  0  0  0  0  0  0  0
    1.6527   -6.3834   -8.8740 O   0  0  0  1  0  0  0  0  0  0  0  0
    0.3784   -6.7996   -8.3589 C   0  0  0  1  0  0  0  0  0  0  0  0
    4.9974    1.3922   -2.9147 N   0  0  0  1  0  0  0  0  0  0  0  0
    4.5557    1.2071   -1.5256 C   0  0  0  1  0  0  0  0  0  0  0  0
    4.9612   -0.1709   -0.9913 C   0  0  0  1  0  0  0  0  0  0  0  0
    6.4445   -0.0258   -0.6399 C   0  0  0  1  0  0  0  0  0  0  0  0
    6.6550    1.4689   -0.3638 C   0  0  0  1  0  0  0  0  0  0  0  0
    5.2953    2.1412   -0.5819 C   0  0  0  1  0  0  0  0  0  0  0  0
    6.7749   -0.8323    0.5730 N   0  0  0  1  0  0  0  0  0  0  0  0
    3.1662   -2.2575   -4.5250 H   0  0  0  1  0  0  0  0  0  0  0  0
    5.6765    0.9889   -8.0138 H   0  0  0  1  0  0  0  0  0  0  0  0
    1.5924   -2.4833   -6.5729 H   0  0  0  1  0  0  0  0  0  0  0  0
    0.5138   -4.5394   -7.2766 H   0  0  0  1  0  0  0  0  0  0  0  0
    3.9339   -5.5772   -9.4800 H   0  0  0  1  0  0  0  0  0  0  0  0
    5.0108   -3.5246   -8.7775 H   0  0  0  1  0  0  0  0  0  0  0  0
    0.0347   -7.6540   -8.9038 H   0  0  0  1  0  0  0  0  0  0  0  0
   -0.3268   -6.0019   -8.4651 H   0  0  0  1  0  0  0  0  0  0  0  0
    0.4778   -7.0531   -7.3242 H   0  0  0  1  0  0  0  0  0  0  0  0
    5.5497    2.1746   -3.1225 H   0  0  0  1  0  0  0  0  0  0  0  0
    3.4973    1.3516   -1.4651 H   0  0  0  1  0  0  0  0  0  0  0  0
    4.3898   -0.4223   -0.1222 H   0  0  0  1  0  0  0  0  0  0  0  0
    4.8219   -0.9225   -1.7400 H   0  0  0  1  0  0  0  0  0  0  0  0
    7.0556   -0.3447   -1.4582 H   0  0  0  1  0  0  0  0  0  0  0  0
    7.3803    1.8720   -1.0395 H   0  0  0  1  0  0  0  0  0  0  0  0
    6.9842    1.6170    0.6435 H   0  0  0  1  0  0  0  0  0  0  0  0
    4.7684    2.2377    0.3443 H   0  0  0  1  0  0  0  0  0  0  0  0
    5.4180    3.1072   -1.0254 H   0  0  0  1  0  0  0  0  0  0  0  0
    6.5603   -1.7742    0.4080 H   0  0  0  1  0  0  0  0  0  0  0  0
    6.2508   -0.5066    1.3343 H   0  0  0  1  0  0  0  0  0  0  0  0
  1  2  4  0  0  0  0
  1  6  4  0  0  0  0
  2  3  4  0  0  0  0
  2 18  1  0  0  0  0
  3  4  4  0  0  0  0
  4  5  4  0  0  0  0
  4  7  4  0  0  0  0
  5  6  4  0  0  0  0
  5  9  4  0  0  0  0
  6 25  1  0  0  0  0
  7  8  4  0  0  0  0
  7 26  1  0  0  0  0
  8  9  4  0  0  0  0
  9 10  1  0  0  0  0
 10 11  4  0  0  0  0
 10 15  4  0  0  0  0
 11 12  4  0  0  0  0
 11 27  1  0  0  0  0
 12 13  4  0  0  0  0
 12 28  1  0  0  0  0
 13 14  4  0  0  0  0
 13 16  1  0  0  0  0
 14 15  4  0  0  0  0
 14 29  1  0  0  0  0
 15 30  1  0  0  0  0
 16 17  1  0  0  0  0
 17 31  1  0  0  0  0
 17 32  1  0  0  0  0
 17 33  1  0  0  0  0
 18 19  1  0  0  0  0
 18 34  1  0  0  0  0
 19 20  1  0  0  0  0
 19 23  1  0  0  0  0
 19 35  1  0  0  0  0
 20 21  1  0  0  0  0
 20 36  1  0  0  0  0
 20 37  1  0  0  0  0
 21 22  1  0  0  0  0
 21 24  1  0  0  0  0
 21 38  1  0  0  0  0
 22 23  1  0  0  0  0
 22 39  1  0  0  0  0
 22 40  1  0  0  0  0
 23 41  1  0  0  0  0
 23 42  1  0  0  0  0
 24 43  1  0  0  0  0
 24 44  1  0  0  0  0
M  END
> <ConfClashScore>
0 

> <ConfOneFourInteractionScore>
-0.985399 

> <ConfScore>
-0.0486345 

> <ConfScorePBest>
0.00373984 

> <ConfTolerance>
0.274227 

$$$$
c13.sdf
 OpenBabel04162418043D

 44 47  0  0  0  0  0  0  0  0999 V2000
    3.0394   -0.3936   -2.9820 N   0  0  0  1  0  0  0  0  0  0  0  0
    3.3123    0.8439   -3.3594 C   0  0  0  1  0  0  0  0  0  0  0  0
    2.8781    1.3476   -4.4920 N   0  0  0  1  0  0  0  0  0  0  0  0
    2.1307    0.6093   -5.3164 C   0  0  0  1  0  0  0  0  0  0  0  0
    1.8196   -0.7163   -4.9457 C   0  0  0  1  0  0  0  0  0  0  0  0
    2.3071   -1.1967   -3.7339 C   0  0  0  1  0  0  0  0  0  0  0  0
    1.5211    0.8362   -6.5699 C   0  0  0  1  0  0  0  0  0  0  0  0
    0.8956   -0.2473   -6.9333 N   0  0  0  1  0  0  0  0  0  0  0  0
    1.0544   -1.2371   -5.9545 N   0  0  0  1  0  0  0  0  0  0  0  0
    0.5915   -2.5493   -6.1800 C   0  0  0  1  0  0  0  0  0  0  0  0
    1.1424   -3.2501   -7.2362 C   0  0  0  1  0  0  0  0  0  0  0  0
    0.7273   -4.5462   -7.4994 C   0  0  0  1  0  0  0  0  0  0  0  0
   -0.2411   -5.1358   -6.7090 C   0  0  0  1  0  0  0  0  0  0  0  0
   -0.7935   -4.4328   -5.6496 C   0  0  0  1  0  0  0  0  0  0  0  0
   -0.3797   -3.1404   -5.3871 C   0  0  0  1  0  0  0  0  0  0  0  0
   -0.6482   -6.3937   -6.9680 O   0  0  0  1  0  0  0  0  0  0  0  0
   -1.6580   -6.9077   -6.0687 C   0  0  0  1  0  0  0  0  0  0  0  0
    4.0839    1.6389   -2.5314 N   0  0  0  1  0  0  0  0  0  0  0  0
    4.4354    1.1124   -1.2088 C   0  0  0  1  0  0  0  0  0  0  0  0
    5.2158   -0.2417   -1.3407 C   0  0  0  1  0  0  0  0  0  0  0  0
    6.5326   -0.0868   -0.5576 C   0  0  0  1  0  0  0  0  0  0  0  0
    6.8143    1.4502   -0.6547 C   0  0  0  1  0  0  0  0  0  0  0  0
    5.4100    2.0463   -0.4984 C   0  0  0  1  0  0  0  0  0  0  0  0
    6.3665   -0.5150    0.8654 N   0  0  0  1  0  0  0  0  0  0  0  0
    2.0992   -2.1682   -3.4262 H   0  0  0  1  0  0  0  0  0  0  0  0
    1.5643    1.7219   -7.1131 H   0  0  0  1  0  0  0  0  0  0  0  0
    1.8682   -2.8050   -7.8335 H   0  0  0  1  0  0  0  0  0  0  0  0
    1.1446   -5.0750   -8.2917 H   0  0  0  1  0  0  0  0  0  0  0  0
   -1.5193   -4.8778   -5.0523 H   0  0  0  1  0  0  0  0  0  0  0  0
   -0.7971   -2.6116   -4.5948 H   0  0  0  1  0  0  0  0  0  0  0  0
   -2.5828   -6.3981   -6.2413 H   0  0  0  1  0  0  0  0  0  0  0  0
   -1.3476   -6.7502   -5.0569 H   0  0  0  1  0  0  0  0  0  0  0  0
   -1.7903   -7.9551   -6.2428 H   0  0  0  1  0  0  0  0  0  0  0  0
    4.3859    2.5256   -2.8194 H   0  0  0  1  0  0  0  0  0  0  0  0
    3.5460    0.9814   -0.6285 H   0  0  0  1  0  0  0  0  0  0  0  0
    4.6358   -1.0405   -0.9279 H   0  0  0  1  0  0  0  0  0  0  0  0
    5.4236   -0.4461   -2.3702 H   0  0  0  1  0  0  0  0  0  0  0  0
    7.3196   -0.6523   -1.0112 H   0  0  0  1  0  0  0  0  0  0  0  0
    7.4638    1.7760    0.1307 H   0  0  0  1  0  0  0  0  0  0  0  0
    7.2417    1.7072   -1.6014 H   0  0  0  1  0  0  0  0  0  0  0  0
    5.3743    3.0188   -0.9431 H   0  0  0  1  0  0  0  0  0  0  0  0
    5.1570    2.1183    0.5388 H   0  0  0  1  0  0  0  0  0  0  0  0
    6.1494   -1.4701    0.8964 H   0  0  0  1  0  0  0  0  0  0  0  0
    5.6408   -0.0017    1.2782 H   0  0  0  1  0  0  0  0  0  0  0  0
  1  2  4  0  0  0  0
  1  6  4  0  0  0  0
  2  3  4  0  0  0  0
  2 18  1  0  0  0  0
  3  4  4  0  0  0  0
  4  5  4  0  0  0  0
  4  7  4  0  0  0  0
  5  6  4  0  0  0  0
  5  9  4  0  0  0  0
  6 25  1  0  0  0  0
  7  8  4  0  0  0  0
  7 26  1  0  0  0  0
  8  9  4  0  0  0  0
  9 10  1  0  0  0  0
 10 11  4  0  0  0  0
 10 15  4  0  0  0  0
 11 12  4  0  0  0  0
 11 27  1  0  0  0  0
 12 13  4  0  0  0  0
 12 28  1  0  0  0  0
 13 14  4  0  0  0  0
 13 16  1  0  0  0  0
 14 15  4  0  0  0  0
 14 29  1  0  0  0  0
 15 30  1  0  0  0  0
 16 17  1  0  0  0  0
 17 31  1  0  0  0  0
 17 32  1  0  0  0  0
 17 33  1  0  0  0  0
 18 19  1  0  0  0  0
 18 34  1  0  0  0  0
 19 20  1  0  0  0  0
 19 23  1  0  0  0  0
 19 35  1  0  0  0  0
 20 21  1  0  0  0  0
 20 36  1  0  0  0  0
 20 37  1  0  0  0  0
 21 22  1  0  0  0  0
 21 24  1  0  0  0  0
 21 38  1  0  0  0  0
 22 23  1  0  0  0  0
 22 39  1  0  0  0  0
 22 40  1  0  0  0  0
 23 41  1  0  0  0  0
 23 42  1  0  0  0  0
 24 43  1  0  0  0  0
 24 44  1  0  0  0  0
M  END
> <ConfClashScore>
0 

> <ConfOneFourInteractionScore>
-0.981848 

> <ConfScore>
-0.0486345 

> <ConfScorePBest>
0.00372651 

> <ConfTolerance>
0.327201 

$$$$
c13.sdf
 OpenBabel04162418043D

 44 47  0  0  0  0  0  0  0  0999 V2000
    3.6558    3.5252   -3.9782 N   0  0  0  1  0  0  0  0  0  0  0  0
    3.7406    2.9621   -2.7848 C   0  0  0  1  0  0  0  0  0  0  0  0
    3.3029    3.5500   -1.6950 N   0  0  0  1  0  0  0  0  0  0  0  0
    2.7460    4.7621   -1.7592 C   0  0  0  1  0  0  0  0  0  0  0  0
    2.6388    5.3933   -3.0168 C   0  0  0  1  0  0  0  0  0  0  0  0
    3.1198    4.7228   -4.1375 C   0  0  0  1  0  0  0  0  0  0  0  0
    2.1903    5.6474   -0.8097 C   0  0  0  1  0  0  0  0  0  0  0  0
    1.7811    6.7196   -1.4263 N   0  0  0  1  0  0  0  0  0  0  0  0
    2.0398    6.6050   -2.7985 N   0  0  0  1  0  0  0  0  0  0  0  0
    1.5158    7.5526   -3.7234 C   0  0  0  1  0  0  0  0  0  0  0  0
    1.6561    8.9059   -3.4802 C   0  0  0  1  0  0  0  0  0  0  0  0
    1.1507    9.8282   -4.3831 C   0  0  0  1  0  0  0  0  0  0  0  0
    0.5019    9.3948   -5.5239 C   0  0  0  1  0  0  0  0  0  0  0  0
    0.3612    8.0374   -5.7677 C   0  0  0  1  0  0  0  0  0  0  0  0
    0.8651    7.1176   -4.8674 C   0  0  0  1  0  0  0  0  0  0  0  0
   -0.0186   10.2430   -6.4423 O   0  0  0  1  0  0  0  0  0  0  0  0
   -0.0863   11.6330   -6.0876 C   0  0  0  1  0  0  0  0  0  0  0  0
    4.3116    1.7069   -2.6787 N   0  0  0  1  0  0  0  0  0  0  0  0
    4.4225    1.1197   -1.3507 C   0  0  0  1  0  0  0  0  0  0  0  0
    5.1963   -0.2041   -1.4125 C   0  0  0  1  0  0  0  0  0  0  0  0
    6.4439   -0.0126   -0.5436 C   0  0  0  1  0  0  0  0  0  0  0  0
    6.6729    1.4899   -0.5319 C   0  0  0  1  0  0  0  0  0  0  0  0
    5.2418    2.0287   -0.4303 C   0  0  0  1  0  0  0  0  0  0  0  0
    6.2050   -0.5233    0.8470 N   0  0  0  1  0  0  0  0  0  0  0  0
    3.0587    5.1553   -5.0813 H   0  0  0  1  0  0  0  0  0  0  0  0
    2.1193    5.4723    0.2130 H   0  0  0  1  0  0  0  0  0  0  0  0
    2.1408    9.2321   -2.6198 H   0  0  0  1  0  0  0  0  0  0  0  0
    1.2598   10.8465   -4.2022 H   0  0  0  1  0  0  0  0  0  0  0  0
   -0.1235    7.7111   -6.6280 H   0  0  0  1  0  0  0  0  0  0  0  0
    0.7560    6.0993   -5.0483 H   0  0  0  1  0  0  0  0  0  0  0  0
   -0.4177   12.2012   -6.9316 H   0  0  0  1  0  0  0  0  0  0  0  0
    0.8834   11.9721   -5.7883 H   0  0  0  1  0  0  0  0  0  0  0  0
   -0.7750   11.7614   -5.2789 H   0  0  0  1  0  0  0  0  0  0  0  0
    4.6313    1.2280   -3.4718 H   0  0  0  1  0  0  0  0  0  0  0  0
    3.4442    0.9625   -0.9469 H   0  0  0  1  0  0  0  0  0  0  0  0
    4.5962   -1.0024   -1.0283 H   0  0  0  1  0  0  0  0  0  0  0  0
    5.4774   -0.4222   -2.4216 H   0  0  0  1  0  0  0  0  0  0  0  0
    7.2837   -0.5196   -0.9710 H   0  0  0  1  0  0  0  0  0  0  0  0
    7.2609    1.7869    0.3113 H   0  0  0  1  0  0  0  0  0  0  0  0
    7.1487    1.8176   -1.4324 H   0  0  0  1  0  0  0  0  0  0  0  0
    4.8853    1.9669    0.5767 H   0  0  0  1  0  0  0  0  0  0  0  0
    5.1958    3.0443   -0.7637 H   0  0  0  1  0  0  0  0  0  0  0  0
    6.9988   -0.3574    1.3973 H   0  0  0  1  0  0  0  0  0  0  0  0
    6.0256   -1.4862    0.8148 H   0  0  0  1  0  0  0  0  0  0  0  0
  1  2  4  0  0  0  0
  1  6  4  0  0  0  0
  2  3  4  0  0  0  0
  2 18  1  0  0  0  0
  3  4  4  0  0  0  0
  4  5  4  0  0  0  0
  4  7  4  0  0  0  0
  5  6  4  0  0  0  0
  5  9  4  0  0  0  0
  6 25  1  0  0  0  0
  7  8  4  0  0  0  0
  7 26  1  0  0  0  0
  8  9  4  0  0  0  0
  9 10  1  0  0  0  0
 10 11  4  0  0  0  0
 10 15  4  0  0  0  0
 11 12  4  0  0  0  0
 11 27  1  0  0  0  0
 12 13  4  0  0  0  0
 12 28  1  0  0  0  0
 13 14  4  0  0  0  0
 13 16  1  0  0  0  0
 14 15  4  0  0  0  0
 14 29  1  0  0  0  0
 15 30  1  0  0  0  0
 16 17  1  0  0  0  0
 17 31  1  0  0  0  0
 17 32  1  0  0  0  0
 17 33  1  0  0  0  0
 18 19  1  0  0  0  0
 18 34  1  0  0  0  0
 19 20  1  0  0  0  0
 19 23  1  0  0  0  0
 19 35  1  0  0  0  0
 20 21  1  0  0  0  0
 20 36  1  0  0  0  0
 20 37  1  0  0  0  0
 21 22  1  0  0  0  0
 21 24  1  0  0  0  0
 21 38  1  0  0  0  0
 22 23  1  0  0  0  0
 22 39  1  0  0  0  0
 22 40  1  0  0  0  0
 23 41  1  0  0  0  0
 23 42  1  0  0  0  0
 24 43  1  0  0  0  0
 24 44  1  0  0  0  0
M  END
> <ConfClashScore>
0 

> <ConfOneFourInteractionScore>
-0.981848 

> <ConfScore>
-0.0473934 

> <ConfScorePBest>
0.00371319 

> <ConfTolerance>
0.379872 

$$$$
c13.sdf
 OpenBabel04162418043D

 44 47  0  0  0  0  0  0  0  0999 V2000
    3.2730    3.2156   -4.1696 N   0  0  0  1  0  0  0  0  0  0  0  0
    3.5563    2.8173   -2.9411 C   0  0  0  1  0  0  0  0  0  0  0  0
    3.4010    3.5951   -1.8942 N   0  0  0  1  0  0  0  0  0  0  0  0
    2.9420    4.8406   -2.0409 C   0  0  0  1  0  0  0  0  0  0  0  0
    2.6292    5.2995   -3.3381 C   0  0  0  1  0  0  0  0  0  0  0  0
    2.8137    4.4313   -4.4102 C   0  0  0  1  0  0  0  0  0  0  0  0
    2.6667    5.9046   -1.1542 C   0  0  0  1  0  0  0  0  0  0  0  0
    2.2269    6.9197   -1.8423 N   0  0  0  1  0  0  0  0  0  0  0  0
    2.1874    6.5883   -3.2030 N   0  0  0  1  0  0  0  0  0  0  0  0
    1.7404    7.5328   -4.1707 C   0  0  0  1  0  0  0  0  0  0  0  0
    0.4444    8.0105   -4.1227 C   0  0  0  1  0  0  0  0  0  0  0  0
    0.0111    8.9338   -5.0613 C   0  0  0  1  0  0  0  0  0  0  0  0
    0.8732    9.3727   -6.0485 C   0  0  0  1  0  0  0  0  0  0  0  0
    2.1730    8.8934   -6.0965 C   0  0  0  1  0  0  0  0  0  0  0  0
    2.6053    7.9727   -5.1606 C   0  0  0  1  0  0  0  0  0  0  0  0
    0.3887   10.2661   -6.9328 O   0  0  0  1  0  0  0  0  0  0  0  0
    1.3699   10.8280   -7.8351 C   0  0  0  1  0  0  0  0  0  0  0  0
    4.0381    1.5228   -2.7481 N   0  0  0  1  0  0  0  0  0  0  0  0
    4.4272    1.2089   -1.3664 C   0  0  0  1  0  0  0  0  0  0  0  0
    5.0686   -0.1825   -1.2922 C   0  0  0  1  0  0  0  0  0  0  0  0
    6.4356    0.0033   -0.6295 C   0  0  0  1  0  0  0  0  0  0  0  0
    6.3699    1.3583    0.0794 C   0  0  0  1  0  0  0  0  0  0  0  0
    5.5085    2.1800   -0.8799 C   0  0  0  1  0  0  0  0  0  0  0  0
    6.6892   -1.0902    0.3583 N   0  0  0  1  0  0  0  0  0  0  0  0
    2.5945    4.7331   -5.3810 H   0  0  0  1  0  0  0  0  0  0  0  0
    2.7941    5.8817   -0.1223 H   0  0  0  1  0  0  0  0  0  0  0  0
   -0.2055    7.6773   -3.3823 H   0  0  0  1  0  0  0  0  0  0  0  0
   -0.9629    9.2964   -5.0228 H   0  0  0  1  0  0  0  0  0  0  0  0
    2.8230    9.2265   -6.8369 H   0  0  0  1  0  0  0  0  0  0  0  0
    3.5793    7.6101   -5.1991 H   0  0  0  1  0  0  0  0  0  0  0  0
    1.7777   10.0515   -8.4480 H   0  0  0  1  0  0  0  0  0  0  0  0
    2.1547   11.2844   -7.2689 H   0  0  0  1  0  0  0  0  0  0  0  0
    0.9030   11.5639   -8.4560 H   0  0  0  1  0  0  0  0  0  0  0  0
    4.1114    0.8727   -3.4777 H   0  0  0  1  0  0  0  0  0  0  0  0
    3.5665    1.2588   -0.7328 H   0  0  0  1  0  0  0  0  0  0  0  0
    5.1868   -0.5878   -2.2754 H   0  0  0  1  0  0  0  0  0  0  0  0
    4.4601   -0.8391   -0.7060 H   0  0  0  1  0  0  0  0  0  0  0  0
    7.2107    0.0052   -1.3671 H   0  0  0  1  0  0  0  0  0  0  0  0
    5.9068    1.2719    1.0401 H   0  0  0  1  0  0  0  0  0  0  0  0
    7.3443    1.7864    0.1898 H   0  0  0  1  0  0  0  0  0  0  0  0
    6.0941    2.5345   -1.7023 H   0  0  0  1  0  0  0  0  0  0  0  0
    5.0668    3.0114   -0.3713 H   0  0  0  1  0  0  0  0  0  0  0  0
    5.9315   -1.1549    0.9764 H   0  0  0  1  0  0  0  0  0  0  0  0
    7.5058   -0.8916    0.8626 H   0  0  0  1  0  0  0  0  0  0  0  0
  1  2  4  0  0  0  0
  1  6  4  0  0  0  0
  2  3  4  0  0  0  0
  2 18  1  0  0  0  0
  3  4  4  0  0  0  0
  4  5  4  0  0  0  0
  4  7  4  0  0  0  0
  5  6  4  0  0  0  0
  5  9  4  0  0  0  0
  6 25  1  0  0  0  0
  7  8  4  0  0  0  0
  7 26  1  0  0  0  0
  8  9  4  0  0  0  0
  9 10  1  0  0  0  0
 10 11  4  0  0  0  0
 10 15  4  0  0  0  0
 11 12  4  0  0  0  0
 11 27  1  0  0  0  0
 12 13  4  0  0  0  0
 12 28  1  0  0  0  0
 13 14  4  0  0  0  0
 13 16  1  0  0  0  0
 14 15  4  0  0  0  0
 14 29  1  0  0  0  0
 15 30  1  0  0  0  0
 16 17  1  0  0  0  0
 17 31  1  0  0  0  0
 17 32  1  0  0  0  0
 17 33  1  0  0  0  0
 18 19  1  0  0  0  0
 18 34  1  0  0  0  0
 19 20  1  0  0  0  0
 19 23  1  0  0  0  0
 19 35  1  0  0  0  0
 20 21  1  0  0  0  0
 20 36  1  0  0  0  0
 20 37  1  0  0  0  0
 21 22  1  0  0  0  0
 21 24  1  0  0  0  0
 21 38  1  0  0  0  0
 22 23  1  0  0  0  0
 22 39  1  0  0  0  0
 22 40  1  0  0  0  0
 23 41  1  0  0  0  0
 23 42  1  0  0  0  0
 24 43  1  0  0  0  0
 24 44  1  0  0  0  0
M  END
> <ConfClashScore>
0 

> <ConfOneFourInteractionScore>
-0.981848 

> <ConfScore>
-0.0471977 

> <ConfScorePBest>
0.00369986 

> <ConfTolerance>
0.316153 

$$$$
c13.sdf
 OpenBabel04162418043D

 44 47  0  0  0  0  0  0  0  0999 V2000
    2.2124   -0.0488   -2.5934 N   0  0  0  1  0  0  0  0  0  0  0  0
    2.9671    0.7284   -3.3515 C   0  0  0  1  0  0  0  0  0  0  0  0
    2.7080    0.9408   -4.6214 N   0  0  0  1  0  0  0  0  0  0  0  0
    1.6508    0.3655   -5.2000 C   0  0  0  1  0  0  0  0  0  0  0  0
    0.8229   -0.4706   -4.4209 C   0  0  0  1  0  0  0  0  0  0  0  0
    1.1461   -0.6592   -3.0803 C   0  0  0  1  0  0  0  0  0  0  0  0
    1.1042    0.3821   -6.5019 C   0  0  0  1  0  0  0  0  0  0  0  0
    0.0420   -0.3721   -6.5196 N   0  0  0  1  0  0  0  0  0  0  0  0
   -0.1700   -0.9218   -5.2485 N   0  0  0  1  0  0  0  0  0  0  0  0
   -1.2623   -1.7792   -5.0061 C   0  0  0  1  0  0  0  0  0  0  0  0
   -2.4060   -1.7583   -5.7818 C   0  0  0  1  0  0  0  0  0  0  0  0
   -3.4488   -2.6277   -5.5022 C   0  0  0  1  0  0  0  0  0  0  0  0
   -3.3471   -3.5117   -4.4446 C   0  0  0  1  0  0  0  0  0  0  0  0
   -2.1999   -3.5325   -3.6667 C   0  0  0  1  0  0  0  0  0  0  0  0
   -1.1601   -2.6657   -3.9453 C   0  0  0  1  0  0  0  0  0  0  0  0
   -4.4231   -4.3025   -4.2661 O   0  0  0  1  0  0  0  0  0  0  0  0
   -4.4399   -5.0420   -3.0230 C   0  0  0  1  0  0  0  0  0  0  0  0
    4.0408    1.3247   -2.8027 N   0  0  0  1  0  0  0  0  0  0  0  0
    4.4093    1.2037   -1.3891 C   0  0  0  1  0  0  0  0  0  0  0  0
    4.9910   -0.1866   -1.1030 C   0  0  0  1  0  0  0  0  0  0  0  0
    6.3616    0.0392   -0.4605 C   0  0  0  1  0  0  0  0  0  0  0  0
    6.3500    1.4859    0.0393 C   0  0  0  1  0  0  0  0  0  0  0  0
    5.5284    2.1909   -1.0400 C   0  0  0  1  0  0  0  0  0  0  0  0
    6.5614   -0.8910    0.6637 N   0  0  0  1  0  0  0  0  0  0  0  0
    0.5603   -1.2681   -2.4740 H   0  0  0  1  0  0  0  0  0  0  0  0
    1.4864    0.9094   -7.3128 H   0  0  0  1  0  0  0  0  0  0  0  0
   -2.4842   -1.0904   -6.5751 H   0  0  0  1  0  0  0  0  0  0  0  0
   -4.3078   -2.6149   -6.0883 H   0  0  0  1  0  0  0  0  0  0  0  0
   -2.1217   -4.2004   -2.8733 H   0  0  0  1  0  0  0  0  0  0  0  0
   -0.3011   -2.6785   -3.3593 H   0  0  0  1  0  0  0  0  0  0  0  0
   -5.3861   -5.5286   -2.9096 H   0  0  0  1  0  0  0  0  0  0  0  0
   -4.2851   -4.3689   -2.2058 H   0  0  0  1  0  0  0  0  0  0  0  0
   -3.6610   -5.7755   -3.0341 H   0  0  0  1  0  0  0  0  0  0  0  0
    4.6104    1.8724   -3.3823 H   0  0  0  1  0  0  0  0  0  0  0  0
    3.5485    1.3823   -0.7791 H   0  0  0  1  0  0  0  0  0  0  0  0
    4.3527   -0.7233   -0.4327 H   0  0  0  1  0  0  0  0  0  0  0  0
    5.0964   -0.7376   -2.0141 H   0  0  0  1  0  0  0  0  0  0  0  0
    7.1394   -0.1001   -1.1819 H   0  0  0  1  0  0  0  0  0  0  0  0
    7.3411    1.8852    0.0957 H   0  0  0  1  0  0  0  0  0  0  0  0
    5.8793    1.5619    0.9972 H   0  0  0  1  0  0  0  0  0  0  0  0
    5.1199    3.1059   -0.6648 H   0  0  0  1  0  0  0  0  0  0  0  0
    6.1321    2.3952   -1.8995 H   0  0  0  1  0  0  0  0  0  0  0  0
    7.4370   -0.7272    1.0722 H   0  0  0  1  0  0  0  0  0  0  0  0
    6.5219   -1.8134    0.3351 H   0  0  0  1  0  0  0  0  0  0  0  0
  1  2  4  0  0  0  0
  1  6  4  0  0  0  0
  2  3  4  0  0  0  0
  2 18  1  0  0  0  0
  3  4  4  0  0  0  0
  4  5  4  0  0  0  0
  4  7  4  0  0  0  0
  5  6  4  0  0  0  0
  5  9  4  0  0  0  0
  6 25  1  0  0  0  0
  7  8  4  0  0  0  0
  7 26  1  0  0  0  0
  8  9  4  0  0  0  0
  9 10  1  0  0  0  0
 10 11  4  0  0  0  0
 10 15  4  0  0  0  0
 11 12  4  0  0  0  0
 11 27  1  0  0  0  0
 12 13  4  0  0  0  0
 12 28  1  0  0  0  0
 13 14  4  0  0  0  0
 13 16  1  0  0  0  0
 14 15  4  0  0  0  0
 14 29  1  0  0  0  0
 15 30  1  0  0  0  0
 16 17  1  0  0  0  0
 17 31  1  0  0  0  0
 17 32  1  0  0  0  0
 17 33  1  0  0  0  0
 18 19  1  0  0  0  0
 18 34  1  0  0  0  0
 19 20  1  0  0  0  0
 19 23  1  0  0  0  0
 19 35  1  0  0  0  0
 20 21  1  0  0  0  0
 20 36  1  0  0  0  0
 20 37  1  0  0  0  0
 21 22  1  0  0  0  0
 21 24  1  0  0  0  0
 21 38  1  0  0  0  0
 22 23  1  0  0  0  0
 22 39  1  0  0  0  0
 22 40  1  0  0  0  0
 23 41  1  0  0  0  0
 23 42  1  0  0  0  0
 24 43  1  0  0  0  0
 24 44  1  0  0  0  0
M  END
> <ConfClashScore>
0 

> <ConfOneFourInteractionScore>
-0.984337 

> <ConfScore>
-0.0469183 

> <ConfScorePBest>
0.00368653 

> <ConfTolerance>
0.310336 

$$$$
c13.sdf
 OpenBabel04162418043D

 44 47  0  0  0  0  0  0  0  0999 V2000
    3.8323    2.0652   -4.9214 N   0  0  0  1  0  0  0  0  0  0  0  0
    3.7298    2.1016   -3.6036 C   0  0  0  1  0  0  0  0  0  0  0  0
    2.9354    2.9421   -2.9811 N   0  0  0  1  0  0  0  0  0  0  0  0
    2.1895    3.8057   -3.6749 C   0  0  0  1  0  0  0  0  0  0  0  0
    2.2735    3.7950   -5.0835 C   0  0  0  1  0  0  0  0  0  0  0  0
    3.1323    2.8824   -5.6889 C   0  0  0  1  0  0  0  0  0  0  0  0
    1.2603    4.8112   -3.3292 C   0  0  0  1  0  0  0  0  0  0  0  0
    0.8164    5.3646   -4.4220 N   0  0  0  1  0  0  0  0  0  0  0  0
    1.4189    4.7645   -5.5355 N   0  0  0  1  0  0  0  0  0  0  0  0
    1.0706    5.2246   -6.8364 C   0  0  0  1  0  0  0  0  0  0  0  0
    0.3412    6.3897   -6.9804 C   0  0  0  1  0  0  0  0  0  0  0  0
    0.0837    6.8941   -8.2456 C   0  0  0  1  0  0  0  0  0  0  0  0
    0.5516    6.2292   -9.3633 C   0  0  0  1  0  0  0  0  0  0  0  0
    1.2831    5.0607   -9.2187 C   0  0  0  1  0  0  0  0  0  0  0  0
    1.5400    4.5576   -7.9573 C   0  0  0  1  0  0  0  0  0  0  0  0
    0.3601    6.6196  -10.6384 O   0  0  0  1  0  0  0  0  0  0  0  0
   -0.3710    7.8578  -10.7962 C   0  0  0  1  0  0  0  0  0  0  0  0
    4.4690    1.2431   -2.8691 N   0  0  0  1  0  0  0  0  0  0  0  0
    4.4702    1.2130   -1.4057 C   0  0  0  1  0  0  0  0  0  0  0  0
    4.9559   -0.1508   -0.9034 C   0  0  0  1  0  0  0  0  0  0  0  0
    6.4403    0.0457   -0.6432 C   0  0  0  1  0  0  0  0  0  0  0  0
    6.4726    1.4510   -0.0326 C   0  0  0  1  0  0  0  0  0  0  0  0
    5.4570    2.2504   -0.8536 C   0  0  0  1  0  0  0  0  0  0  0  0
    6.9631   -0.9743    0.3143 N   0  0  0  1  0  0  0  0  0  0  0  0
    3.2216    2.8442   -6.7243 H   0  0  0  1  0  0  0  0  0  0  0  0
    0.9770    5.0676   -2.3620 H   0  0  0  1  0  0  0  0  0  0  0  0
   -0.0144    6.8879   -6.1396 H   0  0  0  1  0  0  0  0  0  0  0  0
   -0.4618    7.7730   -8.3538 H   0  0  0  1  0  0  0  0  0  0  0  0
    1.6387    4.5625  -10.0595 H   0  0  0  1  0  0  0  0  0  0  0  0
    2.0854    3.6787   -7.8490 H   0  0  0  1  0  0  0  0  0  0  0  0
   -0.2224    8.4728   -9.9333 H   0  0  0  1  0  0  0  0  0  0  0  0
   -1.4137    7.6445  -10.9067 H   0  0  0  1  0  0  0  0  0  0  0  0
   -0.0176    8.3720  -11.6655 H   0  0  0  1  0  0  0  0  0  0  0  0
    5.0384    0.6022   -3.3438 H   0  0  0  1  0  0  0  0  0  0  0  0
    3.4830    1.4111   -1.0435 H   0  0  0  1  0  0  0  0  0  0  0  0
    4.7988   -0.9050   -1.6460 H   0  0  0  1  0  0  0  0  0  0  0  0
    4.4473   -0.4250   -0.0027 H   0  0  0  1  0  0  0  0  0  0  0  0
    7.0032    0.0038   -1.5523 H   0  0  0  1  0  0  0  0  0  0  0  0
    7.4496    1.8786   -0.1199 H   0  0  0  1  0  0  0  0  0  0  0  0
    6.1863    1.4218    0.9980 H   0  0  0  1  0  0  0  0  0  0  0  0
    5.9456    2.7650   -1.6544 H   0  0  0  1  0  0  0  0  0  0  0  0
    4.9478    2.9575   -0.2326 H   0  0  0  1  0  0  0  0  0  0  0  0
    6.8600   -1.8689   -0.0721 H   0  0  0  1  0  0  0  0  0  0  0  0
    6.4606   -0.9215    1.1540 H   0  0  0  1  0  0  0  0  0  0  0  0
  1  2  4  0  0  0  0
  1  6  4  0  0  0  0
  2  3  4  0  0  0  0
  2 18  1  0  0  0  0
  3  4  4  0  0  0  0
  4  5  4  0  0  0  0
  4  7  4  0  0  0  0
  5  6  4  0  0  0  0
  5  9  4  0  0  0  0
  6 25  1  0  0  0  0
  7  8  4  0  0  0  0
  7 26  1  0  0  0  0
  8  9  4  0  0  0  0
  9 10  1  0  0  0  0
 10 11  4  0  0  0  0
 10 15  4  0  0  0  0
 11 12  4  0  0  0  0
 11 27  1  0  0  0  0
 12 13  4  0  0  0  0
 12 28  1  0  0  0  0
 13 14  4  0  0  0  0
 13 16  1  0  0  0  0
 14 15  4  0  0  0  0
 14 29  1  0  0  0  0
 15 30  1  0  0  0  0
 16 17  1  0  0  0  0
 17 31  1  0  0  0  0
 17 32  1  0  0  0  0
 17 33  1  0  0  0  0
 18 19  1  0  0  0  0
 18 34  1  0  0  0  0
 19 20  1  0  0  0  0
 19 23  1  0  0  0  0
 19 35  1  0  0  0  0
 20 21  1  0  0  0  0
 20 36  1  0  0  0  0
 20 37  1  0  0  0  0
 21 22  1  0  0  0  0
 21 24  1  0  0  0  0
 21 38  1  0  0  0  0
 22 23  1  0  0  0  0
 22 39  1  0  0  0  0
 22 40  1  0  0  0  0
 23 41  1  0  0  0  0
 23 42  1  0  0  0  0
 24 43  1  0  0  0  0
 24 44  1  0  0  0  0
M  END
> <ConfClashScore>
0 

> <ConfOneFourInteractionScore>
-0.984337 

> <ConfScore>
-0.0468955 

> <ConfScorePBest>
0.0036732 

> <ConfTolerance>
0.238324 

$$$$
c13.sdf
 OpenBabel04162418043D

 44 47  0  0  0  0  0  0  0  0999 V2000
    2.8107    2.6621   -4.2375 N   0  0  0  1  0  0  0  0  0  0  0  0
    3.0038    2.3500   -2.9672 C   0  0  0  1  0  0  0  0  0  0  0  0
    2.2044    2.7627   -2.0103 N   0  0  0  1  0  0  0  0  0  0  0  0
    1.1478    3.5277   -2.2966 C   0  0  0  1  0  0  0  0  0  0  0  0
    0.9108    3.8805   -3.6422 C   0  0  0  1  0  0  0  0  0  0  0  0
    1.7913    3.4143   -4.6140 C   0  0  0  1  0  0  0  0  0  0  0  0
    0.1212    4.1235   -1.5317 C   0  0  0  1  0  0  0  0  0  0  0  0
   -0.6704    4.7793   -2.3321 N   0  0  0  1  0  0  0  0  0  0  0  0
   -0.2177    4.6556   -3.6523 N   0  0  0  1  0  0  0  0  0  0  0  0
   -0.9396    5.1987   -4.7532 C   0  0  0  1  0  0  0  0  0  0  0  0
   -0.4499    6.3041   -5.4228 C   0  0  0  1  0  0  0  0  0  0  0  0
   -1.1499    6.8294   -6.4978 C   0  0  0  1  0  0  0  0  0  0  0  0
   -2.3401    6.2511   -6.8966 C   0  0  0  1  0  0  0  0  0  0  0  0
   -2.8312    5.1423   -6.2249 C   0  0  0  1  0  0  0  0  0  0  0  0
   -2.1333    4.6185   -5.1530 C   0  0  0  1  0  0  0  0  0  0  0  0
   -3.1114    6.6774   -7.9249 O   0  0  0  1  0  0  0  0  0  0  0  0
   -2.6256    7.7899   -8.6922 C   0  0  0  1  0  0  0  0  0  0  0  0
    4.0583    1.5810   -2.6412 N   0  0  0  1  0  0  0  0  0  0  0  0
    4.4463    1.0646   -1.3248 C   0  0  0  1  0  0  0  0  0  0  0  0
    5.3115   -0.1880   -1.4826 C   0  0  0  1  0  0  0  0  0  0  0  0
    6.4350   -0.0461   -0.4528 C   0  0  0  1  0  0  0  0  0  0  0  0
    6.6943    1.4605   -0.4675 C   0  0  0  1  0  0  0  0  0  0  0  0
    5.3048    2.0969   -0.5830 C   0  0  0  1  0  0  0  0  0  0  0  0
    5.9978   -0.5028    0.8856 N   0  0  0  1  0  0  0  0  0  0  0  0
    1.6499    3.6530   -5.6163 H   0  0  0  1  0  0  0  0  0  0  0  0
    0.0145    4.0507   -0.4997 H   0  0  0  1  0  0  0  0  0  0  0  0
    0.4437    6.7417   -5.1202 H   0  0  0  1  0  0  0  0  0  0  0  0
   -0.7794    7.6587   -7.0042 H   0  0  0  1  0  0  0  0  0  0  0  0
   -3.7248    4.7047   -6.5275 H   0  0  0  1  0  0  0  0  0  0  0  0
   -2.5038    3.7891   -4.6466 H   0  0  0  1  0  0  0  0  0  0  0  0
   -1.5587    7.8330   -8.6228 H   0  0  0  1  0  0  0  0  0  0  0  0
   -3.0445    8.6970   -8.3094 H   0  0  0  1  0  0  0  0  0  0  0  0
   -2.9115    7.6687   -9.7161 H   0  0  0  1  0  0  0  0  0  0  0  0
    4.6469    1.3322   -3.3842 H   0  0  0  1  0  0  0  0  0  0  0  0
    3.5682    0.8380   -0.7570 H   0  0  0  1  0  0  0  0  0  0  0  0
    4.7343   -1.0673   -1.2863 H   0  0  0  1  0  0  0  0  0  0  0  0
    5.7162   -0.2398   -2.4717 H   0  0  0  1  0  0  0  0  0  0  0  0
    7.3055   -0.5928   -0.7501 H   0  0  0  1  0  0  0  0  0  0  0  0
    7.3027    1.7298   -1.3055 H   0  0  0  1  0  0  0  0  0  0  0  0
    7.1757    1.7686    0.4370 H   0  0  0  1  0  0  0  0  0  0  0  0
    5.3561    3.0100   -1.1385 H   0  0  0  1  0  0  0  0  0  0  0  0
    4.9004    2.2919    0.3882 H   0  0  0  1  0  0  0  0  0  0  0  0
    6.7162   -0.3497    1.5343 H   0  0  0  1  0  0  0  0  0  0  0  0
    5.7873   -1.4593    0.8514 H   0  0  0  1  0  0  0  0  0  0  0  0
  1  2  4  0  0  0  0
  1  6  4  0  0  0  0
  2  3  4  0  0  0  0
  2 18  1  0  0  0  0
  3  4  4  0  0  0  0
  4  5  4  0  0  0  0
  4  7  4  0  0  0  0
  5  6  4  0  0  0  0
  5  9  4  0  0  0  0
  6 25  1  0  0  0  0
  7  8  4  0  0  0  0
  7 26  1  0  0  0  0
  8  9  4  0  0  0  0
  9 10  1  0  0  0  0
 10 11  4  0  0  0  0
 10 15  4  0  0  0  0
 11 12  4  0  0  0  0
 11 27  1  0  0  0  0
 12 13  4  0  0  0  0
 12 28  1  0  0  0  0
 13 14  4  0  0  0  0
 13 16  1  0  0  0  0
 14 15  4  0  0  0  0
 14 29  1  0  0  0  0
 15 30  1  0  0  0  0
 16 17  1  0  0  0  0
 17 31  1  0  0  0  0
 17 32  1  0  0  0  0
 17 33  1  0  0  0  0
 18 19  1  0  0  0  0
 18 34  1  0  0  0  0
 19 20  1  0  0  0  0
 19 23  1  0  0  0  0
 19 35  1  0  0  0  0
 20 21  1  0  0  0  0
 20 36  1  0  0  0  0
 20 37  1  0  0  0  0
 21 22  1  0  0  0  0
 21 24  1  0  0  0  0
 21 38  1  0  0  0  0
 22 23  1  0  0  0  0
 22 39  1  0  0  0  0
 22 40  1  0  0  0  0
 23 41  1  0  0  0  0
 23 42  1  0  0  0  0
 24 43  1  0  0  0  0
 24 44  1  0  0  0  0
M  END
> <ConfClashScore>
0 

> <ConfOneFourInteractionScore>
-0.984337 

> <ConfScore>
-0.0467279 

> <ConfScorePBest>
0.00365987 

> <ConfTolerance>
0.394857 

$$$$
c13.sdf
 OpenBabel04162418043D

 44 47  0  0  0  0  0  0  0  0999 V2000
    4.6596    2.3824   -4.9821 N   0  0  0  1  0  0  0  0  0  0  0  0
    4.1192    1.9358   -3.8610 C   0  0  0  1  0  0  0  0  0  0  0  0
    2.8203    1.8278   -3.6984 N   0  0  0  1  0  0  0  0  0  0  0  0
    1.9860    2.1733   -4.6823 C   0  0  0  1  0  0  0  0  0  0  0  0
    2.5279    2.6541   -5.8933 C   0  0  0  1  0  0  0  0  0  0  0  0
    3.9117    2.7473   -6.0089 C   0  0  0  1  0  0  0  0  0  0  0  0
    0.5819    2.1807   -4.8322 C   0  0  0  1  0  0  0  0  0  0  0  0
    0.2903    2.6239   -6.0221 N   0  0  0  1  0  0  0  0  0  0  0  0
    1.4685    2.9301   -6.7156 N   0  0  0  1  0  0  0  0  0  0  0  0
    1.4211    3.4346   -8.0434 C   0  0  0  1  0  0  0  0  0  0  0  0
    1.8244    4.7301   -8.3062 C   0  0  0  1  0  0  0  0  0  0  0  0
    1.6959    5.2500   -9.5848 C   0  0  0  1  0  0  0  0  0  0  0  0
    1.1595    4.4747  -10.5955 C   0  0  0  1  0  0  0  0  0  0  0  0
    0.7550    3.1754  -10.3318 C   0  0  0  1  0  0  0  0  0  0  0  0
    0.8831    2.6569   -9.0570 C   0  0  0  1  0  0  0  0  0  0  0  0
    0.9806    4.8742  -11.8770 O   0  0  0  1  0  0  0  0  0  0  0  0
    1.2885    6.2423  -12.1870 C   0  0  0  1  0  0  0  0  0  0  0  0
    4.9770    1.5877   -2.8679 N   0  0  0  1  0  0  0  0  0  0  0  0
    4.5533    1.2197   -1.5137 C   0  0  0  1  0  0  0  0  0  0  0  0
    5.0470   -0.1796   -1.1383 C   0  0  0  1  0  0  0  0  0  0  0  0
    6.4854    0.0073   -0.6501 C   0  0  0  1  0  0  0  0  0  0  0  0
    6.6389    1.4940   -0.3047 C   0  0  0  1  0  0  0  0  0  0  0  0
    5.2371    2.0933   -0.4618 C   0  0  0  1  0  0  0  0  0  0  0  0
    6.7328   -0.8338    0.5642 N   0  0  0  1  0  0  0  0  0  0  0  0
    4.3485    3.0970   -6.8855 H   0  0  0  1  0  0  0  0  0  0  0  0
   -0.1059    1.8817   -4.1117 H   0  0  0  1  0  0  0  0  0  0  0  0
    2.2243    5.3149   -7.5448 H   0  0  0  1  0  0  0  0  0  0  0  0
    2.0031    6.2235   -9.7835 H   0  0  0  1  0  0  0  0  0  0  0  0
    0.3551    2.5906  -11.0931 H   0  0  0  1  0  0  0  0  0  0  0  0
    0.5759    1.6834   -8.8582 H   0  0  0  1  0  0  0  0  0  0  0  0
    0.6369    6.8885  -11.6368 H   0  0  0  1  0  0  0  0  0  0  0  0
    1.1540    6.4091  -13.2353 H   0  0  0  1  0  0  0  0  0  0  0  0
    2.3038    6.4485  -11.9198 H   0  0  0  1  0  0  0  0  0  0  0  0
    5.9363    1.5821   -3.0682 H   0  0  0  1  0  0  0  0  0  0  0  0
    3.4879    1.2878   -1.4419 H   0  0  0  1  0  0  0  0  0  0  0  0
    5.0234   -0.8250   -1.9914 H   0  0  0  1  0  0  0  0  0  0  0  0
    4.4398   -0.5934   -0.3605 H   0  0  0  1  0  0  0  0  0  0  0  0
    7.1756   -0.2662   -1.4206 H   0  0  0  1  0  0  0  0  0  0  0  0
    7.3253    1.9656   -0.9766 H   0  0  0  1  0  0  0  0  0  0  0  0
    6.9858    1.6110    0.7007 H   0  0  0  1  0  0  0  0  0  0  0  0
    4.7043    2.0532    0.4652 H   0  0  0  1  0  0  0  0  0  0  0  0
    5.2967    3.1080   -0.7960 H   0  0  0  1  0  0  0  0  0  0  0  0
    6.5746   -1.7763    0.3471 H   0  0  0  1  0  0  0  0  0  0  0  0
    6.1252   -0.5577    1.2819 H   0  0  0  1  0  0  0  0  0  0  0  0
  1  2  4  0  0  0  0
  1  6  4  0  0  0  0
  2  3  4  0  0  0  0
  2 18  1  0  0  0  0
  3  4  4  0  0  0  0
  4  5  4  0  0  0  0
  4  7  4  0  0  0  0
  5  6  4  0  0  0  0
  5  9  4  0  0  0  0
  6 25  1  0  0  0  0
  7  8  4  0  0  0  0
  7 26  1  0  0  0  0
  8  9  4  0  0  0  0
  9 10  1  0  0  0  0
 10 11  4  0  0  0  0
 10 15  4  0  0  0  0
 11 12  4  0  0  0  0
 11 27  1  0  0  0  0
 12 13  4  0  0  0  0
 12 28  1  0  0  0  0
 13 14  4  0  0  0  0
 13 16  1  0  0  0  0
 14 15  4  0  0  0  0
 14 29  1  0  0  0  0
 15 30  1  0  0  0  0
 16 17  1  0  0  0  0
 17 31  1  0  0  0  0
 17 32  1  0  0  0  0
 17 33  1  0  0  0  0
 18 19  1  0  0  0  0
 18 34  1  0  0  0  0
 19 20  1  0  0  0  0
 19 23  1  0  0  0  0
 19 35  1  0  0  0  0
 20 21  1  0  0  0  0
 20 36  1  0  0  0  0
 20 37  1  0  0  0  0
 21 22  1  0  0  0  0
 21 24  1  0  0  0  0
 21 38  1  0  0  0  0
 22 23  1  0  0  0  0
 22 39  1  0  0  0  0
 22 40  1  0  0  0  0
 23 41  1  0  0  0  0
 23 42  1  0  0  0  0
 24 43  1  0  0  0  0
 24 44  1  0  0  0  0
M  END
> <ConfClashScore>
0 

> <ConfOneFourInteractionScore>
-0.984337 

> <ConfScore>
-0.0466443 

> <ConfScorePBest>
0.00364655 

> <ConfTolerance>
0.359527 

$$$$
c13.sdf
 OpenBabel04162418043D

 44 47  0  0  0  0  0  0  0  0999 V2000
    2.4999    0.0321   -3.0556 N   0  0  0  1  0  0  0  0  0  0  0  0
    3.5405    0.5852   -3.6552 C   0  0  0  1  0  0  0  0  0  0  0  0
    3.6650    0.6197   -4.9622 N   0  0  0  1  0  0  0  0  0  0  0  0
    2.7235    0.0853   -5.7442 C   0  0  0  1  0  0  0  0  0  0  0  0
    1.5985   -0.5136   -5.1384 C   0  0  0  1  0  0  0  0  0  0  0  0
    1.5200   -0.5210   -3.7489 C   0  0  0  1  0  0  0  0  0  0  0  0
    2.5525   -0.0439   -7.1400 C   0  0  0  1  0  0  0  0  0  0  0  0
    1.4293   -0.6632   -7.3685 N   0  0  0  1  0  0  0  0  0  0  0  0
    0.8038   -0.9738   -6.1539 N   0  0  0  1  0  0  0  0  0  0  0  0
   -0.4370   -1.6523   -6.1787 C   0  0  0  1  0  0  0  0  0  0  0  0
   -0.5161   -2.9289   -6.7022 C   0  0  0  1  0  0  0  0  0  0  0  0
   -1.7311   -3.5959   -6.7216 C   0  0  0  1  0  0  0  0  0  0  0  0
   -2.8645   -2.9823   -6.2223 C   0  0  0  1  0  0  0  0  0  0  0  0
   -2.7850   -1.7018   -5.6973 C   0  0  0  1  0  0  0  0  0  0  0  0
   -1.5736   -1.0367   -5.6779 C   0  0  0  1  0  0  0  0  0  0  0  0
   -3.9865   -3.7240   -6.2990 O   0  0  0  1  0  0  0  0  0  0  0  0
   -5.1313   -3.1759   -5.6049 C   0  0  0  1  0  0  0  0  0  0  0  0
    4.5124    1.1355   -2.8965 N   0  0  0  1  0  0  0  0  0  0  0  0
    4.4700    1.1971   -1.4297 C   0  0  0  1  0  0  0  0  0  0  0  0
    4.9150   -0.1384   -0.8236 C   0  0  0  1  0  0  0  0  0  0  0  0
    6.4236    0.0061   -0.6226 C   0  0  0  1  0  0  0  0  0  0  0  0
    6.5458    1.4546   -0.1434 C   0  0  0  1  0  0  0  0  0  0  0  0
    5.4722    2.2339   -0.9067 C   0  0  0  1  0  0  0  0  0  0  0  0
    6.9199   -0.9368    0.3941 N   0  0  0  1  0  0  0  0  0  0  0  0
    0.7066   -0.9530   -3.2659 H   0  0  0  1  0  0  0  0  0  0  0  0
    3.2140    0.2988   -7.8657 H   0  0  0  1  0  0  0  0  0  0  0  0
    0.3359   -3.3891   -7.0816 H   0  0  0  1  0  0  0  0  0  0  0  0
   -1.7899   -4.5581   -7.1119 H   0  0  0  1  0  0  0  0  0  0  0  0
   -3.6370   -1.2416   -5.3179 H   0  0  0  1  0  0  0  0  0  0  0  0
   -1.5148   -0.0745   -5.2876 H   0  0  0  1  0  0  0  0  0  0  0  0
   -5.1404   -3.5306   -4.5954 H   0  0  0  1  0  0  0  0  0  0  0  0
   -6.0288   -3.4841   -6.0991 H   0  0  0  1  0  0  0  0  0  0  0  0
   -5.0713   -2.1076   -5.6068 H   0  0  0  1  0  0  0  0  0  0  0  0
    5.2924    1.5164   -3.3516 H   0  0  0  1  0  0  0  0  0  0  0  0
    3.4781    1.4410   -1.1111 H   0  0  0  1  0  0  0  0  0  0  0  0
    4.4250   -0.3092    0.1121 H   0  0  0  1  0  0  0  0  0  0  0  0
    4.6997   -0.9457   -1.4921 H   0  0  0  1  0  0  0  0  0  0  0  0
    6.9538   -0.1456   -1.5395 H   0  0  0  1  0  0  0  0  0  0  0  0
    7.5179    1.8412   -0.3679 H   0  0  0  1  0  0  0  0  0  0  0  0
    6.3721    1.5149    0.9107 H   0  0  0  1  0  0  0  0  0  0  0  0
    4.9819    2.9245   -0.2528 H   0  0  0  1  0  0  0  0  0  0  0  0
    5.9128    2.7665   -1.7234 H   0  0  0  1  0  0  0  0  0  0  0  0
    6.7667   -1.8559    0.0904 H   0  0  0  1  0  0  0  0  0  0  0  0
    6.4436   -0.7880    1.2375 H   0  0  0  1  0  0  0  0  0  0  0  0
  1  2  4  0  0  0  0
  1  6  4  0  0  0  0
  2  3  4  0  0  0  0
  2 18  1  0  0  0  0
  3  4  4  0  0  0  0
  4  5  4  0  0  0  0
  4  7  4  0  0  0  0
  5  6  4  0  0  0  0
  5  9  4  0  0  0  0
  6 25  1  0  0  0  0
  7  8  4  0  0  0  0
  7 26  1  0  0  0  0
  8  9  4  0  0  0  0
  9 10  1  0  0  0  0
 10 11  4  0  0  0  0
 10 15  4  0  0  0  0
 11 12  4  0  0  0  0
 11 27  1  0  0  0  0
 12 13  4  0  0  0  0
 12 28  1  0  0  0  0
 13 14  4  0  0  0  0
 13 16  1  0  0  0  0
 14 15  4  0  0  0  0
 14 29  1  0  0  0  0
 15 30  1  0  0  0  0
 16 17  1  0  0  0  0
 17 31  1  0  0  0  0
 17 32  1  0  0  0  0
 17 33  1  0  0  0  0
 18 19  1  0  0  0  0
 18 34  1  0  0  0  0
 19 20  1  0  0  0  0
 19 23  1  0  0  0  0
 19 35  1  0  0  0  0
 20 21  1  0  0  0  0
 20 36  1  0  0  0  0
 20 37  1  0  0  0  0
 21 22  1  0  0  0  0
 21 24  1  0  0  0  0
 21 38  1  0  0  0  0
 22 23  1  0  0  0  0
 22 39  1  0  0  0  0
 22 40  1  0  0  0  0
 23 41  1  0  0  0  0
 23 42  1  0  0  0  0
 24 43  1  0  0  0  0
 24 44  1  0  0  0  0
M  END
> <ConfClashScore>
0 

> <ConfOneFourInteractionScore>
-0.984337 

> <ConfScore>
-0.0465807 

> <ConfScorePBest>
0.00363322 

> <ConfTolerance>
0.268638 

$$$$
c13.sdf
 OpenBabel04162418043D

 44 47  0  0  0  0  0  0  0  0999 V2000
    2.8516    1.7250   -4.4620 N   0  0  0  1  0  0  0  0  0  0  0  0
    3.0522    1.3064   -3.2238 C   0  0  0  1  0  0  0  0  0  0  0  0
    2.1676    0.5885   -2.5702 N   0  0  0  1  0  0  0  0  0  0  0  0
    1.0120    0.2513   -3.1483 C   0  0  0  1  0  0  0  0  0  0  0  0
    0.7640    0.6808   -4.4695 C   0  0  0  1  0  0  0  0  0  0  0  0
    1.7375    1.4391   -5.1130 C   0  0  0  1  0  0  0  0  0  0  0  0
   -0.1200   -0.4877   -2.7403 C   0  0  0  1  0  0  0  0  0  0  0  0
   -0.9805   -0.5094   -3.7183 N   0  0  0  1  0  0  0  0  0  0  0  0
   -0.4728    0.2040   -4.8120 N   0  0  0  1  0  0  0  0  0  0  0  0
   -1.1950    0.2366   -6.0390 C   0  0  0  1  0  0  0  0  0  0  0  0
   -2.2707    1.0926   -6.1802 C   0  0  0  1  0  0  0  0  0  0  0  0
   -2.9154    1.1996   -7.4027 C   0  0  0  1  0  0  0  0  0  0  0  0
   -2.4859    0.4462   -8.4789 C   0  0  0  1  0  0  0  0  0  0  0  0
   -1.4068   -0.4124   -8.3371 C   0  0  0  1  0  0  0  0  0  0  0  0
   -0.7639   -0.5191   -7.1182 C   0  0  0  1  0  0  0  0  0  0  0  0
   -3.1751    0.4736   -9.6443 O   0  0  0  1  0  0  0  0  0  0  0  0
   -2.6313   -0.2702  -10.7459 C   0  0  0  1  0  0  0  0  0  0  0  0
    4.2375    1.6362   -2.5921 N   0  0  0  1  0  0  0  0  0  0  0  0
    4.4640    1.1100   -1.2390 C   0  0  0  1  0  0  0  0  0  0  0  0
    5.1790   -0.2463   -1.3037 C   0  0  0  1  0  0  0  0  0  0  0  0
    6.5149   -0.0622   -0.5761 C   0  0  0  1  0  0  0  0  0  0  0  0
    6.7982    1.4279   -0.6713 C   0  0  0  1  0  0  0  0  0  0  0  0
    5.4055    2.0306   -0.4574 C   0  0  0  1  0  0  0  0  0  0  0  0
    6.4024   -0.4838    0.8381 N   0  0  0  1  0  0  0  0  0  0  0  0
    1.5913    1.7741   -6.0867 H   0  0  0  1  0  0  0  0  0  0  0  0
   -0.2460   -0.9400   -1.8123 H   0  0  0  1  0  0  0  0  0  0  0  0
   -2.5966    1.6565   -5.3694 H   0  0  0  1  0  0  0  0  0  0  0  0
   -3.7224    1.8467   -7.5101 H   0  0  0  1  0  0  0  0  0  0  0  0
   -1.0810   -0.9763   -9.1479 H   0  0  0  1  0  0  0  0  0  0  0  0
    0.0431   -1.1662   -7.0108 H   0  0  0  1  0  0  0  0  0  0  0  0
   -1.5871   -0.0566  -10.8403 H   0  0  0  1  0  0  0  0  0  0  0  0
   -3.1351    0.0090  -11.6477 H   0  0  0  1  0  0  0  0  0  0  0  0
   -2.7665   -1.3170  -10.5706 H   0  0  0  1  0  0  0  0  0  0  0  0
    4.9049    2.2027   -3.0327 H   0  0  0  1  0  0  0  0  0  0  0  0
    3.5270    1.0150   -0.7312 H   0  0  0  1  0  0  0  0  0  0  0  0
    4.5927   -0.9978   -0.8175 H   0  0  0  1  0  0  0  0  0  0  0  0
    5.3475   -0.5282   -2.3221 H   0  0  0  1  0  0  0  0  0  0  0  0
    7.2877   -0.6254   -1.0562 H   0  0  0  1  0  0  0  0  0  0  0  0
    7.4797    1.7436    0.0909 H   0  0  0  1  0  0  0  0  0  0  0  0
    7.1912    1.6883   -1.6318 H   0  0  0  1  0  0  0  0  0  0  0  0
    5.3626    3.0286   -0.8408 H   0  0  0  1  0  0  0  0  0  0  0  0
    5.1517    2.0361    0.5821 H   0  0  0  1  0  0  0  0  0  0  0  0
    6.1533   -1.4307    0.8784 H   0  0  0  1  0  0  0  0  0  0  0  0
    5.7158    0.0537    1.2853 H   0  0  0  1  0  0  0  0  0  0  0  0
  1  2  4  0  0  0  0
  1  6  4  0  0  0  0
  2  3  4  0  0  0  0
  2 18  1  0  0  0  0
  3  4  4  0  0  0  0
  4  5  4  0  0  0  0
  4  7  4  0  0  0  0
  5  6  4  0  0  0  0
  5  9  4  0  0  0  0
  6 25  1  0  0  0  0
  7  8  4  0  0  0  0
  7 26  1  0  0  0  0
  8  9  4  0  0  0  0
  9 10  1  0  0  0  0
 10 11  4  0  0  0  0
 10 15  4  0  0  0  0
 11 12  4  0  0  0  0
 11 27  1  0  0  0  0
 12 13  4  0  0  0  0
 12 28  1  0  0  0  0
 13 14  4  0  0  0  0
 13 16  1  0  0  0  0
 14 15  4  0  0  0  0
 14 29  1  0  0  0  0
 15 30  1  0  0  0  0
 16 17  1  0  0  0  0
 17 31  1  0  0  0  0
 17 32  1  0  0  0  0
 17 33  1  0  0  0  0
 18 19  1  0  0  0  0
 18 34  1  0  0  0  0
 19 20  1  0  0  0  0
 19 23  1  0  0  0  0
 19 35  1  0  0  0  0
 20 21  1  0  0  0  0
 20 36  1  0  0  0  0
 20 37  1  0  0  0  0
 21 22  1  0  0  0  0
 21 24  1  0  0  0  0
 21 38  1  0  0  0  0
 22 23  1  0  0  0  0
 22 39  1  0  0  0  0
 22 40  1  0  0  0  0
 23 41  1  0  0  0  0
 23 42  1  0  0  0  0
 24 43  1  0  0  0  0
 24 44  1  0  0  0  0
M  END
> <ConfClashScore>
0 

> <ConfOneFourInteractionScore>
-0.984337 

> <ConfScore>
-0.0461092 

> <ConfScorePBest>
0.00361989 

> <ConfTolerance>
0.375332 

$$$$
c13.sdf
 OpenBabel04162418043D

 44 47  0  0  0  0  0  0  0  0999 V2000
    4.6367    2.5072   -4.9223 N   0  0  0  1  0  0  0  0  0  0  0  0
    4.1323    2.1626   -3.7497 C   0  0  0  1  0  0  0  0  0  0  0  0
    2.9039    2.4630   -3.3948 N   0  0  0  1  0  0  0  0  0  0  0  0
    2.1081    3.1412   -4.2256 C   0  0  0  1  0  0  0  0  0  0  0  0
    2.6134    3.5254   -5.4859 C   0  0  0  1  0  0  0  0  0  0  0  0
    3.9224    3.1796   -5.8080 C   0  0  0  1  0  0  0  0  0  0  0  0
    0.7781    3.6111   -4.1587 C   0  0  0  1  0  0  0  0  0  0  0  0
    0.4947    4.2252   -5.2722 N   0  0  0  1  0  0  0  0  0  0  0  0
    1.6055    4.1961   -6.1254 N   0  0  0  1  0  0  0  0  0  0  0  0
    1.5047    4.7162   -7.4370 C   0  0  0  1  0  0  0  0  0  0  0  0
    0.4393    5.5276   -7.7785 C   0  0  0  1  0  0  0  0  0  0  0  0
    0.3434    6.0416   -9.0622 C   0  0  0  1  0  0  0  0  0  0  0  0
    1.3103    5.7384  -10.0022 C   0  0  0  1  0  0  0  0  0  0  0  0
    2.3788    4.9245   -9.6595 C   0  0  0  1  0  0  0  0  0  0  0  0
    2.4746    4.4119   -8.3795 C   0  0  0  1  0  0  0  0  0  0  0  0
    1.1081    6.2924  -11.2213 O   0  0  0  1  0  0  0  0  0  0  0  0
    1.9613    5.8552  -12.2905 C   0  0  0  1  0  0  0  0  0  0  0  0
    4.9050    1.4787   -2.8868 N   0  0  0  1  0  0  0  0  0  0  0  0
    4.5315    1.2047   -1.4938 C   0  0  0  1  0  0  0  0  0  0  0  0
    4.9981   -0.1861   -1.0569 C   0  0  0  1  0  0  0  0  0  0  0  0
    6.4623   -0.0195   -0.6439 C   0  0  0  1  0  0  0  0  0  0  0  0
    6.6775    1.4789   -0.3955 C   0  0  0  1  0  0  0  0  0  0  0  0
    5.2893    2.1149   -0.5271 C   0  0  0  1  0  0  0  0  0  0  0  0
    6.7379   -0.7946    0.6047 N   0  0  0  1  0  0  0  0  0  0  0  0
    4.3304    3.4450   -6.7271 H   0  0  0  1  0  0  0  0  0  0  0  0
    0.1317    3.4875   -3.3534 H   0  0  0  1  0  0  0  0  0  0  0  0
   -0.2903    5.7525   -7.0724 H   0  0  0  1  0  0  0  0  0  0  0  0
   -0.4561    6.6555   -9.3181 H   0  0  0  1  0  0  0  0  0  0  0  0
    3.1085    4.6996  -10.3656 H   0  0  0  1  0  0  0  0  0  0  0  0
    3.2741    3.7981   -8.1236 H   0  0  0  1  0  0  0  0  0  0  0  0
    1.6016    6.2487  -13.2182 H   0  0  0  1  0  0  0  0  0  0  0  0
    1.9606    4.7860  -12.3326 H   0  0  0  1  0  0  0  0  0  0  0  0
    2.9575    6.2052  -12.1173 H   0  0  0  1  0  0  0  0  0  0  0  0
    5.7684    1.1434   -3.2071 H   0  0  0  1  0  0  0  0  0  0  0  0
    3.4731    1.3128   -1.3799 H   0  0  0  1  0  0  0  0  0  0  0  0
    4.9156   -0.8792   -1.8679 H   0  0  0  1  0  0  0  0  0  0  0  0
    4.4142   -0.5328   -0.2300 H   0  0  0  1  0  0  0  0  0  0  0  0
    7.1079   -0.3607   -1.4260 H   0  0  0  1  0  0  0  0  0  0  0  0
    7.0732    1.6429    0.5850 H   0  0  0  1  0  0  0  0  0  0  0  0
    7.3469    1.8869   -1.1237 H   0  0  0  1  0  0  0  0  0  0  0  0
    5.3651    3.1057   -0.9238 H   0  0  0  1  0  0  0  0  0  0  0  0
    4.7982    2.1471    0.4230 H   0  0  0  1  0  0  0  0  0  0  0  0
    6.5471   -1.7432    0.4496 H   0  0  0  1  0  0  0  0  0  0  0  0
    6.1677   -0.4610    1.3286 H   0  0  0  1  0  0  0  0  0  0  0  0
  1  2  4  0  0  0  0
  1  6  4  0  0  0  0
  2  3  4  0  0  0  0
  2 18  1  0  0  0  0
  3  4  4  0  0  0  0
  4  5  4  0  0  0  0
  4  7  4  0  0  0  0
  5  6  4  0  0  0  0
  5  9  4  0  0  0  0
  6 25  1  0  0  0  0
  7  8  4  0  0  0  0
  7 26  1  0  0  0  0
  8  9  4  0  0  0  0
  9 10  1  0  0  0  0
 10 11  4  0  0  0  0
 10 15  4  0  0  0  0
 11 12  4  0  0  0  0
 11 27  1  0  0  0  0
 12 13  4  0  0  0  0
 12 28  1  0  0  0  0
 13 14  4  0  0  0  0
 13 16  1  0  0  0  0
 14 15  4  0  0  0  0
 14 29  1  0  0  0  0
 15 30  1  0  0  0  0
 16 17  1  0  0  0  0
 17 31  1  0  0  0  0
 17 32  1  0  0  0  0
 17 33  1  0  0  0  0
 18 19  1  0  0  0  0
 18 34  1  0  0  0  0
 19 20  1  0  0  0  0
 19 23  1  0  0  0  0
 19 35  1  0  0  0  0
 20 21  1  0  0  0  0
 20 36  1  0  0  0  0
 20 37  1  0  0  0  0
 21 22  1  0  0  0  0
 21 24  1  0  0  0  0
 21 38  1  0  0  0  0
 22 23  1  0  0  0  0
 22 39  1  0  0  0  0
 22 40  1  0  0  0  0
 23 41  1  0  0  0  0
 23 42  1  0  0  0  0
 24 43  1  0  0  0  0
 24 44  1  0  0  0  0
M  END
> <ConfClashScore>
0 

> <ConfOneFourInteractionScore>
-0.984337 

> <ConfScore>
-0.0455346 

> <ConfScorePBest>
0.00360656 

> <ConfTolerance>
0.387146 

$$$$
c13.sdf
 OpenBabel04162418043D

 44 47  0  0  0  0  0  0  0  0999 V2000
    4.9429    2.9083   -4.8322 N   0  0  0  1  0  0  0  0  0  0  0  0
    4.5770    2.6331   -3.5917 C   0  0  0  1  0  0  0  0  0  0  0  0
    3.8655    3.4647   -2.8655 N   0  0  0  1  0  0  0  0  0  0  0  0
    3.4806    4.6405   -3.3683 C   0  0  0  1  0  0  0  0  0  0  0  0
    3.8532    4.9675   -4.6896 C   0  0  0  1  0  0  0  0  0  0  0  0
    4.6074    4.0476   -5.4120 C   0  0  0  1  0  0  0  0  0  0  0  0
    2.7331    5.7314   -2.8733 C   0  0  0  1  0  0  0  0  0  0  0  0
    2.6546    6.6411   -3.8026 N   0  0  0  1  0  0  0  0  0  0  0  0
    3.3362    6.2087   -4.9477 N   0  0  0  1  0  0  0  0  0  0  0  0
    3.3972    7.0070   -6.0828 C   0  0  0  1  0  0  0  0  0  0  0  0
    2.9533    8.3113   -5.9731 C   0  0  0  1  0  0  0  0  0  0  0  0
    2.9968    9.1529   -7.0737 C   0  0  0  1  0  0  0  0  0  0  0  0
    3.4791    8.6864   -8.2820 C   0  0  0  1  0  0  0  0  0  0  0  0
    3.9243    7.3782   -8.3919 C   0  0  0  1  0  0  0  0  0  0  0  0
    3.8809    6.5389   -7.2946 C   0  0  0  1  0  0  0  0  0  0  0  0
    3.4681    9.6057   -9.2956 O   0  0  0  1  0  0  0  0  0  0  0  0
    3.9729    9.0729  -10.5422 C   0  0  0  1  0  0  0  0  0  0  0  0
    4.9603    1.4146   -3.0321 N   0  0  0  1  0  0  0  0  0  0  0  0
    4.5721    1.2317   -1.6305 C   0  0  0  1  0  0  0  0  0  0  0  0
    4.9301   -0.2139   -1.1576 C   0  0  0  1  0  0  0  0  0  0  0  0
    6.3961   -0.0074   -0.6217 C   0  0  0  1  0  0  0  0  0  0  0  0
    6.2895    1.3305    0.0972 C   0  0  0  1  0  0  0  0  0  0  0  0
    5.3552    2.1961   -0.7372 C   0  0  0  1  0  0  0  0  0  0  0  0
    6.7874   -1.0999    0.3213 N   0  0  0  1  0  0  0  0  0  0  0  0
    4.9012    4.2526   -6.3883 H   0  0  0  1  0  0  0  0  0  0  0  0
    2.3143    5.7977   -1.9236 H   0  0  0  1  0  0  0  0  0  0  0  0
    2.5866    8.6612   -5.0650 H   0  0  0  1  0  0  0  0  0  0  0  0
    2.6665   10.1355   -6.9902 H   0  0  0  1  0  0  0  0  0  0  0  0
    4.2910    7.0283   -9.3000 H   0  0  0  1  0  0  0  0  0  0  0  0
    4.2112    5.5563   -7.3781 H   0  0  0  1  0  0  0  0  0  0  0  0
    3.4513    8.1700  -10.7820 H   0  0  0  1  0  0  0  0  0  0  0  0
    5.0180    8.8655  -10.4439 H   0  0  0  1  0  0  0  0  0  0  0  0
    3.8228    9.7893  -11.3227 H   0  0  0  1  0  0  0  0  0  0  0  0
    5.4513    0.7331   -3.5370 H   0  0  0  1  0  0  0  0  0  0  0  0
    3.5212    1.4037   -1.5256 H   0  0  0  1  0  0  0  0  0  0  0  0
    4.9044   -0.9095   -1.9702 H   0  0  0  1  0  0  0  0  0  0  0  0
    4.2726   -0.5465   -0.3818 H   0  0  0  1  0  0  0  0  0  0  0  0
    7.1002    0.0393   -1.4260 H   0  0  0  1  0  0  0  0  0  0  0  0
    5.8867    1.1917    1.0787 H   0  0  0  1  0  0  0  0  0  0  0  0
    7.2534    1.7896    0.1684 H   0  0  0  1  0  0  0  0  0  0  0  0
    4.6873    2.7404   -0.1027 H   0  0  0  1  0  0  0  0  0  0  0  0
    5.9186    2.8819   -1.3348 H   0  0  0  1  0  0  0  0  0  0  0  0
    6.2414   -1.0424    1.1331 H   0  0  0  1  0  0  0  0  0  0  0  0
    7.7338   -1.0042    0.5570 H   0  0  0  1  0  0  0  0  0  0  0  0
  1  2  4  0  0  0  0
  1  6  4  0  0  0  0
  2  3  4  0  0  0  0
  2 18  1  0  0  0  0
  3  4  4  0  0  0  0
  4  5  4  0  0  0  0
  4  7  4  0  0  0  0
  5  6  4  0  0  0  0
  5  9  4  0  0  0  0
  6 25  1  0  0  0  0
  7  8  4  0  0  0  0
  7 26  1  0  0  0  0
  8  9  4  0  0  0  0
  9 10  1  0  0  0  0
 10 11  4  0  0  0  0
 10 15  4  0  0  0  0
 11 12  4  0  0  0  0
 11 27  1  0  0  0  0
 12 13  4  0  0  0  0
 12 28  1  0  0  0  0
 13 14  4  0  0  0  0
 13 16  1  0  0  0  0
 14 15  4  0  0  0  0
 14 29  1  0  0  0  0
 15 30  1  0  0  0  0
 16 17  1  0  0  0  0
 17 31  1  0  0  0  0
 17 32  1  0  0  0  0
 17 33  1  0  0  0  0
 18 19  1  0  0  0  0
 18 34  1  0  0  0  0
 19 20  1  0  0  0  0
 19 23  1  0  0  0  0
 19 35  1  0  0  0  0
 20 21  1  0  0  0  0
 20 36  1  0  0  0  0
 20 37  1  0  0  0  0
 21 22  1  0  0  0  0
 21 24  1  0  0  0  0
 21 38  1  0  0  0  0
 22 23  1  0  0  0  0
 22 39  1  0  0  0  0
 22 40  1  0  0  0  0
 23 41  1  0  0  0  0
 23 42  1  0  0  0  0
 24 43  1  0  0  0  0
 24 44  1  0  0  0  0
M  END
> <ConfClashScore>
0 

> <ConfOneFourInteractionScore>
-0.981848 

> <ConfScore>
-0.0455105 

> <ConfScorePBest>
0.00359323 

> <ConfTolerance>
0.298779 

$$$$
c13.sdf
 OpenBabel04162418043D

 44 47  0  0  0  0  0  0  0  0999 V2000
    3.8222    1.0380   -5.0496 N   0  0  0  1  0  0  0  0  0  0  0  0
    3.5876    1.0281   -3.7484 C   0  0  0  1  0  0  0  0  0  0  0  0
    2.3940    0.8029   -3.2488 N   0  0  0  1  0  0  0  0  0  0  0  0
    1.3565    0.5717   -4.0574 C   0  0  0  1  0  0  0  0  0  0  0  0
    1.5702    0.5747   -5.4523 C   0  0  0  1  0  0  0  0  0  0  0  0
    2.8563    0.8193   -5.9247 C   0  0  0  1  0  0  0  0  0  0  0  0
   -0.0148    0.3024   -3.8553 C   0  0  0  1  0  0  0  0  0  0  0  0
   -0.5878    0.1543   -5.0159 N   0  0  0  1  0  0  0  0  0  0  0  0
    0.3592    0.3152   -6.0358 N   0  0  0  1  0  0  0  0  0  0  0  0
   -0.0172    0.2006   -7.4053 C   0  0  0  1  0  0  0  0  0  0  0  0
   -1.1350    0.8684   -7.8685 C   0  0  0  1  0  0  0  0  0  0  0  0
   -1.4495    0.8398   -9.2182 C   0  0  0  1  0  0  0  0  0  0  0  0
   -0.6483    0.1393  -10.1000 C   0  0  0  1  0  0  0  0  0  0  0  0
    0.4729   -0.5304   -9.6353 C   0  0  0  1  0  0  0  0  0  0  0  0
    0.7866   -0.5021   -8.2895 C   0  0  0  1  0  0  0  0  0  0  0  0
   -1.0040    0.0278  -11.3851 O   0  0  0  1  0  0  0  0  0  0  0  0
   -0.1521   -0.6568  -12.3642 C   0  0  0  1  0  0  0  0  0  0  0  0
    4.6088    1.2571   -2.9033 N   0  0  0  1  0  0  0  0  0  0  0  0
    4.4896    1.2062   -1.4565 C   0  0  0  1  0  0  0  0  0  0  0  0
    4.9638   -0.1515   -0.9266 C   0  0  0  1  0  0  0  0  0  0  0  0
    6.4519    0.0406   -0.6334 C   0  0  0  1  0  0  0  0  0  0  0  0
    6.4826    1.4525   -0.0433 C   0  0  0  1  0  0  0  0  0  0  0  0
    5.4150    2.2416   -0.8048 C   0  0  0  1  0  0  0  0  0  0  0  0
    6.9414   -0.9615    0.3433 N   0  0  0  1  0  0  0  0  0  0  0  0
    3.0532    0.8297   -6.9458 H   0  0  0  1  0  0  0  0  0  0  0  0
   -0.4891    0.2336   -2.9323 H   0  0  0  1  0  0  0  0  0  0  0  0
   -1.7402    1.3922   -7.2045 H   0  0  0  1  0  0  0  0  0  0  0  0
   -2.2885    1.3456   -9.5674 H   0  0  0  1  0  0  0  0  0  0  0  0
    1.0781   -1.0543  -10.2993 H   0  0  0  1  0  0  0  0  0  0  0  0
    1.6255   -1.0078   -7.9403 H   0  0  0  1  0  0  0  0  0  0  0  0
   -0.6467   -0.6812  -13.3127 H   0  0  0  1  0  0  0  0  0  0  0  0
    0.0365   -1.6572  -12.0347 H   0  0  0  1  0  0  0  0  0  0  0  0
    0.7750   -0.1312  -12.4592 H   0  0  0  1  0  0  0  0  0  0  0  0
    5.4851    1.4709   -3.2864 H   0  0  0  1  0  0  0  0  0  0  0  0
    3.4725    1.3834   -1.1755 H   0  0  0  1  0  0  0  0  0  0  0  0
    4.8205   -0.9142   -1.6633 H   0  0  0  1  0  0  0  0  0  0  0  0
    4.4348   -0.4131   -0.0341 H   0  0  0  1  0  0  0  0  0  0  0  0
    7.0349   -0.0188   -1.5286 H   0  0  0  1  0  0  0  0  0  0  0  0
    7.4462    1.8955   -0.1853 H   0  0  0  1  0  0  0  0  0  0  0  0
    6.2524    1.4255    1.0013 H   0  0  0  1  0  0  0  0  0  0  0  0
    4.8605    2.8595   -0.1298 H   0  0  0  1  0  0  0  0  0  0  0  0
    5.8720    2.8526   -1.5549 H   0  0  0  1  0  0  0  0  0  0  0  0
    6.8499   -1.8603   -0.0364 H   0  0  0  1  0  0  0  0  0  0  0  0
    6.4135   -0.8997    1.1667 H   0  0  0  1  0  0  0  0  0  0  0  0
  1  2  4  0  0  0  0
  1  6  4  0  0  0  0
  2  3  4  0  0  0  0
  2 18  1  0  0  0  0
  3  4  4  0  0  0  0
  4  5  4  0  0  0  0
  4  7  4  0  0  0  0
  5  6  4  0  0  0  0
  5  9  4  0  0  0  0
  6 25  1  0  0  0  0
  7  8  4  0  0  0  0
  7 26  1  0  0  0  0
  8  9  4  0  0  0  0
  9 10  1  0  0  0  0
 10 11  4  0  0  0  0
 10 15  4  0  0  0  0
 11 12  4  0  0  0  0
 11 27  1  0  0  0  0
 12 13  4  0  0  0  0
 12 28  1  0  0  0  0
 13 14  4  0  0  0  0
 13 16  1  0  0  0  0
 14 15  4  0  0  0  0
 14 29  1  0  0  0  0
 15 30  1  0  0  0  0
 16 17  1  0  0  0  0
 17 31  1  0  0  0  0
 17 32  1  0  0  0  0
 17 33  1  0  0  0  0
 18 19  1  0  0  0  0
 18 34  1  0  0  0  0
 19 20  1  0  0  0  0
 19 23  1  0  0  0  0
 19 35  1  0  0  0  0
 20 21  1  0  0  0  0
 20 36  1  0  0  0  0
 20 37  1  0  0  0  0
 21 22  1  0  0  0  0
 21 24  1  0  0  0  0
 21 38  1  0  0  0  0
 22 23  1  0  0  0  0
 22 39  1  0  0  0  0
 22 40  1  0  0  0  0
 23 41  1  0  0  0  0
 23 42  1  0  0  0  0
 24 43  1  0  0  0  0
 24 44  1  0  0  0  0
M  END
> <ConfClashScore>
0 

> <ConfOneFourInteractionScore>
-0.984337 

> <ConfScore>
-0.0451477 

> <ConfScorePBest>
0.0035799 

> <ConfTolerance>
0.383085 

$$$$
c13.sdf
 OpenBabel04162418043D

 44 47  0  0  0  0  0  0  0  0999 V2000
    3.6893    3.4503   -4.0212 N   0  0  0  1  0  0  0  0  0  0  0  0
    3.7712    2.9621   -2.7951 C   0  0  0  1  0  0  0  0  0  0  0  0
    3.3402    3.6207   -1.7437 N   0  0  0  1  0  0  0  0  0  0  0  0
    2.7937    4.8312   -1.8829 C   0  0  0  1  0  0  0  0  0  0  0  0
    2.6901    5.3836   -3.1773 C   0  0  0  1  0  0  0  0  0  0  0  0
    3.1635    4.6402   -4.2544 C   0  0  0  1  0  0  0  0  0  0  0  0
    2.2472    5.7788   -0.9899 C   0  0  0  1  0  0  0  0  0  0  0  0
    1.8464    6.8141   -1.6719 N   0  0  0  1  0  0  0  0  0  0  0  0
    2.1019    6.6117   -3.0344 N   0  0  0  1  0  0  0  0  0  0  0  0
    1.8382    7.6430   -3.9783 C   0  0  0  1  0  0  0  0  0  0  0  0
    1.8848    7.3690   -5.3322 C   0  0  0  1  0  0  0  0  0  0  0  0
    1.6226    8.3726   -6.2517 C   0  0  0  1  0  0  0  0  0  0  0  0
    1.3198    9.6484   -5.8149 C   0  0  0  1  0  0  0  0  0  0  0  0
    1.2731    9.9231   -4.4570 C   0  0  0  1  0  0  0  0  0  0  0  0
    1.5346    8.9225   -3.5400 C   0  0  0  1  0  0  0  0  0  0  0  0
    1.0516   10.7068   -6.6160 O   0  0  0  1  0  0  0  0  0  0  0  0
    0.8285   10.4357   -8.0086 C   0  0  0  1  0  0  0  0  0  0  0  0
    4.3180    1.7407   -2.6159 N   0  0  0  1  0  0  0  0  0  0  0  0
    4.4526    1.0934   -1.3168 C   0  0  0  1  0  0  0  0  0  0  0  0
    5.1919   -0.2439   -1.4579 C   0  0  0  1  0  0  0  0  0  0  0  0
    6.4681   -0.1191   -0.6189 C   0  0  0  1  0  0  0  0  0  0  0  0
    6.7337    1.3758   -0.5497 C   0  0  0  1  0  0  0  0  0  0  0  0
    5.3196    1.9425   -0.3830 C   0  0  0  1  0  0  0  0  0  0  0  0
    6.2608   -0.6729    0.7280 N   0  0  0  1  0  0  0  0  0  0  0  0
    3.1047    5.0136   -5.2233 H   0  0  0  1  0  0  0  0  0  0  0  0
    2.1763    5.6686    0.0418 H   0  0  0  1  0  0  0  0  0  0  0  0
    2.1166    6.4100   -5.6610 H   0  0  0  1  0  0  0  0  0  0  0  0
    1.6537    8.1655   -7.2704 H   0  0  0  1  0  0  0  0  0  0  0  0
    1.0413   10.8821   -4.1281 H   0  0  0  1  0  0  0  0  0  0  0  0
    1.5035    9.1296   -2.5213 H   0  0  0  1  0  0  0  0  0  0  0  0
    0.4601   11.3177   -8.4896 H   0  0  0  1  0  0  0  0  0  0  0  0
    0.1100    9.6491   -8.1079 H   0  0  0  1  0  0  0  0  0  0  0  0
    1.7491   10.1385   -8.4658 H   0  0  0  1  0  0  0  0  0  0  0  0
    4.6438    1.2610   -3.4059 H   0  0  0  1  0  0  0  0  0  0  0  0
    3.4826    0.9414   -0.8913 H   0  0  0  1  0  0  0  0  0  0  0  0
    5.4388   -0.4244   -2.4832 H   0  0  0  1  0  0  0  0  0  0  0  0
    4.5838   -1.0440   -1.0907 H   0  0  0  1  0  0  0  0  0  0  0  0
    7.2828   -0.6263   -1.0921 H   0  0  0  1  0  0  0  0  0  0  0  0
    7.3526    1.6223    0.2876 H   0  0  0  1  0  0  0  0  0  0  0  0
    7.1915    1.7313   -1.4491 H   0  0  0  1  0  0  0  0  0  0  0  0
    5.2888    2.9724   -0.6712 H   0  0  0  1  0  0  0  0  0  0  0  0
    4.9906    1.8452    0.6306 H   0  0  0  1  0  0  0  0  0  0  0  0
    5.4352   -0.3070    1.1087 H   0  0  0  1  0  0  0  0  0  0  0  0
    7.0190   -0.4320    1.3003 H   0  0  0  1  0  0  0  0  0  0  0  0
  1  2  4  0  0  0  0
  1  6  4  0  0  0  0
  2  3  4  0  0  0  0
  2 18  1  0  0  0  0
  3  4  4  0  0  0  0
  4  5  4  0  0  0  0
  4  7  4  0  0  0  0
  5  6  4  0  0  0  0
  5  9  4  0  0  0  0
  6 25  1  0  0  0  0
  7  8  4  0  0  0  0
  7 26  1  0  0  0  0
  8  9  4  0  0  0  0
  9 10  1  0  0  0  0
 10 11  4  0  0  0  0
 10 15  4  0  0  0  0
 11 12  4  0  0  0  0
 11 27  1  0  0  0  0
 12 13  4  0  0  0  0
 12 28  1  0  0  0  0
 13 14  4  0  0  0  0
 13 16  1  0  0  0  0
 14 15  4  0  0  0  0
 14 29  1  0  0  0  0
 15 30  1  0  0  0  0
 16 17  1  0  0  0  0
 17 31  1  0  0  0  0
 17 32  1  0  0  0  0
 17 33  1  0  0  0  0
 18 19  1  0  0  0  0
 18 34  1  0  0  0  0
 19 20  1  0  0  0  0
 19 23  1  0  0  0  0
 19 35  1  0  0  0  0
 20 21  1  0  0  0  0
 20 36  1  0  0  0  0
 20 37  1  0  0  0  0
 21 22  1  0  0  0  0
 21 24  1  0  0  0  0
 21 38  1  0  0  0  0
 22 23  1  0  0  0  0
 22 39  1  0  0  0  0
 22 40  1  0  0  0  0
 23 41  1  0  0  0  0
 23 42  1  0  0  0  0
 24 43  1  0  0  0  0
 24 44  1  0  0  0  0
M  END
> <ConfClashScore>
0 

> <ConfOneFourInteractionScore>
-0.985399 

> <ConfScore>
-0.0447158 

> <ConfScorePBest>
0.00356658 

> <ConfTolerance>
0.405357 

$$$$
c13.sdf
 OpenBabel04162418043D

 44 47  0  0  0  0  0  0  0  0999 V2000
    1.8125    0.7755   -2.0403 N   0  0  0  1  0  0  0  0  0  0  0  0
    2.6018    1.2331   -2.9973 C   0  0  0  1  0  0  0  0  0  0  0  0
    2.1662    1.4839   -4.2108 N   0  0  0  1  0  0  0  0  0  0  0  0
    0.8839    1.2800   -4.5231 C   0  0  0  1  0  0  0  0  0  0  0  0
    0.0124    0.7922   -3.5262 C   0  0  0  1  0  0  0  0  0  0  0  0
    0.5296    0.5443   -2.2581 C   0  0  0  1  0  0  0  0  0  0  0  0
    0.1131    1.4420   -5.6952 C   0  0  0  1  0  0  0  0  0  0  0  0
   -1.1145    1.0871   -5.4412 N   0  0  0  1  0  0  0  0  0  0  0  0
   -1.2224    0.6765   -4.1060 N   0  0  0  1  0  0  0  0  0  0  0  0
   -2.4370    0.1568   -3.6145 C   0  0  0  1  0  0  0  0  0  0  0  0
   -3.6623    0.5061   -4.1501 C   0  0  0  1  0  0  0  0  0  0  0  0
   -4.8262   -0.0394   -3.6314 C   0  0  0  1  0  0  0  0  0  0  0  0
   -4.7619   -0.9285   -2.5751 C   0  0  0  1  0  0  0  0  0  0  0  0
   -3.5329   -1.2788   -2.0380 C   0  0  0  1  0  0  0  0  0  0  0  0
   -2.3723   -0.7349   -2.5552 C   0  0  0  1  0  0  0  0  0  0  0  0
   -5.8605   -1.4926   -2.0195 O   0  0  0  1  0  0  0  0  0  0  0  0
   -7.1398   -1.0218   -2.4717 C   0  0  0  1  0  0  0  0  0  0  0  0
    3.9364    1.4564   -2.7113 N   0  0  0  1  0  0  0  0  0  0  0  0
    4.4005    1.2061   -1.3210 C   0  0  0  1  0  0  0  0  0  0  0  0
    5.0011   -0.2002   -1.2005 C   0  0  0  1  0  0  0  0  0  0  0  0
    6.4094   -0.0241   -0.6276 C   0  0  0  1  0  0  0  0  0  0  0  0
    6.4274    1.3709    0.0022 C   0  0  0  1  0  0  0  0  0  0  0  0
    5.5381    2.1654   -0.9543 C   0  0  0  1  0  0  0  0  0  0  0  0
    6.6822   -1.0549    0.3953 N   0  0  0  1  0  0  0  0  0  0  0  0
   -0.0812    0.1843   -1.4972 H   0  0  0  1  0  0  0  0  0  0  0  0
    0.4669    1.7874   -6.6101 H   0  0  0  1  0  0  0  0  0  0  0  0
   -3.7110    1.1782   -4.9423 H   0  0  0  1  0  0  0  0  0  0  0  0
   -5.7479    0.2203   -4.0370 H   0  0  0  1  0  0  0  0  0  0  0  0
   -3.4841   -1.9509   -1.2459 H   0  0  0  1  0  0  0  0  0  0  0  0
   -1.4505   -0.9946   -2.1496 H   0  0  0  1  0  0  0  0  0  0  0  0
   -7.4505   -0.1956   -1.8669 H   0  0  0  1  0  0  0  0  0  0  0  0
   -7.8581   -1.8109   -2.3933 H   0  0  0  1  0  0  0  0  0  0  0  0
   -7.0638   -0.7080   -3.4918 H   0  0  0  1  0  0  0  0  0  0  0  0
    4.5563    1.7696   -3.4028 H   0  0  0  1  0  0  0  0  0  0  0  0
    3.5799    1.3221   -0.6442 H   0  0  0  1  0  0  0  0  0  0  0  0
    4.4073   -0.8004   -0.5432 H   0  0  0  1  0  0  0  0  0  0  0  0
    5.0493   -0.6651   -2.1630 H   0  0  0  1  0  0  0  0  0  0  0  0
    7.1401   -0.0914   -1.4063 H   0  0  0  1  0  0  0  0  0  0  0  0
    7.4196    1.7705    0.0322 H   0  0  0  1  0  0  0  0  0  0  0  0
    6.0183    1.3559    0.9907 H   0  0  0  1  0  0  0  0  0  0  0  0
    6.0858    2.4516   -1.8278 H   0  0  0  1  0  0  0  0  0  0  0  0
    5.1529    3.0395   -0.4720 H   0  0  0  1  0  0  0  0  0  0  0  0
    5.9976   -1.0107    1.0951 H   0  0  0  1  0  0  0  0  0  0  0  0
    7.5645   -0.8963    0.7914 H   0  0  0  1  0  0  0  0  0  0  0  0
  1  2  4  0  0  0  0
  1  6  4  0  0  0  0
  2  3  4  0  0  0  0
  2 18  1  0  0  0  0
  3  4  4  0  0  0  0
  4  5  4  0  0  0  0
  4  7  4  0  0  0  0
  5  6  4  0  0  0  0
  5  9  4  0  0  0  0
  6 25  1  0  0  0  0
  7  8  4  0  0  0  0
  7 26  1  0  0  0  0
  8  9  4  0  0  0  0
  9 10  1  0  0  0  0
 10 11  4  0  0  0  0
 10 15  4  0  0  0  0
 11 12  4  0  0  0  0
 11 27  1  0  0  0  0
 12 13  4  0  0  0  0
 12 28  1  0  0  0  0
 13 14  4  0  0  0  0
 13 16  1  0  0  0  0
 14 15  4  0  0  0  0
 14 29  1  0  0  0  0
 15 30  1  0  0  0  0
 16 17  1  0  0  0  0
 17 31  1  0  0  0  0
 17 32  1  0  0  0  0
 17 33  1  0  0  0  0
 18 19  1  0  0  0  0
 18 34  1  0  0  0  0
 19 20  1  0  0  0  0
 19 23  1  0  0  0  0
 19 35  1  0  0  0  0
 20 21  1  0  0  0  0
 20 36  1  0  0  0  0
 20 37  1  0  0  0  0
 21 22  1  0  0  0  0
 21 24  1  0  0  0  0
 21 38  1  0  0  0  0
 22 23  1  0  0  0  0
 22 39  1  0  0  0  0
 22 40  1  0  0  0  0
 23 41  1  0  0  0  0
 23 42  1  0  0  0  0
 24 43  1  0  0  0  0
 24 44  1  0  0  0  0
M  END
> <ConfClashScore>
0 

> <ConfOneFourInteractionScore>
-0.984337 

> <ConfScore>
-0.0445139 

> <ConfScorePBest>
0.00355325 

> <ConfTolerance>
0.398562 

$$$$
c13.sdf
 OpenBabel04162418043D

 44 47  0  0  0  0  0  0  0  0999 V2000
    2.1018    1.5508   -4.0229 N   0  0  0  1  0  0  0  0  0  0  0  0
    2.5071    1.4429   -2.7689 C   0  0  0  1  0  0  0  0  0  0  0  0
    1.6707    1.4285   -1.7563 N   0  0  0  1  0  0  0  0  0  0  0  0
    0.3553    1.5245   -1.9661 C   0  0  0  1  0  0  0  0  0  0  0  0
   -0.1132    1.6410   -3.2922 C   0  0  0  1  0  0  0  0  0  0  0  0
    0.8192    1.6508   -4.3254 C   0  0  0  1  0  0  0  0  0  0  0  0
   -0.7818    1.5404   -1.1289 C   0  0  0  1  0  0  0  0  0  0  0  0
   -1.8464    1.6557   -1.8709 N   0  0  0  1  0  0  0  0  0  0  0  0
   -1.4781    1.7216   -3.2210 N   0  0  0  1  0  0  0  0  0  0  0  0
   -2.4707    1.9886   -4.1927 C   0  0  0  1  0  0  0  0  0  0  0  0
   -2.1764    1.8531   -5.5363 C   0  0  0  1  0  0  0  0  0  0  0  0
   -3.1508    2.1096   -6.4883 C   0  0  0  1  0  0  0  0  0  0  0  0
   -4.4149    2.5060   -6.0943 C   0  0  0  1  0  0  0  0  0  0  0  0
   -4.7098    2.6418   -4.7466 C   0  0  0  1  0  0  0  0  0  0  0  0
   -3.7384    2.3861   -3.7973 C   0  0  0  1  0  0  0  0  0  0  0  0
   -5.3885    2.6682   -7.0214 O   0  0  0  1  0  0  0  0  0  0  0  0
   -5.0410    2.4078   -8.3903 C   0  0  0  1  0  0  0  0  0  0  0  0
    3.8463    1.3461   -2.5679 N   0  0  0  1  0  0  0  0  0  0  0  0
    4.4127    1.2171   -1.2313 C   0  0  0  1  0  0  0  0  0  0  0  0
    5.0265   -0.1620   -1.0480 C   0  0  0  1  0  0  0  0  0  0  0  0
    6.4806    0.0230   -0.5840 C   0  0  0  1  0  0  0  0  0  0  0  0
    6.5126    1.4658   -0.1110 C   0  0  0  1  0  0  0  0  0  0  0  0
    5.5650    2.2215   -1.0386 C   0  0  0  1  0  0  0  0  0  0  0  0
    6.8115   -0.9181    0.5369 N   0  0  0  1  0  0  0  0  0  0  0  0
    0.5127    1.7351   -5.3156 H   0  0  0  1  0  0  0  0  0  0  0  0
   -0.7711    1.4715   -0.0912 H   0  0  0  1  0  0  0  0  0  0  0  0
   -1.2241    1.5587   -5.8330 H   0  0  0  1  0  0  0  0  0  0  0  0
   -2.9306    2.0038   -7.4992 H   0  0  0  1  0  0  0  0  0  0  0  0
   -5.6621    2.9362   -4.4499 H   0  0  0  1  0  0  0  0  0  0  0  0
   -3.9585    2.4919   -2.7864 H   0  0  0  1  0  0  0  0  0  0  0  0
   -5.8524    2.6955   -9.0257 H   0  0  0  1  0  0  0  0  0  0  0  0
   -4.8432    1.3637   -8.5155 H   0  0  0  1  0  0  0  0  0  0  0  0
   -4.1685    2.9702   -8.6498 H   0  0  0  1  0  0  0  0  0  0  0  0
    4.4476    1.3633   -3.3415 H   0  0  0  1  0  0  0  0  0  0  0  0
    3.6480    1.3839   -0.5017 H   0  0  0  1  0  0  0  0  0  0  0  0
    4.4769   -0.7088   -0.3105 H   0  0  0  1  0  0  0  0  0  0  0  0
    5.0065   -0.6945   -1.9759 H   0  0  0  1  0  0  0  0  0  0  0  0
    7.1639   -0.1308   -1.3930 H   0  0  0  1  0  0  0  0  0  0  0  0
    7.5038    1.8617   -0.1863 H   0  0  0  1  0  0  0  0  0  0  0  0
    6.1767    1.5342    0.9026 H   0  0  0  1  0  0  0  0  0  0  0  0
    5.2176    3.1252   -0.5830 H   0  0  0  1  0  0  0  0  0  0  0  0
    6.0378    2.4503   -1.9708 H   0  0  0  1  0  0  0  0  0  0  0  0
    6.7382   -1.8427    0.2202 H   0  0  0  1  0  0  0  0  0  0  0  0
    6.1859   -0.7763    1.2777 H   0  0  0  1  0  0  0  0  0  0  0  0
  1  2  4  0  0  0  0
  1  6  4  0  0  0  0
  2  3  4  0  0  0  0
  2 18  1  0  0  0  0
  3  4  4  0  0  0  0
  4  5  4  0  0  0  0
  4  7  4  0  0  0  0
  5  6  4  0  0  0  0
  5  9  4  0  0  0  0
  6 25  1  0  0  0  0
  7  8  4  0  0  0  0
  7 26  1  0  0  0  0
  8  9  4  0  0  0  0
  9 10  1  0  0  0  0
 10 11  4  0  0  0  0
 10 15  4  0  0  0  0
 11 12  4  0  0  0  0
 11 27  1  0  0  0  0
 12 13  4  0  0  0  0
 12 28  1  0  0  0  0
 13 14  4  0  0  0  0
 13 16  1  0  0  0  0
 14 15  4  0  0  0  0
 14 29  1  0  0  0  0
 15 30  1  0  0  0  0
 16 17  1  0  0  0  0
 17 31  1  0  0  0  0
 17 32  1  0  0  0  0
 17 33  1  0  0  0  0
 18 19  1  0  0  0  0
 18 34  1  0  0  0  0
 19 20  1  0  0  0  0
 19 23  1  0  0  0  0
 19 35  1  0  0  0  0
 20 21  1  0  0  0  0
 20 36  1  0  0  0  0
 20 37  1  0  0  0  0
 21 22  1  0  0  0  0
 21 24  1  0  0  0  0
 21 38  1  0  0  0  0
 22 23  1  0  0  0  0
 22 39  1  0  0  0  0
 22 40  1  0  0  0  0
 23 41  1  0  0  0  0
 23 42  1  0  0  0  0
 24 43  1  0  0  0  0
 24 44  1  0  0  0  0
M  END
> <ConfClashScore>
0 

> <ConfOneFourInteractionScore>
-0.984337 

> <ConfScore>
-0.0441625 

> <ConfScorePBest>
0.00353992 

> <ConfTolerance>
0.342564 

$$$$
c13.sdf
 OpenBabel04162418043D

 44 47  0  0  0  0  0  0  0  0999 V2000
    5.1166    1.8378   -5.1335 N   0  0  0  1  0  0  0  0  0  0  0  0
    4.8580    2.1044   -3.8645 C   0  0  0  1  0  0  0  0  0  0  0  0
    4.6902    3.3293   -3.4213 N   0  0  0  1  0  0  0  0  0  0  0  0
    4.7776    4.3673   -4.2570 C   0  0  0  1  0  0  0  0  0  0  0  0
    5.0525    4.1201   -5.6189 C   0  0  0  1  0  0  0  0  0  0  0  0
    5.2209    2.8017   -6.0317 C   0  0  0  1  0  0  0  0  0  0  0  0
    4.6547    5.7667   -4.1131 C   0  0  0  1  0  0  0  0  0  0  0  0
    4.8368    6.3247   -5.2762 N   0  0  0  1  0  0  0  0  0  0  0  0
    5.0869    5.3395   -6.2404 N   0  0  0  1  0  0  0  0  0  0  0  0
    5.4079    5.7010   -7.5645 C   0  0  0  1  0  0  0  0  0  0  0  0
    5.0121    6.9030   -8.1202 C   0  0  0  1  0  0  0  0  0  0  0  0
    5.3600    7.2104   -9.4263 C   0  0  0  1  0  0  0  0  0  0  0  0
    6.0981    6.3128  -10.1746 C   0  0  0  1  0  0  0  0  0  0  0  0
    6.4950    5.1074   -9.6171 C   0  0  0  1  0  0  0  0  0  0  0  0
    6.1481    4.8007   -8.3148 C   0  0  0  1  0  0  0  0  0  0  0  0
    6.3522    6.5657  -11.4771 O   0  0  0  1  0  0  0  0  0  0  0  0
    6.0299    7.8645  -12.0265 C   0  0  0  1  0  0  0  0  0  0  0  0
    4.7628    1.0836   -2.9936 N   0  0  0  1  0  0  0  0  0  0  0  0
    4.5004    1.1878   -1.5573 C   0  0  0  1  0  0  0  0  0  0  0  0
    4.8121   -0.1721   -0.8538 C   0  0  0  1  0  0  0  0  0  0  0  0
    6.3325    0.0123   -0.4890 C   0  0  0  1  0  0  0  0  0  0  0  0
    6.3781    1.4623   -0.0267 C   0  0  0  1  0  0  0  0  0  0  0  0
    5.4234    2.2334   -0.9280 C   0  0  0  1  0  0  0  0  0  0  0  0
    6.7380   -0.9051    0.5898 N   0  0  0  1  0  0  0  0  0  0  0  0
    5.4247    2.5794   -7.0271 H   0  0  0  1  0  0  0  0  0  0  0  0
    4.4522    6.2690   -3.2252 H   0  0  0  1  0  0  0  0  0  0  0  0
    4.4533    7.5767   -7.5586 H   0  0  0  1  0  0  0  0  0  0  0  0
    5.0656    8.1166   -9.8433 H   0  0  0  1  0  0  0  0  0  0  0  0
    7.0538    4.4336  -10.1787 H   0  0  0  1  0  0  0  0  0  0  0  0
    6.4425    3.8946   -7.8978 H   0  0  0  1  0  0  0  0  0  0  0  0
    4.9673    7.9688  -12.0969 H   0  0  0  1  0  0  0  0  0  0  0  0
    6.4623    7.9566  -13.0009 H   0  0  0  1  0  0  0  0  0  0  0  0
    6.4215    8.6287  -11.3882 H   0  0  0  1  0  0  0  0  0  0  0  0
    4.8809    0.1810   -3.3565 H   0  0  0  1  0  0  0  0  0  0  0  0
    3.4770    1.4577   -1.3999 H   0  0  0  1  0  0  0  0  0  0  0  0
    4.2125   -0.3065    0.0222 H   0  0  0  1  0  0  0  0  0  0  0  0
    4.6658   -0.9989   -1.5170 H   0  0  0  1  0  0  0  0  0  0  0  0
    6.9580   -0.1423   -1.3432 H   0  0  0  1  0  0  0  0  0  0  0  0
    7.3709    1.8498   -0.1225 H   0  0  0  1  0  0  0  0  0  0  0  0
    6.0632    1.5351    0.9934 H   0  0  0  1  0  0  0  0  0  0  0  0
    5.9683    2.7536   -1.6878 H   0  0  0  1  0  0  0  0  0  0  0  0
    4.8542    2.9340   -0.3535 H   0  0  0  1  0  0  0  0  0  0  0  0
    7.6823   -0.7581    0.8066 H   0  0  0  1  0  0  0  0  0  0  0  0
    6.6110   -1.8313    0.2956 H   0  0  0  1  0  0  0  0  0  0  0  0
  1  2  4  0  0  0  0
  1  6  4  0  0  0  0
  2  3  4  0  0  0  0
  2 18  1  0  0  0  0
  3  4  4  0  0  0  0
  4  5  4  0  0  0  0
  4  7  4  0  0  0  0
  5  6  4  0  0  0  0
  5  9  4  0  0  0  0
  6 25  1  0  0  0  0
  7  8  4  0  0  0  0
  7 26  1  0  0  0  0
  8  9  4  0  0  0  0
  9 10  1  0  0  0  0
 10 11  4  0  0  0  0
 10 15  4  0  0  0  0
 11 12  4  0  0  0  0
 11 27  1  0  0  0  0
 12 13  4  0  0  0  0
 12 28  1  0  0  0  0
 13 14  4  0  0  0  0
 13 16  1  0  0  0  0
 14 15  4  0  0  0  0
 14 29  1  0  0  0  0
 15 30  1  0  0  0  0
 16 17  1  0  0  0  0
 17 31  1  0  0  0  0
 17 32  1  0  0  0  0
 17 33  1  0  0  0  0
 18 19  1  0  0  0  0
 18 34  1  0  0  0  0
 19 20  1  0  0  0  0
 19 23  1  0  0  0  0
 19 35  1  0  0  0  0
 20 21  1  0  0  0  0
 20 36  1  0  0  0  0
 20 37  1  0  0  0  0
 21 22  1  0  0  0  0
 21 24  1  0  0  0  0
 21 38  1  0  0  0  0
 22 23  1  0  0  0  0
 22 39  1  0  0  0  0
 22 40  1  0  0  0  0
 23 41  1  0  0  0  0
 23 42  1  0  0  0  0
 24 43  1  0  0  0  0
 24 44  1  0  0  0  0
M  END
> <ConfClashScore>
0 

> <ConfOneFourInteractionScore>
-0.985399 

> <ConfScore>
-0.0435206 

> <ConfScorePBest>
0.00352659 

> <ConfTolerance>
0.289888 

$$$$
c13.sdf
 OpenBabel04162418043D

 44 47  0  0  0  0  0  0  0  0999 V2000
    3.0271    3.5130   -1.5088 N   0  0  0  1  0  0  0  0  0  0  0  0
    2.8577    2.5831   -2.4334 C   0  0  0  1  0  0  0  0  0  0  0  0
    2.0506    2.7451   -3.4569 N   0  0  0  1  0  0  0  0  0  0  0  0
    1.3602    3.8794   -3.5990 C   0  0  0  1  0  0  0  0  0  0  0  0
    1.5165    4.8941   -2.6308 C   0  0  0  1  0  0  0  0  0  0  0  0
    2.3855    4.6669   -1.5677 C   0  0  0  1  0  0  0  0  0  0  0  0
    0.4363    4.3628   -4.5512 C   0  0  0  1  0  0  0  0  0  0  0  0
    0.0615    5.5602   -4.2003 N   0  0  0  1  0  0  0  0  0  0  0  0
    0.7074    5.9302   -3.0134 N   0  0  0  1  0  0  0  0  0  0  0  0
    0.4671    7.1999   -2.4188 C   0  0  0  1  0  0  0  0  0  0  0  0
   -0.8057    7.6328   -2.0980 C   0  0  0  1  0  0  0  0  0  0  0  0
   -0.9808    8.8337   -1.4282 C   0  0  0  1  0  0  0  0  0  0  0  0
    0.1168    9.6007   -1.0858 C   0  0  0  1  0  0  0  0  0  0  0  0
    1.3933    9.1664   -1.4076 C   0  0  0  1  0  0  0  0  0  0  0  0
    1.5681    7.9690   -2.0755 C   0  0  0  1  0  0  0  0  0  0  0  0
   -0.0548   10.7764   -0.4360 O   0  0  0  1  0  0  0  0  0  0  0  0
    1.1278   11.5177   -0.0976 C   0  0  0  1  0  0  0  0  0  0  0  0
    3.5367    1.4271   -2.3230 N   0  0  0  1  0  0  0  0  0  0  0  0
    4.3804    1.0819   -1.1759 C   0  0  0  1  0  0  0  0  0  0  0  0
    5.2851   -0.1569   -1.4890 C   0  0  0  1  0  0  0  0  0  0  0  0
    6.4311   -0.0074   -0.4714 C   0  0  0  1  0  0  0  0  0  0  0  0
    6.5885    1.5240   -0.1715 C   0  0  0  1  0  0  0  0  0  0  0  0
    5.4174    2.1771   -0.8986 C   0  0  0  1  0  0  0  0  0  0  0  0
    6.0982   -0.7439    0.7866 N   0  0  0  1  0  0  0  0  0  0  0  0
    2.5271    5.3906   -0.8343 H   0  0  0  1  0  0  0  0  0  0  0  0
    0.1090    3.8480   -5.3934 H   0  0  0  1  0  0  0  0  0  0  0  0
   -1.6319    7.0577   -2.3592 H   0  0  0  1  0  0  0  0  0  0  0  0
   -1.9383    9.1576   -1.1833 H   0  0  0  1  0  0  0  0  0  0  0  0
    2.2195    9.7415   -1.1464 H   0  0  0  1  0  0  0  0  0  0  0  0
    2.5255    7.6451   -2.3204 H   0  0  0  1  0  0  0  0  0  0  0  0
    1.6045   11.8581   -0.9930 H   0  0  0  1  0  0  0  0  0  0  0  0
    1.7999   10.8876    0.4466 H   0  0  0  1  0  0  0  0  0  0  0  0
    0.8601   12.3598    0.5059 H   0  0  0  1  0  0  0  0  0  0  0  0
    3.4628    0.7775   -3.0530 H   0  0  0  1  0  0  0  0  0  0  0  0
    3.7639    0.9055   -0.3193 H   0  0  0  1  0  0  0  0  0  0  0  0
    5.6539   -0.1210   -2.4928 H   0  0  0  1  0  0  0  0  0  0  0  0
    4.7517   -1.0720   -1.3370 H   0  0  0  1  0  0  0  0  0  0  0  0
    7.3394   -0.3955   -0.8827 H   0  0  0  1  0  0  0  0  0  0  0  0
    7.5201    1.8897   -0.5501 H   0  0  0  1  0  0  0  0  0  0  0  0
    6.5324    1.7112    0.8805 H   0  0  0  1  0  0  0  0  0  0  0  0
    4.9870    2.9412   -0.2856 H   0  0  0  1  0  0  0  0  0  0  0  0
    5.7524    2.6050   -1.8204 H   0  0  0  1  0  0  0  0  0  0  0  0
    6.8531   -0.6863    1.4089 H   0  0  0  1  0  0  0  0  0  0  0  0
    5.9192   -1.6843    0.5767 H   0  0  0  1  0  0  0  0  0  0  0  0
  1  2  4  0  0  0  0
  1  6  4  0  0  0  0
  2  3  4  0  0  0  0
  2 18  1  0  0  0  0
  3  4  4  0  0  0  0
  4  5  4  0  0  0  0
  4  7  4  0  0  0  0
  5  6  4  0  0  0  0
  5  9  4  0  0  0  0
  6 25  1  0  0  0  0
  7  8  4  0  0  0  0
  7 26  1  0  0  0  0
  8  9  4  0  0  0  0
  9 10  1  0  0  0  0
 10 11  4  0  0  0  0
 10 15  4  0  0  0  0
 11 12  4  0  0  0  0
 11 27  1  0  0  0  0
 12 13  4  0  0  0  0
 12 28  1  0  0  0  0
 13 14  4  0  0  0  0
 13 16  1  0  0  0  0
 14 15  4  0  0  0  0
 14 29  1  0  0  0  0
 15 30  1  0  0  0  0
 16 17  1  0  0  0  0
 17 31  1  0  0  0  0
 17 32  1  0  0  0  0
 17 33  1  0  0  0  0
 18 19  1  0  0  0  0
 18 34  1  0  0  0  0
 19 20  1  0  0  0  0
 19 23  1  0  0  0  0
 19 35  1  0  0  0  0
 20 21  1  0  0  0  0
 20 36  1  0  0  0  0
 20 37  1  0  0  0  0
 21 22  1  0  0  0  0
 21 24  1  0  0  0  0
 21 38  1  0  0  0  0
 22 23  1  0  0  0  0
 22 39  1  0  0  0  0
 22 40  1  0  0  0  0
 23 41  1  0  0  0  0
 23 42  1  0  0  0  0
 24 43  1  0  0  0  0
 24 44  1  0  0  0  0
M  END
> <ConfClashScore>
0 

> <ConfOneFourInteractionScore>
-0.985399 

> <ConfScore>
-0.042585 

> <ConfScorePBest>
0.00351326 

> <ConfTolerance>
0.308845 

$$$$
c13.sdf
 OpenBabel04162418043D

 44 47  0  0  0  0  0  0  0  0999 V2000
    4.0535    2.1656   -5.0357 N   0  0  0  1  0  0  0  0  0  0  0  0
    3.9318    2.1465   -3.7192 C   0  0  0  1  0  0  0  0  0  0  0  0
    3.1459    2.9760   -3.0716 N   0  0  0  1  0  0  0  0  0  0  0  0
    2.4291    3.8852   -3.7373 C   0  0  0  1  0  0  0  0  0  0  0  0
    2.5342    3.9343   -5.1437 C   0  0  0  1  0  0  0  0  0  0  0  0
    3.3827    3.0305   -5.7764 C   0  0  0  1  0  0  0  0  0  0  0  0
    1.5161    4.8945   -3.3609 C   0  0  0  1  0  0  0  0  0  0  0  0
    1.1007    5.5047   -4.4345 N   0  0  0  1  0  0  0  0  0  0  0  0
    1.7072    4.9410   -5.5646 N   0  0  0  1  0  0  0  0  0  0  0  0
    1.3781    5.3461   -6.8667 C   0  0  0  1  0  0  0  0  0  0  0  0
    0.3446    6.2589   -6.9603 C   0  0  0  1  0  0  0  0  0  0  0  0
   -0.0554    6.7277   -8.2020 C   0  0  0  1  0  0  0  0  0  0  0  0
    0.5757    6.2785   -9.3466 C   0  0  0  1  0  0  0  0  0  0  0  0
    1.6123    5.3629   -9.2525 C   0  0  0  1  0  0  0  0  0  0  0  0
    2.0112    4.8953   -8.0145 C   0  0  0  1  0  0  0  0  0  0  0  0
    0.2302    6.6926  -10.5888 O   0  0  0  1  0  0  0  0  0  0  0  0
   -0.8145    7.6732  -10.6866 C   0  0  0  1  0  0  0  0  0  0  0  0
    4.6588    1.2188   -2.9955 N   0  0  0  1  0  0  0  0  0  0  0  0
    4.4878    1.1991   -1.5392 C   0  0  0  1  0  0  0  0  0  0  0  0
    4.8657   -0.1742   -0.9732 C   0  0  0  1  0  0  0  0  0  0  0  0
    6.3519   -0.0619   -0.6328 C   0  0  0  1  0  0  0  0  0  0  0  0
    6.4441    1.3558   -0.0633 C   0  0  0  1  0  0  0  0  0  0  0  0
    5.4490    2.1911   -0.8722 C   0  0  0  1  0  0  0  0  0  0  0  0
    6.7502   -1.0717    0.3732 N   0  0  0  1  0  0  0  0  0  0  0  0
    3.4869    3.0358   -6.8111 H   0  0  0  1  0  0  0  0  0  0  0  0
    1.2236    5.1145   -2.3875 H   0  0  0  1  0  0  0  0  0  0  0  0
   -0.1330    6.5939   -6.0994 H   0  0  0  1  0  0  0  0  0  0  0  0
   -0.8304    7.4176   -8.2723 H   0  0  0  1  0  0  0  0  0  0  0  0
    2.0899    5.0279  -10.1134 H   0  0  0  1  0  0  0  0  0  0  0  0
    2.7862    4.2054   -7.9442 H   0  0  0  1  0  0  0  0  0  0  0  0
   -1.5630    7.4725   -9.9488 H   0  0  0  1  0  0  0  0  0  0  0  0
   -1.2540    7.6297  -11.6612 H   0  0  0  1  0  0  0  0  0  0  0  0
   -0.4048    8.6480  -10.5227 H   0  0  0  1  0  0  0  0  0  0  0  0
    5.2686    0.5946   -3.4416 H   0  0  0  1  0  0  0  0  0  0  0  0
    3.4738    1.4385   -1.2953 H   0  0  0  1  0  0  0  0  0  0  0  0
    4.2935   -0.3901   -0.0952 H   0  0  0  1  0  0  0  0  0  0  0  0
    4.7033   -0.9399   -1.7027 H   0  0  0  1  0  0  0  0  0  0  0  0
    6.9596   -0.1695   -1.5068 H   0  0  0  1  0  0  0  0  0  0  0  0
    7.4356    1.7408   -0.1793 H   0  0  0  1  0  0  0  0  0  0  0  0
    6.1785    1.3596    0.9733 H   0  0  0  1  0  0  0  0  0  0  0  0
    5.9647    2.7624   -1.6156 H   0  0  0  1  0  0  0  0  0  0  0  0
    4.9090    2.8509   -0.2257 H   0  0  0  1  0  0  0  0  0  0  0  0
    6.1933   -0.9734    1.1736 H   0  0  0  1  0  0  0  0  0  0  0  0
    7.6915   -0.9407    0.6123 H   0  0  0  1  0  0  0  0  0  0  0  0
  1  2  4  0  0  0  0
  1  6  4  0  0  0  0
  2  3  4  0  0  0  0
  2 18  1  0  0  0  0
  3  4  4  0  0  0  0
  4  5  4  0  0  0  0
  4  7  4  0  0  0  0
  5  6  4  0  0  0  0
  5  9  4  0  0  0  0
  6 25  1  0  0  0  0
  7  8  4  0  0  0  0
  7 26  1  0  0  0  0
  8  9  4  0  0  0  0
  9 10  1  0  0  0  0
 10 11  4  0  0  0  0
 10 15  4  0  0  0  0
 11 12  4  0  0  0  0
 11 27  1  0  0  0  0
 12 13  4  0  0  0  0
 12 28  1  0  0  0  0
 13 14  4  0  0  0  0
 13 16  1  0  0  0  0
 14 15  4  0  0  0  0
 14 29  1  0  0  0  0
 15 30  1  0  0  0  0
 16 17  1  0  0  0  0
 17 31  1  0  0  0  0
 17 32  1  0  0  0  0
 17 33  1  0  0  0  0
 18 19  1  0  0  0  0
 18 34  1  0  0  0  0
 19 20  1  0  0  0  0
 19 23  1  0  0  0  0
 19 35  1  0  0  0  0
 20 21  1  0  0  0  0
 20 36  1  0  0  0  0
 20 37  1  0  0  0  0
 21 22  1  0  0  0  0
 21 24  1  0  0  0  0
 21 38  1  0  0  0  0
 22 23  1  0  0  0  0
 22 39  1  0  0  0  0
 22 40  1  0  0  0  0
 23 41  1  0  0  0  0
 23 42  1  0  0  0  0
 24 43  1  0  0  0  0
 24 44  1  0  0  0  0
M  END
> <ConfClashScore>
0 

> <ConfOneFourInteractionScore>
-0.984337 

> <ConfScore>
-0.041071 

> <ConfScorePBest>
0.00349994 

> <ConfTolerance>
0.343417 

$$$$
c13.sdf
 OpenBabel04162418043D

 44 47  0  0  0  0  0  0  0  0999 V2000
    4.2598    1.1771   -5.2602 N   0  0  0  1  0  0  0  0  0  0  0  0
    3.9375    0.9768   -3.9936 C   0  0  0  1  0  0  0  0  0  0  0  0
    2.7582    0.5287   -3.6284 N   0  0  0  1  0  0  0  0  0  0  0  0
    1.8266    0.2550   -4.5454 C   0  0  0  1  0  0  0  0  0  0  0  0
    2.1359    0.4568   -5.9073 C   0  0  0  1  0  0  0  0  0  0  0  0
    3.4016    0.9336   -6.2354 C   0  0  0  1  0  0  0  0  0  0  0  0
    0.4996   -0.2252   -4.4951 C   0  0  0  1  0  0  0  0  0  0  0  0
    0.0388   -0.3099   -5.7108 N   0  0  0  1  0  0  0  0  0  0  0  0
    1.0214    0.1038   -6.6199 N   0  0  0  1  0  0  0  0  0  0  0  0
    0.7648    0.1048   -8.0192 C   0  0  0  1  0  0  0  0  0  0  0  0
    0.3159    1.2559   -8.6385 C   0  0  0  1  0  0  0  0  0  0  0  0
    0.0710    1.2584  -10.0029 C   0  0  0  1  0  0  0  0  0  0  0  0
    0.2707    0.1083  -10.7430 C   0  0  0  1  0  0  0  0  0  0  0  0
    0.7210   -1.0462  -10.1217 C   0  0  0  1  0  0  0  0  0  0  0  0
    0.9651   -1.0487   -8.7613 C   0  0  0  1  0  0  0  0  0  0  0  0
    0.0277    0.1093  -12.0681 O   0  0  0  1  0  0  0  0  0  0  0  0
   -0.5747    1.3212  -12.5791 C   0  0  0  1  0  0  0  0  0  0  0  0
    4.8637    1.2455   -3.0287 N   0  0  0  1  0  0  0  0  0  0  0  0
    4.5291    1.1903   -1.6048 C   0  0  0  1  0  0  0  0  0  0  0  0
    4.9253   -0.1667   -1.0128 C   0  0  0  1  0  0  0  0  0  0  0  0
    6.3527    0.0306   -0.5020 C   0  0  0  1  0  0  0  0  0  0  0  0
    6.2896    1.4413    0.0886 C   0  0  0  1  0  0  0  0  0  0  0  0
    5.3433    2.2279   -0.8214 C   0  0  0  1  0  0  0  0  0  0  0  0
    6.6958   -0.9703    0.5333 N   0  0  0  1  0  0  0  0  0  0  0  0
    3.6668    1.0950   -7.2280 H   0  0  0  1  0  0  0  0  0  0  0  0
   -0.0235   -0.4708   -3.6305 H   0  0  0  1  0  0  0  0  0  0  0  0
    0.1618    2.1202   -8.0809 H   0  0  0  1  0  0  0  0  0  0  0  0
   -0.2630    2.1256  -10.4696 H   0  0  0  1  0  0  0  0  0  0  0  0
    0.8751   -1.9104  -10.6793 H   0  0  0  1  0  0  0  0  0  0  0  0
    1.2991   -1.9160   -8.2946 H   0  0  0  1  0  0  0  0  0  0  0  0
    0.1604    2.0979  -12.6148 H   0  0  0  1  0  0  0  0  0  0  0  0
   -1.3768    1.6189  -11.9365 H   0  0  0  1  0  0  0  0  0  0  0  0
   -0.9533    1.1432  -13.5639 H   0  0  0  1  0  0  0  0  0  0  0  0
    5.7766    1.4815   -3.2958 H   0  0  0  1  0  0  0  0  0  0  0  0
    3.4809    1.3629   -1.4773 H   0  0  0  1  0  0  0  0  0  0  0  0
    4.8960   -0.9282   -1.7639 H   0  0  0  1  0  0  0  0  0  0  0  0
    4.2710   -0.4324   -0.2090 H   0  0  0  1  0  0  0  0  0  0  0  0
    7.0621   -0.0244   -1.3011 H   0  0  0  1  0  0  0  0  0  0  0  0
    7.2618    1.8883    0.0917 H   0  0  0  1  0  0  0  0  0  0  0  0
    5.9073    1.4109    1.0875 H   0  0  0  1  0  0  0  0  0  0  0  0
    4.6923    2.8420   -0.2349 H   0  0  0  1  0  0  0  0  0  0  0  0
    5.9038    2.8424   -1.4945 H   0  0  0  1  0  0  0  0  0  0  0  0
    7.5350   -0.7146    0.9701 H   0  0  0  1  0  0  0  0  0  0  0  0
    6.8006   -1.8501    0.1146 H   0  0  0  1  0  0  0  0  0  0  0  0
  1  2  4  0  0  0  0
  1  6  4  0  0  0  0
  2  3  4  0  0  0  0
  2 18  1  0  0  0  0
  3  4  4  0  0  0  0
  4  5  4  0  0  0  0
  4  7  4  0  0  0  0
  5  6  4  0  0  0  0
  5  9  4  0  0  0  0
  6 25  1  0  0  0  0
  7  8  4  0  0  0  0
  7 26  1  0  0  0  0
  8  9  4  0  0  0  0
  9 10  1  0  0  0  0
 10 11  4  0  0  0  0
 10 15  4  0  0  0  0
 11 12  4  0  0  0  0
 11 27  1  0  0  0  0
 12 13  4  0  0  0  0
 12 28  1  0  0  0  0
 13 14  4  0  0  0  0
 13 16  1  0  0  0  0
 14 15  4  0  0  0  0
 14 29  1  0  0  0  0
 15 30  1  0  0  0  0
 16 17  1  0  0  0  0
 17 31  1  0  0  0  0
 17 32  1  0  0  0  0
 17 33  1  0  0  0  0
 18 19  1  0  0  0  0
 18 34  1  0  0  0  0
 19 20  1  0  0  0  0
 19 23  1  0  0  0  0
 19 35  1  0  0  0  0
 20 21  1  0  0  0  0
 20 36  1  0  0  0  0
 20 37  1  0  0  0  0
 21 22  1  0  0  0  0
 21 24  1  0  0  0  0
 21 38  1  0  0  0  0
 22 23  1  0  0  0  0
 22 39  1  0  0  0  0
 22 40  1  0  0  0  0
 23 41  1  0  0  0  0
 23 42  1  0  0  0  0
 24 43  1  0  0  0  0
 24 44  1  0  0  0  0
M  END
> <ConfClashScore>
0 

> <ConfOneFourInteractionScore>
-0.990106 

> <ConfScore>
-0.0408641 

> <ConfScorePBest>
0.00348661 

> <ConfTolerance>
0.39438 

$$$$
c13.sdf
 OpenBabel04162418043D

 44 47  0  0  0  0  0  0  0  0999 V2000
    1.5675    1.5122   -3.5119 N   0  0  0  1  0  0  0  0  0  0  0  0
    2.2097    1.2652   -2.3828 C   0  0  0  1  0  0  0  0  0  0  0  0
    1.5913    0.8824   -1.2891 N   0  0  0  1  0  0  0  0  0  0  0  0
    0.2649    0.7272   -1.2829 C   0  0  0  1  0  0  0  0  0  0  0  0
   -0.4532    0.9820   -2.4706 C   0  0  0  1  0  0  0  0  0  0  0  0
    0.2549    1.3850   -3.5990 C   0  0  0  1  0  0  0  0  0  0  0  0
   -0.6816    0.3405   -0.3088 C   0  0  0  1  0  0  0  0  0  0  0  0
   -1.8675    0.3566   -0.8480 N   0  0  0  1  0  0  0  0  0  0  0  0
   -1.7728    0.7493   -2.1896 N   0  0  0  1  0  0  0  0  0  0  0  0
   -2.9629    0.8328   -2.9672 C   0  0  0  1  0  0  0  0  0  0  0  0
   -3.0119    0.2513   -4.2200 C   0  0  0  1  0  0  0  0  0  0  0  0
   -4.1721    0.3281   -4.9747 C   0  0  0  1  0  0  0  0  0  0  0  0
   -5.2781    0.9906   -4.4766 C   0  0  0  1  0  0  0  0  0  0  0  0
   -5.2288    1.5738   -3.2200 C   0  0  0  1  0  0  0  0  0  0  0  0
   -4.0720    1.4973   -2.4674 C   0  0  0  1  0  0  0  0  0  0  0  0
   -6.4761    1.1580   -5.0854 O   0  0  0  1  0  0  0  0  0  0  0  0
   -6.6210    0.6181   -6.4083 C   0  0  0  1  0  0  0  0  0  0  0  0
    3.5515    1.4117   -2.3515 N   0  0  0  1  0  0  0  0  0  0  0  0
    4.3851    1.0769   -1.1887 C   0  0  0  1  0  0  0  0  0  0  0  0
    5.2829   -0.1263   -1.4777 C   0  0  0  1  0  0  0  0  0  0  0  0
    6.4308   -0.0110   -0.4687 C   0  0  0  1  0  0  0  0  0  0  0  0
    6.5665    1.4891   -0.1784 C   0  0  0  1  0  0  0  0  0  0  0  0
    5.4082    2.1789   -0.9029 C   0  0  0  1  0  0  0  0  0  0  0  0
    6.1039   -0.7581    0.7826 N   0  0  0  1  0  0  0  0  0  0  0  0
   -0.2390    1.5822   -4.4928 H   0  0  0  1  0  0  0  0  0  0  0  0
   -0.4674    0.0851    0.6763 H   0  0  0  1  0  0  0  0  0  0  0  0
   -2.1784   -0.2438   -4.5965 H   0  0  0  1  0  0  0  0  0  0  0  0
   -4.2103   -0.1130   -5.9158 H   0  0  0  1  0  0  0  0  0  0  0  0
   -6.0623    2.0688   -2.8435 H   0  0  0  1  0  0  0  0  0  0  0  0
   -4.0338    1.9383   -1.5263 H   0  0  0  1  0  0  0  0  0  0  0  0
   -6.0650    1.2152   -7.1007 H   0  0  0  1  0  0  0  0  0  0  0  0
   -7.6549    0.6226   -6.6838 H   0  0  0  1  0  0  0  0  0  0  0  0
   -6.2510   -0.3858   -6.4261 H   0  0  0  1  0  0  0  0  0  0  0  0
    3.9958    1.7620   -3.1516 H   0  0  0  1  0  0  0  0  0  0  0  0
    3.7588    0.8989   -0.3396 H   0  0  0  1  0  0  0  0  0  0  0  0
    5.6566   -0.0853   -2.4795 H   0  0  0  1  0  0  0  0  0  0  0  0
    4.7456   -1.0403   -1.3340 H   0  0  0  1  0  0  0  0  0  0  0  0
    7.3375   -0.3949   -0.8874 H   0  0  0  1  0  0  0  0  0  0  0  0
    7.5024    1.8536   -0.5473 H   0  0  0  1  0  0  0  0  0  0  0  0
    6.5031    1.6689    0.8745 H   0  0  0  1  0  0  0  0  0  0  0  0
    4.9773    2.9361   -0.2816 H   0  0  0  1  0  0  0  0  0  0  0  0
    5.7486    2.6182   -1.8173 H   0  0  0  1  0  0  0  0  0  0  0  0
    6.8068   -0.6048    1.4481 H   0  0  0  1  0  0  0  0  0  0  0  0
    6.0450   -1.7161    0.5848 H   0  0  0  1  0  0  0  0  0  0  0  0
  1  2  4  0  0  0  0
  1  6  4  0  0  0  0
  2  3  4  0  0  0  0
  2 18  1  0  0  0  0
  3  4  4  0  0  0  0
  4  5  4  0  0  0  0
  4  7  4  0  0  0  0
  5  6  4  0  0  0  0
  5  9  4  0  0  0  0
  6 25  1  0  0  0  0
  7  8  4  0  0  0  0
  7 26  1  0  0  0  0
  8  9  4  0  0  0  0
  9 10  1  0  0  0  0
 10 11  4  0  0  0  0
 10 15  4  0  0  0  0
 11 12  4  0  0  0  0
 11 27  1  0  0  0  0
 12 13  4  0  0  0  0
 12 28  1  0  0  0  0
 13 14  4  0  0  0  0
 13 16  1  0  0  0  0
 14 15  4  0  0  0  0
 14 29  1  0  0  0  0
 15 30  1  0  0  0  0
 16 17  1  0  0  0  0
 17 31  1  0  0  0  0
 17 32  1  0  0  0  0
 17 33  1  0  0  0  0
 18 19  1  0  0  0  0
 18 34  1  0  0  0  0
 19 20  1  0  0  0  0
 19 23  1  0  0  0  0
 19 35  1  0  0  0  0
 20 21  1  0  0  0  0
 20 36  1  0  0  0  0
 20 37  1  0  0  0  0
 21 22  1  0  0  0  0
 21 24  1  0  0  0  0
 21 38  1  0  0  0  0
 22 23  1  0  0  0  0
 22 39  1  0  0  0  0
 22 40  1  0  0  0  0
 23 41  1  0  0  0  0
 23 42  1  0  0  0  0
 24 43  1  0  0  0  0
 24 44  1  0  0  0  0
M  END
> <ConfClashScore>
0 

> <ConfOneFourInteractionScore>
-0.984337 

> <ConfScore>
-0.0390292 

> <ConfScorePBest>
0.00347328 

> <ConfTolerance>
0.268231 

$$$$
c13.sdf
 OpenBabel04162418043D

 44 47  0  0  0  0  0  0  0  0999 V2000
    3.9860    0.2104   -4.9510 N   0  0  0  1  0  0  0  0  0  0  0  0
    3.8550    0.2248   -3.6354 C   0  0  0  1  0  0  0  0  0  0  0  0
    3.0751   -0.6160   -2.9952 N   0  0  0  1  0  0  0  0  0  0  0  0
    2.3742   -1.5324   -3.6679 C   0  0  0  1  0  0  0  0  0  0  0  0
    2.4897   -1.5769   -5.0736 C   0  0  0  1  0  0  0  0  0  0  0  0
    3.3311   -0.6611   -5.6983 C   0  0  0  1  0  0  0  0  0  0  0  0
    1.4713   -2.5539   -3.3001 C   0  0  0  1  0  0  0  0  0  0  0  0
    1.0710   -3.1667   -4.3778 N   0  0  0  1  0  0  0  0  0  0  0  0
    1.6782   -2.5928   -5.5025 N   0  0  0  1  0  0  0  0  0  0  0  0
    1.4384   -3.0473   -6.8276 C   0  0  0  1  0  0  0  0  0  0  0  0
    0.8878   -2.1913   -7.7626 C   0  0  0  1  0  0  0  0  0  0  0  0
    0.6590   -2.6329   -9.0564 C   0  0  0  1  0  0  0  0  0  0  0  0
    0.9764   -3.9308   -9.4101 C   0  0  0  1  0  0  0  0  0  0  0  0
    1.5287   -4.7892   -8.4721 C   0  0  0  1  0  0  0  0  0  0  0  0
    1.7569   -4.3490   -7.1820 C   0  0  0  1  0  0  0  0  0  0  0  0
    0.7943   -4.4744  -10.6369 O   0  0  0  1  0  0  0  0  0  0  0  0
    0.3470   -3.5981  -11.6831 C   0  0  0  1  0  0  0  0  0  0  0  0
    4.5556    1.1471   -2.9146 N   0  0  0  1  0  0  0  0  0  0  0  0
    4.4833    1.1977   -1.4508 C   0  0  0  1  0  0  0  0  0  0  0  0
    4.9231   -0.1399   -0.8454 C   0  0  0  1  0  0  0  0  0  0  0  0
    6.4265    0.0108   -0.6129 C   0  0  0  1  0  0  0  0  0  0  0  0
    6.5314    1.4564   -0.1209 C   0  0  0  1  0  0  0  0  0  0  0  0
    5.4693    2.2357   -0.9001 C   0  0  0  1  0  0  0  0  0  0  0  0
    6.9088   -0.9400    0.4102 N   0  0  0  1  0  0  0  0  0  0  0  0
    3.4424   -0.6626   -6.7323 H   0  0  0  1  0  0  0  0  0  0  0  0
    1.1748   -2.7798   -2.3291 H   0  0  0  1  0  0  0  0  0  0  0  0
    0.6452   -1.2159   -7.4955 H   0  0  0  1  0  0  0  0  0  0  0  0
    0.2484   -1.9876   -9.7611 H   0  0  0  1  0  0  0  0  0  0  0  0
    1.7713   -5.7646   -8.7392 H   0  0  0  1  0  0  0  0  0  0  0  0
    2.1675   -4.9942   -6.4773 H   0  0  0  1  0  0  0  0  0  0  0  0
   -0.6321   -3.2347  -11.4504 H   0  0  0  1  0  0  0  0  0  0  0  0
    0.3176   -4.1340  -12.6087 H   0  0  0  1  0  0  0  0  0  0  0  0
    1.0223   -2.7726  -11.7696 H   0  0  0  1  0  0  0  0  0  0  0  0
    5.1217    1.7925   -3.3872 H   0  0  0  1  0  0  0  0  0  0  0  0
    3.4840    1.4342   -1.1504 H   0  0  0  1  0  0  0  0  0  0  0  0
    4.4152   -0.3200    0.0790 H   0  0  0  1  0  0  0  0  0  0  0  0
    4.7256   -0.9434   -1.5239 H   0  0  0  1  0  0  0  0  0  0  0  0
    6.9759   -0.1314   -1.5200 H   0  0  0  1  0  0  0  0  0  0  0  0
    6.3361    1.5081    0.9299 H   0  0  0  1  0  0  0  0  0  0  0  0
    7.5058    1.8496   -0.3229 H   0  0  0  1  0  0  0  0  0  0  0  0
    4.9623    2.9190   -0.2513 H   0  0  0  1  0  0  0  0  0  0  0  0
    5.9235    2.7766   -1.7039 H   0  0  0  1  0  0  0  0  0  0  0  0
    6.7771   -1.8575    0.0920 H   0  0  0  1  0  0  0  0  0  0  0  0
    6.4070   -0.8076    1.2414 H   0  0  0  1  0  0  0  0  0  0  0  0
  1  2  4  0  0  0  0
  1  6  4  0  0  0  0
  2  3  4  0  0  0  0
  2 18  1  0  0  0  0
  3  4  4  0  0  0  0
  4  5  4  0  0  0  0
  4  7  4  0  0  0  0
  5  6  4  0  0  0  0
  5  9  4  0  0  0  0
  6 25  1  0  0  0  0
  7  8  4  0  0  0  0
  7 26  1  0  0  0  0
  8  9  4  0  0  0  0
  9 10  1  0  0  0  0
 10 11  4  0  0  0  0
 10 15  4  0  0  0  0
 11 12  4  0  0  0  0
 11 27  1  0  0  0  0
 12 13  4  0  0  0  0
 12 28  1  0  0  0  0
 13 14  4  0  0  0  0
 13 16  1  0  0  0  0
 14 15  4  0  0  0  0
 14 29  1  0  0  0  0
 15 30  1  0  0  0  0
 16 17  1  0  0  0  0
 17 31  1  0  0  0  0
 17 32  1  0  0  0  0
 17 33  1  0  0  0  0
 18 19  1  0  0  0  0
 18 34  1  0  0  0  0
 19 20  1  0  0  0  0
 19 23  1  0  0  0  0
 19 35  1  0  0  0  0
 20 21  1  0  0  0  0
 20 36  1  0  0  0  0
 20 37  1  0  0  0  0
 21 22  1  0  0  0  0
 21 24  1  0  0  0  0
 21 38  1  0  0  0  0
 22 23  1  0  0  0  0
 22 39  1  0  0  0  0
 22 40  1  0  0  0  0
 23 41  1  0  0  0  0
 23 42  1  0  0  0  0
 24 43  1  0  0  0  0
 24 44  1  0  0  0  0
M  END
> <ConfClashScore>
0 

> <ConfOneFourInteractionScore>
-0.981848 

> <ConfScore>
-0.038887 

> <ConfScorePBest>
0.00345995 

> <ConfTolerance>
0.23419 

$$$$
c13.sdf
 OpenBabel04162418043D

 44 47  0  0  0  0  0  0  0  0999 V2000
    2.7634    1.6845   -3.6224 N   0  0  0  1  0  0  0  0  0  0  0  0
    4.0516    1.6234   -3.9141 C   0  0  0  1  0  0  0  0  0  0  0  0
    4.5078    1.8009   -5.1329 N   0  0  0  1  0  0  0  0  0  0  0  0
    3.6661    2.0543   -6.1383 C   0  0  0  1  0  0  0  0  0  0  0  0
    2.2839    2.1269   -5.8635 C   0  0  0  1  0  0  0  0  0  0  0  0
    1.8579    1.9303   -4.5532 C   0  0  0  1  0  0  0  0  0  0  0  0
    3.8197    2.2880   -7.5225 C   0  0  0  1  0  0  0  0  0  0  0  0
    2.6435    2.4851   -8.0468 N   0  0  0  1  0  0  0  0  0  0  0  0
    1.6603    2.3940   -7.0528 N   0  0  0  1  0  0  0  0  0  0  0  0
    0.2976    2.5699   -7.3674 C   0  0  0  1  0  0  0  0  0  0  0  0
   -0.6068    1.5250   -7.3505 C   0  0  0  1  0  0  0  0  0  0  0  0
   -1.9375    1.7552   -7.6635 C   0  0  0  1  0  0  0  0  0  0  0  0
   -2.3587    3.0285   -7.9976 C   0  0  0  1  0  0  0  0  0  0  0  0
   -1.4514    4.0764   -8.0145 C   0  0  0  1  0  0  0  0  0  0  0  0
   -0.1246    3.8470   -7.7025 C   0  0  0  1  0  0  0  0  0  0  0  0
   -3.6148    3.2803   -8.4366 O   0  0  0  1  0  0  0  0  0  0  0  0
   -3.9755    4.6555   -8.6397 C   0  0  0  1  0  0  0  0  0  0  0  0
    4.9290    1.3699   -2.9265 N   0  0  0  1  0  0  0  0  0  0  0  0
    4.5497    1.1928   -1.5224 C   0  0  0  1  0  0  0  0  0  0  0  0
    4.9674   -0.1853   -1.0037 C   0  0  0  1  0  0  0  0  0  0  0  0
    6.4375   -0.0467   -0.6012 C   0  0  0  1  0  0  0  0  0  0  0  0
    6.7062    1.4551   -0.4421 C   0  0  0  1  0  0  0  0  0  0  0  0
    5.3412    2.1312   -0.6113 C   0  0  0  1  0  0  0  0  0  0  0  0
    6.6863   -0.7511    0.6826 N   0  0  0  1  0  0  0  0  0  0  0  0
    0.8474    1.9759   -4.3114 H   0  0  0  1  0  0  0  0  0  0  0  0
    4.7228    2.3006   -8.0382 H   0  0  0  1  0  0  0  0  0  0  0  0
   -0.2892    0.5662   -7.1030 H   0  0  0  1  0  0  0  0  0  0  0  0
   -2.6189    0.9698   -7.6468 H   0  0  0  1  0  0  0  0  0  0  0  0
   -1.7690    5.0353   -8.2620 H   0  0  0  1  0  0  0  0  0  0  0  0
    0.5569    4.6325   -7.7191 H   0  0  0  1  0  0  0  0  0  0  0  0
   -4.1121    5.1327   -7.6918 H   0  0  0  1  0  0  0  0  0  0  0  0
   -4.8865    4.7062   -9.1987 H   0  0  0  1  0  0  0  0  0  0  0  0
   -3.1969    5.1522   -9.1799 H   0  0  0  1  0  0  0  0  0  0  0  0
    5.8782    1.2994   -3.1600 H   0  0  0  1  0  0  0  0  0  0  0  0
    3.4960    1.3450   -1.4152 H   0  0  0  1  0  0  0  0  0  0  0  0
    4.3733   -0.4615   -0.1577 H   0  0  0  1  0  0  0  0  0  0  0  0
    4.8587   -0.9219   -1.7722 H   0  0  0  1  0  0  0  0  0  0  0  0
    7.0689   -0.4565   -1.3616 H   0  0  0  1  0  0  0  0  0  0  0  0
    7.3883    1.7951   -1.1932 H   0  0  0  1  0  0  0  0  0  0  0  0
    7.1095    1.6628    0.5269 H   0  0  0  1  0  0  0  0  0  0  0  0
    5.4514    3.0934   -1.0661 H   0  0  0  1  0  0  0  0  0  0  0  0
    4.8536    2.2372    0.3352 H   0  0  0  1  0  0  0  0  0  0  0  0
    6.4715   -1.7018    0.5811 H   0  0  0  1  0  0  0  0  0  0  0  0
    6.1221   -0.3619    1.3831 H   0  0  0  1  0  0  0  0  0  0  0  0
  1  2  4  0  0  0  0
  1  6  4  0  0  0  0
  2  3  4  0  0  0  0
  2 18  1  0  0  0  0
  3  4  4  0  0  0  0
  4  5  4  0  0  0  0
  4  7  4  0  0  0  0
  5  6  4  0  0  0  0
  5  9  4  0  0  0  0
  6 25  1  0  0  0  0
  7  8  4  0  0  0  0
  7 26  1  0  0  0  0
  8  9  4  0  0  0  0
  9 10  1  0  0  0  0
 10 11  4  0  0  0  0
 10 15  4  0  0  0  0
 11 12  4  0  0  0  0
 11 27  1  0  0  0  0
 12 13  4  0  0  0  0
 12 28  1  0  0  0  0
 13 14  4  0  0  0  0
 13 16  1  0  0  0  0
 14 15  4  0  0  0  0
 14 29  1  0  0  0  0
 15 30  1  0  0  0  0
 16 17  1  0  0  0  0
 17 31  1  0  0  0  0
 17 32  1  0  0  0  0
 17 33  1  0  0  0  0
 18 19  1  0  0  0  0
 18 34  1  0  0  0  0
 19 20  1  0  0  0  0
 19 23  1  0  0  0  0
 19 35  1  0  0  0  0
 20 21  1  0  0  0  0
 20 36  1  0  0  0  0
 20 37  1  0  0  0  0
 21 22  1  0  0  0  0
 21 24  1  0  0  0  0
 21 38  1  0  0  0  0
 22 23  1  0  0  0  0
 22 39  1  0  0  0  0
 22 40  1  0  0  0  0
 23 41  1  0  0  0  0
 23 42  1  0  0  0  0
 24 43  1  0  0  0  0
 24 44  1  0  0  0  0
M  END
> <ConfClashScore>
0 

> <ConfOneFourInteractionScore>
-0.984337 

> <ConfScore>
-0.0385484 

> <ConfScorePBest>
0.00344662 

> <ConfTolerance>
0.3852 

$$$$
c13.sdf
 OpenBabel04162418043D

 44 47  0  0  0  0  0  0  0  0999 V2000
    2.1202    3.0409   -3.2333 N   0  0  0  1  0  0  0  0  0  0  0  0
    2.8967    2.7078   -2.2162 C   0  0  0  1  0  0  0  0  0  0  0  0
    3.1000    3.5060   -1.1933 N   0  0  0  1  0  0  0  0  0  0  0  0
    2.5158    4.7061   -1.1471 C   0  0  0  1  0  0  0  0  0  0  0  0
    1.6801    5.0949   -2.2156 C   0  0  0  1  0  0  0  0  0  0  0  0
    1.5013    4.2080   -3.2732 C   0  0  0  1  0  0  0  0  0  0  0  0
    2.5217    5.7747   -0.2240 C   0  0  0  1  0  0  0  0  0  0  0  0
    1.7618    6.7283   -0.6828 N   0  0  0  1  0  0  0  0  0  0  0  0
    1.2187    6.3489   -1.9173 N   0  0  0  1  0  0  0  0  0  0  0  0
    0.3483    7.2221   -2.6301 C   0  0  0  1  0  0  0  0  0  0  0  0
    0.7477    7.7604   -3.8388 C   0  0  0  1  0  0  0  0  0  0  0  0
   -0.1016    8.6061   -4.5352 C   0  0  0  1  0  0  0  0  0  0  0  0
   -1.3456    8.9153   -4.0183 C   0  0  0  1  0  0  0  0  0  0  0  0
   -1.7460    8.3753   -2.8060 C   0  0  0  1  0  0  0  0  0  0  0  0
   -0.8993    7.5321   -2.1116 C   0  0  0  1  0  0  0  0  0  0  0  0
   -2.0839    9.7540   -4.7834 O   0  0  0  1  0  0  0  0  0  0  0  0
   -3.4072   10.0688   -4.3228 C   0  0  0  1  0  0  0  0  0  0  0  0
    3.5105    1.4895   -2.2286 N   0  0  0  1  0  0  0  0  0  0  0  0
    4.3899    1.0578   -1.1354 C   0  0  0  1  0  0  0  0  0  0  0  0
    5.2550   -0.1746   -1.5672 C   0  0  0  1  0  0  0  0  0  0  0  0
    6.4844   -0.0996   -0.6002 C   0  0  0  1  0  0  0  0  0  0  0  0
    6.6459    1.3978   -0.2143 C   0  0  0  1  0  0  0  0  0  0  0  0
    5.4379    2.1402   -0.8124 C   0  0  0  1  0  0  0  0  0  0  0  0
    6.2306   -0.9325    0.6331 N   0  0  0  1  0  0  0  0  0  0  0  0
    0.8931    4.4586   -4.0787 H   0  0  0  1  0  0  0  0  0  0  0  0
    3.0461    5.7968    0.6738 H   0  0  0  1  0  0  0  0  0  0  0  0
    1.6854    7.5310   -4.2258 H   0  0  0  1  0  0  0  0  0  0  0  0
    0.1973    9.0079   -5.4466 H   0  0  0  1  0  0  0  0  0  0  0  0
   -2.6837    8.6047   -2.4190 H   0  0  0  1  0  0  0  0  0  0  0  0
   -1.1981    7.1302   -1.2001 H   0  0  0  1  0  0  0  0  0  0  0  0
   -3.9573    9.1636   -4.1709 H   0  0  0  1  0  0  0  0  0  0  0  0
   -3.9056   10.6702   -5.0542 H   0  0  0  1  0  0  0  0  0  0  0  0
   -3.3449   10.6071   -3.4002 H   0  0  0  1  0  0  0  0  0  0  0  0
    3.3604    0.8870   -2.9868 H   0  0  0  1  0  0  0  0  0  0  0  0
    3.8005    0.8272   -0.2727 H   0  0  0  1  0  0  0  0  0  0  0  0
    4.7155   -1.0888   -1.4326 H   0  0  0  1  0  0  0  0  0  0  0  0
    5.5634   -0.0888   -2.5882 H   0  0  0  1  0  0  0  0  0  0  0  0
    7.3659   -0.4519   -1.0940 H   0  0  0  1  0  0  0  0  0  0  0  0
    6.6548    1.5054    0.8502 H   0  0  0  1  0  0  0  0  0  0  0  0
    7.5561    1.7872   -0.6203 H   0  0  0  1  0  0  0  0  0  0  0  0
    5.0439    2.8393   -0.1045 H   0  0  0  1  0  0  0  0  0  0  0  0
    5.7243    2.6578   -1.7040 H   0  0  0  1  0  0  0  0  0  0  0  0
    5.4303   -0.6020    1.0921 H   0  0  0  1  0  0  0  0  0  0  0  0
    7.0017   -0.8686    1.2345 H   0  0  0  1  0  0  0  0  0  0  0  0
  1  2  4  0  0  0  0
  1  6  4  0  0  0  0
  2  3  4  0  0  0  0
  2 18  1  0  0  0  0
  3  4  4  0  0  0  0
  4  5  4  0  0  0  0
  4  7  4  0  0  0  0
  5  6  4  0  0  0  0
  5  9  4  0  0  0  0
  6 25  1  0  0  0  0
  7  8  4  0  0  0  0
  7 26  1  0  0  0  0
  8  9  4  0  0  0  0
  9 10  1  0  0  0  0
 10 11  4  0  0  0  0
 10 15  4  0  0  0  0
 11 12  4  0  0  0  0
 11 27  1  0  0  0  0
 12 13  4  0  0  0  0
 12 28  1  0  0  0  0
 13 14  4  0  0  0  0
 13 16  1  0  0  0  0
 14 15  4  0  0  0  0
 14 29  1  0  0  0  0
 15 30  1  0  0  0  0
 16 17  1  0  0  0  0
 17 31  1  0  0  0  0
 17 32  1  0  0  0  0
 17 33  1  0  0  0  0
 18 19  1  0  0  0  0
 18 34  1  0  0  0  0
 19 20  1  0  0  0  0
 19 23  1  0  0  0  0
 19 35  1  0  0  0  0
 20 21  1  0  0  0  0
 20 36  1  0  0  0  0
 20 37  1  0  0  0  0
 21 22  1  0  0  0  0
 21 24  1  0  0  0  0
 21 38  1  0  0  0  0
 22 23  1  0  0  0  0
 22 39  1  0  0  0  0
 22 40  1  0  0  0  0
 23 41  1  0  0  0  0
 23 42  1  0  0  0  0
 24 43  1  0  0  0  0
 24 44  1  0  0  0  0
M  END
> <ConfClashScore>
0 

> <ConfOneFourInteractionScore>
-0.985399 

> <ConfScore>
-0.0385221 

> <ConfScorePBest>
0.00343329 

> <ConfTolerance>
0.328779 

$$$$
c13.sdf
 OpenBabel04162418043D

 44 47  0  0  0  0  0  0  0  0999 V2000
    2.1538    1.5405   -4.0652 N   0  0  0  1  0  0  0  0  0  0  0  0
    2.6411    0.9904   -2.9660 C   0  0  0  1  0  0  0  0  0  0  0  0
    2.0734   -0.0399   -2.3817 N   0  0  0  1  0  0  0  0  0  0  0  0
    0.9613   -0.5762   -2.8908 C   0  0  0  1  0  0  0  0  0  0  0  0
    0.4131   -0.0145   -4.0636 C   0  0  0  1  0  0  0  0  0  0  0  0
    1.0575    1.0765   -4.6392 C   0  0  0  1  0  0  0  0  0  0  0  0
    0.1240   -1.6524   -2.5238 C   0  0  0  1  0  0  0  0  0  0  0  0
   -0.8457   -1.7423   -3.3893 N   0  0  0  1  0  0  0  0  0  0  0  0
   -0.7057   -0.7447   -4.3631 N   0  0  0  1  0  0  0  0  0  0  0  0
   -1.6347   -0.6295   -5.4168 C   0  0  0  1  0  0  0  0  0  0  0  0
   -2.4465   -1.7174   -5.6767 C   0  0  0  1  0  0  0  0  0  0  0  0
   -3.3814   -1.6561   -6.6983 C   0  0  0  1  0  0  0  0  0  0  0  0
   -3.4981   -0.5090   -7.4605 C   0  0  0  1  0  0  0  0  0  0  0  0
   -2.6838    0.5821   -7.1997 C   0  0  0  1  0  0  0  0  0  0  0  0
   -1.7516    0.5210   -6.1811 C   0  0  0  1  0  0  0  0  0  0  0  0
   -4.3820   -0.3870   -8.4699 O   0  0  0  1  0  0  0  0  0  0  0  0
   -5.0641   -1.6086   -8.8373 C   0  0  0  1  0  0  0  0  0  0  0  0
    3.7540    1.5013   -2.4276 N   0  0  0  1  0  0  0  0  0  0  0  0
    4.4269    1.0344   -1.2111 C   0  0  0  1  0  0  0  0  0  0  0  0
    5.3624   -0.1403   -1.5341 C   0  0  0  1  0  0  0  0  0  0  0  0
    6.4548   -0.0277   -0.4769 C   0  0  0  1  0  0  0  0  0  0  0  0
    6.6875    1.4910   -0.3878 C   0  0  0  1  0  0  0  0  0  0  0  0
    5.3197    2.1285   -0.6460 C   0  0  0  1  0  0  0  0  0  0  0  0
    5.9948   -0.5791    0.8326 N   0  0  0  1  0  0  0  0  0  0  0  0
    0.6839    1.5178   -5.5037 H   0  0  0  1  0  0  0  0  0  0  0  0
    0.2590   -2.2711   -1.6988 H   0  0  0  1  0  0  0  0  0  0  0  0
   -2.3560   -2.5820   -5.1059 H   0  0  0  1  0  0  0  0  0  0  0  0
   -3.9950   -2.4733   -6.8914 H   0  0  0  1  0  0  0  0  0  0  0  0
   -2.7744    1.4467   -7.7706 H   0  0  0  1  0  0  0  0  0  0  0  0
   -1.1380    1.3382   -5.9881 H   0  0  0  1  0  0  0  0  0  0  0  0
   -5.6855   -1.4283   -9.6895 H   0  0  0  1  0  0  0  0  0  0  0  0
   -5.6688   -1.9392   -8.0188 H   0  0  0  1  0  0  0  0  0  0  0  0
   -4.3425   -2.3620   -9.0754 H   0  0  0  1  0  0  0  0  0  0  0  0
    4.1598    2.2629   -2.8921 H   0  0  0  1  0  0  0  0  0  0  0  0
    3.6947    0.7402   -0.4885 H   0  0  0  1  0  0  0  0  0  0  0  0
    5.7715   -0.0436   -2.5181 H   0  0  0  1  0  0  0  0  0  0  0  0
    4.8460   -1.0738   -1.4521 H   0  0  0  1  0  0  0  0  0  0  0  0
    7.3440   -0.5363   -0.7860 H   0  0  0  1  0  0  0  0  0  0  0  0
    7.3927    1.8055   -1.1285 H   0  0  0  1  0  0  0  0  0  0  0  0
    7.0473    1.7579    0.5840 H   0  0  0  1  0  0  0  0  0  0  0  0
    4.9094    2.5035    0.2683 H   0  0  0  1  0  0  0  0  0  0  0  0
    5.4130    2.9286   -1.3503 H   0  0  0  1  0  0  0  0  0  0  0  0
    6.7491   -0.6106    1.4575 H   0  0  0  1  0  0  0  0  0  0  0  0
    5.6426   -1.4840    0.7002 H   0  0  0  1  0  0  0  0  0  0  0  0
  1  2  4  0  0  0  0
  1  6  4  0  0  0  0
  2  3  4  0  0  0  0
  2 18  1  0  0  0  0
  3  4  4  0  0  0  0
  4  5  4  0  0  0  0
  4  7  4  0  0  0  0
  5  6  4  0  0  0  0
  5  9  4  0  0  0  0
  6 25  1  0  0  0  0
  7  8  4  0  0  0  0
  7 26  1  0  0  0  0
  8  9  4  0  0  0  0
  9 10  1  0  0  0  0
 10 11  4  0  0  0  0
 10 15  4  0  0  0  0
 11 12  4  0  0  0  0
 11 27  1  0  0  0  0
 12 13  4  0  0  0  0
 12 28  1  0  0  0  0
 13 14  4  0  0  0  0
 13 16  1  0  0  0  0
 14 15  4  0  0  0  0
 14 29  1  0  0  0  0
 15 30  1  0  0  0  0
 16 17  1  0  0  0  0
 17 31  1  0  0  0  0
 17 32  1  0  0  0  0
 17 33  1  0  0  0  0
 18 19  1  0  0  0  0
 18 34  1  0  0  0  0
 19 20  1  0  0  0  0
 19 23  1  0  0  0  0
 19 35  1  0  0  0  0
 20 21  1  0  0  0  0
 20 36  1  0  0  0  0
 20 37  1  0  0  0  0
 21 22  1  0  0  0  0
 21 24  1  0  0  0  0
 21 38  1  0  0  0  0
 22 23  1  0  0  0  0
 22 39  1  0  0  0  0
 22 40  1  0  0  0  0
 23 41  1  0  0  0  0
 23 42  1  0  0  0  0
 24 43  1  0  0  0  0
 24 44  1  0  0  0  0
M  END
> <ConfClashScore>
0 

> <ConfOneFourInteractionScore>
-0.984337 

> <ConfScore>
-0.0380876 

> <ConfScorePBest>
0.00341997 

> <ConfTolerance>
0.287678 

$$$$
c13.sdf
 OpenBabel04162418043D

 44 47  0  0  0  0  0  0  0  0999 V2000
    2.0767   -0.3885   -1.8764 N   0  0  0  1  0  0  0  0  0  0  0  0
    2.3820    0.7498   -2.4759 C   0  0  0  1  0  0  0  0  0  0  0  0
    1.6798    1.2304   -3.4763 N   0  0  0  1  0  0  0  0  0  0  0  0
    0.6114    0.5698   -3.9297 C   0  0  0  1  0  0  0  0  0  0  0  0
    0.2559   -0.6489   -3.3135 C   0  0  0  1  0  0  0  0  0  0  0  0
    1.0368   -1.1097   -2.2577 C   0  0  0  1  0  0  0  0  0  0  0  0
   -0.3325    0.7993   -4.9547 C   0  0  0  1  0  0  0  0  0  0  0  0
   -1.1859   -0.1851   -4.9659 N   0  0  0  1  0  0  0  0  0  0  0  0
   -0.8585   -1.1074   -3.9634 N   0  0  0  1  0  0  0  0  0  0  0  0
   -1.6706   -2.2664   -3.8037 C   0  0  0  1  0  0  0  0  0  0  0  0
   -2.8198   -2.4140   -4.5570 C   0  0  0  1  0  0  0  0  0  0  0  0
   -3.6073   -3.5446   -4.4053 C   0  0  0  1  0  0  0  0  0  0  0  0
   -3.2462   -4.5218   -3.4970 C   0  0  0  1  0  0  0  0  0  0  0  0
   -2.0934   -4.3736   -2.7416 C   0  0  0  1  0  0  0  0  0  0  0  0
   -1.3081   -3.2463   -2.8927 C   0  0  0  1  0  0  0  0  0  0  0  0
   -4.0940   -5.5758   -3.4326 O   0  0  0  1  0  0  0  0  0  0  0  0
   -3.7918   -6.6034   -2.4759 C   0  0  0  1  0  0  0  0  0  0  0  0
    3.4519    1.4427   -2.0461 N   0  0  0  1  0  0  0  0  0  0  0  0
    4.4292    1.0767   -1.0197 C   0  0  0  1  0  0  0  0  0  0  0  0
    5.2858   -0.1671   -1.4647 C   0  0  0  1  0  0  0  0  0  0  0  0
    6.5362   -0.0230   -0.5389 C   0  0  0  1  0  0  0  0  0  0  0  0
    6.7164    1.4722   -0.2683 C   0  0  0  1  0  0  0  0  0  0  0  0
    5.4907    2.1562   -0.8583 C   0  0  0  1  0  0  0  0  0  0  0  0
    6.3128   -0.7537    0.7434 N   0  0  0  1  0  0  0  0  0  0  0  0
    0.8067   -2.0035   -1.7783 H   0  0  0  1  0  0  0  0  0  0  0  0
   -0.3445    1.6189   -5.5948 H   0  0  0  1  0  0  0  0  0  0  0  0
   -3.0938   -1.6768   -5.2376 H   0  0  0  1  0  0  0  0  0  0  0  0
   -4.4700   -3.6576   -4.9751 H   0  0  0  1  0  0  0  0  0  0  0  0
   -1.8195   -5.1107   -2.0610 H   0  0  0  1  0  0  0  0  0  0  0  0
   -0.4454   -3.1333   -2.3230 H   0  0  0  1  0  0  0  0  0  0  0  0
   -4.4641   -7.4250   -2.6098 H   0  0  0  1  0  0  0  0  0  0  0  0
   -3.9003   -6.2118   -1.4860 H   0  0  0  1  0  0  0  0  0  0  0  0
   -2.7859   -6.9390   -2.6190 H   0  0  0  1  0  0  0  0  0  0  0  0
    3.5967    2.3100   -2.4787 H   0  0  0  1  0  0  0  0  0  0  0  0
    3.9233    0.8888   -0.0957 H   0  0  0  1  0  0  0  0  0  0  0  0
    5.5548   -0.1078   -2.4986 H   0  0  0  1  0  0  0  0  0  0  0  0
    4.7672   -1.0852   -1.2827 H   0  0  0  1  0  0  0  0  0  0  0  0
    7.4033   -0.4158   -1.0275 H   0  0  0  1  0  0  0  0  0  0  0  0
    6.7734    1.6551    0.7844 H   0  0  0  1  0  0  0  0  0  0  0  0
    7.6063    1.8310   -0.7419 H   0  0  0  1  0  0  0  0  0  0  0  0
    5.7289    2.5855   -1.8090 H   0  0  0  1  0  0  0  0  0  0  0  0
    5.1414    2.9223   -0.1980 H   0  0  0  1  0  0  0  0  0  0  0  0
    6.1576   -1.7031    0.5561 H   0  0  0  1  0  0  0  0  0  0  0  0
    5.5312   -0.3791    1.2007 H   0  0  0  1  0  0  0  0  0  0  0  0
  1  2  4  0  0  0  0
  1  6  4  0  0  0  0
  2  3  4  0  0  0  0
  2 18  1  0  0  0  0
  3  4  4  0  0  0  0
  4  5  4  0  0  0  0
  4  7  4  0  0  0  0
  5  6  4  0  0  0  0
  5  9  4  0  0  0  0
  6 25  1  0  0  0  0
  7  8  4  0  0  0  0
  7 26  1  0  0  0  0
  8  9  4  0  0  0  0
  9 10  1  0  0  0  0
 10 11  4  0  0  0  0
 10 15  4  0  0  0  0
 11 12  4  0  0  0  0
 11 27  1  0  0  0  0
 12 13  4  0  0  0  0
 12 28  1  0  0  0  0
 13 14  4  0  0  0  0
 13 16  1  0  0  0  0
 14 15  4  0  0  0  0
 14 29  1  0  0  0  0
 15 30  1  0  0  0  0
 16 17  1  0  0  0  0
 17 31  1  0  0  0  0
 17 32  1  0  0  0  0
 17 33  1  0  0  0  0
 18 19  1  0  0  0  0
 18 34  1  0  0  0  0
 19 20  1  0  0  0  0
 19 23  1  0  0  0  0
 19 35  1  0  0  0  0
 20 21  1  0  0  0  0
 20 36  1  0  0  0  0
 20 37  1  0  0  0  0
 21 22  1  0  0  0  0
 21 24  1  0  0  0  0
 21 38  1  0  0  0  0
 22 23  1  0  0  0  0
 22 39  1  0  0  0  0
 22 40  1  0  0  0  0
 23 41  1  0  0  0  0
 23 42  1  0  0  0  0
 24 43  1  0  0  0  0
 24 44  1  0  0  0  0
M  END
> <ConfClashScore>
0 

> <ConfOneFourInteractionScore>
-0.987888 

> <ConfScore>
-0.0371998 

> <ConfScorePBest>
0.00340664 

> <ConfTolerance>
0.324199 

$$$$
c13.sdf
 OpenBabel04162418043D

 44 47  0  0  0  0  0  0  0  0999 V2000
    3.3850   -0.6867   -3.2630 N   0  0  0  1  0  0  0  0  0  0  0  0
    4.0748    0.3319   -3.7479 C   0  0  0  1  0  0  0  0  0  0  0  0
    4.2949    0.4861   -5.0335 N   0  0  0  1  0  0  0  0  0  0  0  0
    3.8185   -0.4008   -5.9110 C   0  0  0  1  0  0  0  0  0  0  0  0
    3.0775   -1.5007   -5.4289 C   0  0  0  1  0  0  0  0  0  0  0  0
    2.8757   -1.6129   -4.0564 C   0  0  0  1  0  0  0  0  0  0  0  0
    3.8717   -0.5291   -7.3162 C   0  0  0  1  0  0  0  0  0  0  0  0
    3.2248   -1.6054   -7.6631 N   0  0  0  1  0  0  0  0  0  0  0  0
    2.7150   -2.2400   -6.5228 N   0  0  0  1  0  0  0  0  0  0  0  0
    2.0381   -3.5068   -6.6334 C   0  0  0  1  0  0  0  0  0  0  0  0
    1.7478   -4.0284   -7.8799 C   0  0  0  1  0  0  0  0  0  0  0  0
    1.1012   -5.2499   -7.9864 C   0  0  0  1  0  0  0  0  0  0  0  0
    0.7421   -5.9437   -6.8462 C   0  0  0  1  0  0  0  0  0  0  0  0
    1.0334   -5.4203   -5.5960 C   0  0  0  1  0  0  0  0  0  0  0  0
    1.6781   -4.2023   -5.4897 C   0  0  0  1  0  0  0  0  0  0  0  0
    0.0178   -7.0747   -6.9918 O   0  0  0  1  0  0  0  0  0  0  0  0
   -0.5956   -7.6781   -5.8358 C   0  0  0  1  0  0  0  0  0  0  0  0
    4.5702    1.2452   -2.8936 N   0  0  0  1  0  0  0  0  0  0  0  0
    4.4796    1.2090   -1.4392 C   0  0  0  1  0  0  0  0  0  0  0  0
    4.9499   -0.1488   -0.9061 C   0  0  0  1  0  0  0  0  0  0  0  0
    6.4456    0.0297   -0.6449 C   0  0  0  1  0  0  0  0  0  0  0  0
    6.5035    1.4467   -0.0690 C   0  0  0  1  0  0  0  0  0  0  0  0
    5.4291    2.2402   -0.8163 C   0  0  0  1  0  0  0  0  0  0  0  0
    6.9433   -0.9669    0.3298 N   0  0  0  1  0  0  0  0  0  0  0  0
    2.3349   -2.4094   -3.6631 H   0  0  0  1  0  0  0  0  0  0  0  0
    4.3486    0.1273   -7.9669 H   0  0  0  1  0  0  0  0  0  0  0  0
    2.0144   -3.5046   -8.7379 H   0  0  0  1  0  0  0  0  0  0  0  0
    0.8863   -5.6444   -8.9243 H   0  0  0  1  0  0  0  0  0  0  0  0
    0.7668   -5.9441   -4.7381 H   0  0  0  1  0  0  0  0  0  0  0  0
    1.8930   -3.8078   -4.5518 H   0  0  0  1  0  0  0  0  0  0  0  0
    0.1649   -8.0438   -5.1779 H   0  0  0  1  0  0  0  0  0  0  0  0
   -1.2190   -8.4904   -6.1464 H   0  0  0  1  0  0  0  0  0  0  0  0
   -1.1881   -6.9482   -5.3249 H   0  0  0  1  0  0  0  0  0  0  0  0
    5.0383    2.0105   -3.2879 H   0  0  0  1  0  0  0  0  0  0  0  0
    3.4704    1.3999   -1.1393 H   0  0  0  1  0  0  0  0  0  0  0  0
    4.7834   -0.9167   -1.6323 H   0  0  0  1  0  0  0  0  0  0  0  0
    4.4363   -0.3962   -0.0006 H   0  0  0  1  0  0  0  0  0  0  0  0
    7.0095   -0.0444   -1.5511 H   0  0  0  1  0  0  0  0  0  0  0  0
    7.4687    1.8777   -0.2348 H   0  0  0  1  0  0  0  0  0  0  0  0
    6.2943    1.4319    0.9803 H   0  0  0  1  0  0  0  0  0  0  0  0
    5.8773    2.8392   -1.5813 H   0  0  0  1  0  0  0  0  0  0  0  0
    4.8952    2.8705   -0.1361 H   0  0  0  1  0  0  0  0  0  0  0  0
    6.7788   -1.8702   -0.0130 H   0  0  0  1  0  0  0  0  0  0  0  0
    6.4752   -0.8513    1.1830 H   0  0  0  1  0  0  0  0  0  0  0  0
  1  2  4  0  0  0  0
  1  6  4  0  0  0  0
  2  3  4  0  0  0  0
  2 18  1  0  0  0  0
  3  4  4  0  0  0  0
  4  5  4  0  0  0  0
  4  7  4  0  0  0  0
  5  6  4  0  0  0  0
  5  9  4  0  0  0  0
  6 25  1  0  0  0  0
  7  8  4  0  0  0  0
  7 26  1  0  0  0  0
  8  9  4  0  0  0  0
  9 10  1  0  0  0  0
 10 11  4  0  0  0  0
 10 15  4  0  0  0  0
 11 12  4  0  0  0  0
 11 27  1  0  0  0  0
 12 13  4  0  0  0  0
 12 28  1  0  0  0  0
 13 14  4  0  0  0  0
 13 16  1  0  0  0  0
 14 15  4  0  0  0  0
 14 29  1  0  0  0  0
 15 30  1  0  0  0  0
 16 17  1  0  0  0  0
 17 31  1  0  0  0  0
 17 32  1  0  0  0  0
 17 33  1  0  0  0  0
 18 19  1  0  0  0  0
 18 34  1  0  0  0  0
 19 20  1  0  0  0  0
 19 23  1  0  0  0  0
 19 35  1  0  0  0  0
 20 21  1  0  0  0  0
 20 36  1  0  0  0  0
 20 37  1  0  0  0  0
 21 22  1  0  0  0  0
 21 24  1  0  0  0  0
 21 38  1  0  0  0  0
 22 23  1  0  0  0  0
 22 39  1  0  0  0  0
 22 40  1  0  0  0  0
 23 41  1  0  0  0  0
 23 42  1  0  0  0  0
 24 43  1  0  0  0  0
 24 44  1  0  0  0  0
M  END
> <ConfClashScore>
0 

> <ConfOneFourInteractionScore>
-0.985399 

> <ConfScore>
-0.0371998 

> <ConfScorePBest>
0.00339331 

> <ConfTolerance>
0.254467 

$$$$
c13.sdf
 OpenBabel04162418043D

 44 47  0  0  0  0  0  0  0  0999 V2000
    2.2720    0.7037   -2.9647 N   0  0  0  1  0  0  0  0  0  0  0  0
    3.3941    0.9068   -3.6339 C   0  0  0  1  0  0  0  0  0  0  0  0
    3.4539    0.8482   -4.9446 N   0  0  0  1  0  0  0  0  0  0  0  0
    2.3587    0.5756   -5.6587 C   0  0  0  1  0  0  0  0  0  0  0  0
    1.1431    0.3533   -4.9774 C   0  0  0  1  0  0  0  0  0  0  0  0
    1.1394    0.4281   -3.5877 C   0  0  0  1  0  0  0  0  0  0  0  0
    2.0842    0.4420   -7.0374 C   0  0  0  1  0  0  0  0  0  0  0  0
    0.8202    0.1642   -7.1874 N   0  0  0  1  0  0  0  0  0  0  0  0
    0.1972    0.0994   -5.9342 N   0  0  0  1  0  0  0  0  0  0  0  0
   -1.1784   -0.1883   -5.8262 C   0  0  0  1  0  0  0  0  0  0  0  0
   -1.6554   -1.2593   -5.0944 C   0  0  0  1  0  0  0  0  0  0  0  0
   -3.0195   -1.4933   -5.0173 C   0  0  0  1  0  0  0  0  0  0  0  0
   -3.9023   -0.6588   -5.6765 C   0  0  0  1  0  0  0  0  0  0  0  0
   -3.4238    0.4153   -6.4105 C   0  0  0  1  0  0  0  0  0  0  0  0
   -2.0636    0.6487   -6.4875 C   0  0  0  1  0  0  0  0  0  0  0  0
   -5.2447   -0.8351   -5.6458 O   0  0  0  1  0  0  0  0  0  0  0  0
   -5.7382   -1.9997   -4.9656 C   0  0  0  1  0  0  0  0  0  0  0  0
    4.5492    1.1916   -2.9285 N   0  0  0  1  0  0  0  0  0  0  0  0
    4.4712    1.2083   -1.4610 C   0  0  0  1  0  0  0  0  0  0  0  0
    4.9032   -0.1801   -0.8796 C   0  0  0  1  0  0  0  0  0  0  0  0
    6.4361    0.0076   -0.6182 C   0  0  0  1  0  0  0  0  0  0  0  0
    6.5428    1.4614   -0.1188 C   0  0  0  1  0  0  0  0  0  0  0  0
    5.4658    2.2532   -0.8812 C   0  0  0  1  0  0  0  0  0  0  0  0
    6.9232   -0.9544    0.4253 N   0  0  0  1  0  0  0  0  0  0  0  0
    0.2631    0.2703   -3.0502 H   0  0  0  1  0  0  0  0  0  0  0  0
    2.7766    0.5479   -7.8061 H   0  0  0  1  0  0  0  0  0  0  0  0
   -0.9910   -1.8896   -4.6016 H   0  0  0  1  0  0  0  0  0  0  0  0
   -3.3787   -2.2968   -4.4633 H   0  0  0  1  0  0  0  0  0  0  0  0
   -4.0882    1.0456   -6.9033 H   0  0  0  1  0  0  0  0  0  0  0  0
   -1.7044    1.4523   -7.0414 H   0  0  0  1  0  0  0  0  0  0  0  0
   -6.6984   -1.7870   -4.5440 H   0  0  0  1  0  0  0  0  0  0  0  0
   -5.0585   -2.2713   -4.1851 H   0  0  0  1  0  0  0  0  0  0  0  0
   -5.8254   -2.8084   -5.6608 H   0  0  0  1  0  0  0  0  0  0  0  0
    5.3925    1.3763   -3.3923 H   0  0  0  1  0  0  0  0  0  0  0  0
    3.4715    1.4413   -1.1591 H   0  0  0  1  0  0  0  0  0  0  0  0
    4.3818   -0.3948    0.0298 H   0  0  0  1  0  0  0  0  0  0  0  0
    4.7270   -0.9641   -1.5860 H   0  0  0  1  0  0  0  0  0  0  0  0
    6.9967   -0.1289   -1.5193 H   0  0  0  1  0  0  0  0  0  0  0  0
    6.3610    1.5066    0.9346 H   0  0  0  1  0  0  0  0  0  0  0  0
    7.5143    1.8566   -0.3309 H   0  0  0  1  0  0  0  0  0  0  0  0
    4.9561    2.9177   -0.2153 H   0  0  0  1  0  0  0  0  0  0  0  0
    5.9135    2.8157   -1.6738 H   0  0  0  1  0  0  0  0  0  0  0  0
    6.7257   -1.8716    0.1424 H   0  0  0  1  0  0  0  0  0  0  0  0
    6.4714   -0.7704    1.2752 H   0  0  0  1  0  0  0  0  0  0  0  0
  1  2  4  0  0  0  0
  1  6  4  0  0  0  0
  2  3  4  0  0  0  0
  2 18  1  0  0  0  0
  3  4  4  0  0  0  0
  4  5  4  0  0  0  0
  4  7  4  0  0  0  0
  5  6  4  0  0  0  0
  5  9  4  0  0  0  0
  6 25  1  0  0  0  0
  7  8  4  0  0  0  0
  7 26  1  0  0  0  0
  8  9  4  0  0  0  0
  9 10  1  0  0  0  0
 10 11  4  0  0  0  0
 10 15  4  0  0  0  0
 11 12  4  0  0  0  0
 11 27  1  0  0  0  0
 12 13  4  0  0  0  0
 12 28  1  0  0  0  0
 13 14  4  0  0  0  0
 13 16  1  0  0  0  0
 14 15  4  0  0  0  0
 14 29  1  0  0  0  0
 15 30  1  0  0  0  0
 16 17  1  0  0  0  0
 17 31  1  0  0  0  0
 17 32  1  0  0  0  0
 17 33  1  0  0  0  0
 18 19  1  0  0  0  0
 18 34  1  0  0  0  0
 19 20  1  0  0  0  0
 19 23  1  0  0  0  0
 19 35  1  0  0  0  0
 20 21  1  0  0  0  0
 20 36  1  0  0  0  0
 20 37  1  0  0  0  0
 21 22  1  0  0  0  0
 21 24  1  0  0  0  0
 21 38  1  0  0  0  0
 22 23  1  0  0  0  0
 22 39  1  0  0  0  0
 22 40  1  0  0  0  0
 23 41  1  0  0  0  0
 23 42  1  0  0  0  0
 24 43  1  0  0  0  0
 24 44  1  0  0  0  0
M  END
> <ConfClashScore>
0 

> <ConfOneFourInteractionScore>
-0.984337 

> <ConfScore>
-0.0368332 

> <ConfScorePBest>
0.00337998 

> <ConfTolerance>
0.297063 

$$$$
c13.sdf
 OpenBabel04162418043D

 44 47  0  0  0  0  0  0  0  0999 V2000
    3.3441   -0.5764   -3.3693 N   0  0  0  1  0  0  0  0  0  0  0  0
    4.1479    0.3554   -3.8531 C   0  0  0  1  0  0  0  0  0  0  0  0
    4.4030    0.4697   -5.1364 N   0  0  0  1  0  0  0  0  0  0  0  0
    3.8462   -0.3705   -6.0126 C   0  0  0  1  0  0  0  0  0  0  0  0
    2.9827   -1.3776   -5.5316 C   0  0  0  1  0  0  0  0  0  0  0  0
    2.7491   -1.4510   -4.1616 C   0  0  0  1  0  0  0  0  0  0  0  0
    3.9065   -0.5203   -7.4154 C   0  0  0  1  0  0  0  0  0  0  0  0
    3.1516   -1.5240   -7.7619 N   0  0  0  1  0  0  0  0  0  0  0  0
    2.5585   -2.0860   -6.6238 N   0  0  0  1  0  0  0  0  0  0  0  0
    1.6260   -3.1306   -6.7085 C   0  0  0  1  0  0  0  0  0  0  0  0
    1.7679   -4.3604   -6.0939 C   0  0  0  1  0  0  0  0  0  0  0  0
    0.7824   -5.3246   -6.2374 C   0  0  0  1  0  0  0  0  0  0  0  0
   -0.3396   -5.0582   -6.9994 C   0  0  0  1  0  0  0  0  0  0  0  0
   -0.4817   -3.8247   -7.6157 C   0  0  0  1  0  0  0  0  0  0  0  0
    0.5008   -2.8633   -7.4727 C   0  0  0  1  0  0  0  0  0  0  0  0
   -1.2948   -5.9972   -7.1430 O   0  0  0  1  0  0  0  0  0  0  0  0
   -1.1016   -7.1931   -6.3523 C   0  0  0  1  0  0  0  0  0  0  0  0
    4.7268    1.2195   -3.0000 N   0  0  0  1  0  0  0  0  0  0  0  0
    4.5038    1.2109   -1.5533 C   0  0  0  1  0  0  0  0  0  0  0  0
    4.8233   -0.2025   -0.9686 C   0  0  0  1  0  0  0  0  0  0  0  0
    6.3545   -0.0566   -0.6321 C   0  0  0  1  0  0  0  0  0  0  0  0
    6.4241    1.3518   -0.0578 C   0  0  0  1  0  0  0  0  0  0  0  0
    5.4518    2.1976   -0.8687 C   0  0  0  1  0  0  0  0  0  0  0  0
    6.7873   -1.0732    0.3728 N   0  0  0  1  0  0  0  0  0  0  0  0
    2.1189   -2.1793   -3.7692 H   0  0  0  1  0  0  0  0  0  0  0  0
    4.4617    0.0726   -8.0648 H   0  0  0  1  0  0  0  0  0  0  0  0
    2.6140   -4.5623   -5.5239 H   0  0  0  1  0  0  0  0  0  0  0  0
    0.8873   -6.2485   -5.7717 H   0  0  0  1  0  0  0  0  0  0  0  0
   -1.3278   -3.6228   -8.1858 H   0  0  0  1  0  0  0  0  0  0  0  0
    0.3960   -1.9393   -7.9385 H   0  0  0  1  0  0  0  0  0  0  0  0
   -1.8252   -7.9289   -6.6349 H   0  0  0  1  0  0  0  0  0  0  0  0
   -1.2191   -6.9575   -5.3152 H   0  0  0  1  0  0  0  0  0  0  0  0
   -0.1175   -7.5773   -6.5220 H   0  0  0  1  0  0  0  0  0  0  0  0
    5.3337    1.8948   -3.3688 H   0  0  0  1  0  0  0  0  0  0  0  0
    3.4873    1.4734   -1.3470 H   0  0  0  1  0  0  0  0  0  0  0  0
    4.2464   -0.4024   -0.0899 H   0  0  0  1  0  0  0  0  0  0  0  0
    4.6526   -0.9731   -1.6910 H   0  0  0  1  0  0  0  0  0  0  0  0
    6.9555   -0.1466   -1.5128 H   0  0  0  1  0  0  0  0  0  0  0  0
    7.4171    1.7398   -0.1498 H   0  0  0  1  0  0  0  0  0  0  0  0
    6.1374    1.3452    0.9730 H   0  0  0  1  0  0  0  0  0  0  0  0
    5.9802    2.7734   -1.5995 H   0  0  0  1  0  0  0  0  0  0  0  0
    4.9039    2.8537   -0.2251 H   0  0  0  1  0  0  0  0  0  0  0  0
    6.2322   -0.9954    1.1767 H   0  0  0  1  0  0  0  0  0  0  0  0
    7.7262   -0.9201    0.6084 H   0  0  0  1  0  0  0  0  0  0  0  0
  1  2  4  0  0  0  0
  1  6  4  0  0  0  0
  2  3  4  0  0  0  0
  2 18  1  0  0  0  0
  3  4  4  0  0  0  0
  4  5  4  0  0  0  0
  4  7  4  0  0  0  0
  5  6  4  0  0  0  0
  5  9  4  0  0  0  0
  6 25  1  0  0  0  0
  7  8  4  0  0  0  0
  7 26  1  0  0  0  0
  8  9  4  0  0  0  0
  9 10  1  0  0  0  0
 10 11  4  0  0  0  0
 10 15  4  0  0  0  0
 11 12  4  0  0  0  0
 11 27  1  0  0  0  0
 12 13  4  0  0  0  0
 12 28  1  0  0  0  0
 13 14  4  0  0  0  0
 13 16  1  0  0  0  0
 14 15  4  0  0  0  0
 14 29  1  0  0  0  0
 15 30  1  0  0  0  0
 16 17  1  0  0  0  0
 17 31  1  0  0  0  0
 17 32  1  0  0  0  0
 17 33  1  0  0  0  0
 18 19  1  0  0  0  0
 18 34  1  0  0  0  0
 19 20  1  0  0  0  0
 19 23  1  0  0  0  0
 19 35  1  0  0  0  0
 20 21  1  0  0  0  0
 20 36  1  0  0  0  0
 20 37  1  0  0  0  0
 21 22  1  0  0  0  0
 21 24  1  0  0  0  0
 21 38  1  0  0  0  0
 22 23  1  0  0  0  0
 22 39  1  0  0  0  0
 22 40  1  0  0  0  0
 23 41  1  0  0  0  0
 23 42  1  0  0  0  0
 24 43  1  0  0  0  0
 24 44  1  0  0  0  0
M  END
> <ConfClashScore>
0 

> <ConfOneFourInteractionScore>
-0.985399 

> <ConfScore>
-0.0358845 

> <ConfScorePBest>
0.00336665 

> <ConfTolerance>
0.291232 

$$$$
c13.sdf
 OpenBabel04162418043D

 44 47  0  0  0  0  0  0  0  0999 V2000
    3.5299    0.1897   -4.0624 N   0  0  0  1  0  0  0  0  0  0  0  0
    4.5666    1.0100   -4.0909 C   0  0  0  1  0  0  0  0  0  0  0  0
    5.1668    1.3492   -5.2088 N   0  0  0  1  0  0  0  0  0  0  0  0
    4.7394    0.8655   -6.3779 C   0  0  0  1  0  0  0  0  0  0  0  0
    3.6350   -0.0129   -6.3853 C   0  0  0  1  0  0  0  0  0  0  0  0
    3.0386   -0.3372   -5.1704 C   0  0  0  1  0  0  0  0  0  0  0  0
    5.1450    1.0223   -7.7214 C   0  0  0  1  0  0  0  0  0  0  0  0
    4.3636    0.3080   -8.4807 N   0  0  0  1  0  0  0  0  0  0  0  0
    3.4112   -0.3517   -7.6929 N   0  0  0  1  0  0  0  0  0  0  0  0
    2.3818   -1.1174   -8.3109 C   0  0  0  1  0  0  0  0  0  0  0  0
    1.3944   -0.4846   -9.0423 C   0  0  0  1  0  0  0  0  0  0  0  0
    0.3954   -1.2303   -9.6483 C   0  0  0  1  0  0  0  0  0  0  0  0
    0.3836   -2.6062   -9.5168 C   0  0  0  1  0  0  0  0  0  0  0  0
    1.3739   -3.2407   -8.7832 C   0  0  0  1  0  0  0  0  0  0  0  0
    2.3701   -2.4972   -8.1789 C   0  0  0  1  0  0  0  0  0  0  0  0
   -0.5659   -3.3914  -10.0788 O   0  0  0  1  0  0  0  0  0  0  0  0
   -0.6461   -4.7514   -9.6243 C   0  0  0  1  0  0  0  0  0  0  0  0
    5.0772    1.5553   -2.9572 N   0  0  0  1  0  0  0  0  0  0  0  0
    4.5502    1.2030   -1.6178 C   0  0  0  1  0  0  0  0  0  0  0  0
    4.9822   -0.2091   -1.2040 C   0  0  0  1  0  0  0  0  0  0  0  0
    6.3949   -0.1072   -0.6378 C   0  0  0  1  0  0  0  0  0  0  0  0
    6.5670    1.4112   -0.2847 C   0  0  0  1  0  0  0  0  0  0  0  0
    5.2004    2.0870   -0.5013 C   0  0  0  1  0  0  0  0  0  0  0  0
    6.5364   -0.9569    0.5909 N   0  0  0  1  0  0  0  0  0  0  0  0
    2.2227   -0.9811   -5.1351 H   0  0  0  1  0  0  0  0  0  0  0  0
    5.9368    1.6109   -8.0505 H   0  0  0  1  0  0  0  0  0  0  0  0
    1.4010    0.5510   -9.1379 H   0  0  0  1  0  0  0  0  0  0  0  0
   -0.3453   -0.7546  -10.2020 H   0  0  0  1  0  0  0  0  0  0  0  0
    1.3674   -4.2763   -8.6876 H   0  0  0  1  0  0  0  0  0  0  0  0
    3.1108   -2.9730   -7.6252 H   0  0  0  1  0  0  0  0  0  0  0  0
    0.2982   -5.2330   -9.7702 H   0  0  0  1  0  0  0  0  0  0  0  0
   -1.3999   -5.2690  -10.1800 H   0  0  0  1  0  0  0  0  0  0  0  0
   -0.8963   -4.7653   -8.5841 H   0  0  0  1  0  0  0  0  0  0  0  0
    5.8133    2.1986   -3.0265 H   0  0  0  1  0  0  0  0  0  0  0  0
    3.4844    1.2985   -1.6169 H   0  0  0  1  0  0  0  0  0  0  0  0
    4.9755   -0.8575   -2.0552 H   0  0  0  1  0  0  0  0  0  0  0  0
    4.3164   -0.5913   -0.4587 H   0  0  0  1  0  0  0  0  0  0  0  0
    7.1173   -0.4103   -1.3667 H   0  0  0  1  0  0  0  0  0  0  0  0
    6.8710    1.5180    0.7356 H   0  0  0  1  0  0  0  0  0  0  0  0
    7.3008    1.8553   -0.9244 H   0  0  0  1  0  0  0  0  0  0  0  0
    5.3184    3.0983   -0.8303 H   0  0  0  1  0  0  0  0  0  0  0  0
    4.6152    2.0688    0.3943 H   0  0  0  1  0  0  0  0  0  0  0  0
    6.0218   -0.5596    1.3243 H   0  0  0  1  0  0  0  0  0  0  0  0
    7.4814   -1.0080    0.8454 H   0  0  0  1  0  0  0  0  0  0  0  0
  1  2  4  0  0  0  0
  1  6  4  0  0  0  0
  2  3  4  0  0  0  0
  2 18  1  0  0  0  0
  3  4  4  0  0  0  0
  4  5  4  0  0  0  0
  4  7  4  0  0  0  0
  5  6  4  0  0  0  0
  5  9  4  0  0  0  0
  6 25  1  0  0  0  0
  7  8  4  0  0  0  0
  7 26  1  0  0  0  0
  8  9  4  0  0  0  0
  9 10  1  0  0  0  0
 10 11  4  0  0  0  0
 10 15  4  0  0  0  0
 11 12  4  0  0  0  0
 11 27  1  0  0  0  0
 12 13  4  0  0  0  0
 12 28  1  0  0  0  0
 13 14  4  0  0  0  0
 13 16  1  0  0  0  0
 14 15  4  0  0  0  0
 14 29  1  0  0  0  0
 15 30  1  0  0  0  0
 16 17  1  0  0  0  0
 17 31  1  0  0  0  0
 17 32  1  0  0  0  0
 17 33  1  0  0  0  0
 18 19  1  0  0  0  0
 18 34  1  0  0  0  0
 19 20  1  0  0  0  0
 19 23  1  0  0  0  0
 19 35  1  0  0  0  0
 20 21  1  0  0  0  0
 20 36  1  0  0  0  0
 20 37  1  0  0  0  0
 21 22  1  0  0  0  0
 21 24  1  0  0  0  0
 21 38  1  0  0  0  0
 22 23  1  0  0  0  0
 22 39  1  0  0  0  0
 22 40  1  0  0  0  0
 23 41  1  0  0  0  0
 23 42  1  0  0  0  0
 24 43  1  0  0  0  0
 24 44  1  0  0  0  0
M  END
> <ConfClashScore>
0 

> <ConfOneFourInteractionScore>
-0.984337 

> <ConfScore>
-0.0358845 

> <ConfScorePBest>
0.00335333 

> <ConfTolerance>
0.471994 

$$$$
c13.sdf
 OpenBabel04162418043D

 44 47  0  0  0  0  0  0  0  0999 V2000
    4.1093    1.7050   -5.1900 N   0  0  0  1  0  0  0  0  0  0  0  0
    3.7906    1.6720   -3.9071 C   0  0  0  1  0  0  0  0  0  0  0  0
    2.5703    1.8989   -3.4777 N   0  0  0  1  0  0  0  0  0  0  0  0
    1.5912    2.1763   -4.3425 C   0  0  0  1  0  0  0  0  0  0  0  0
    1.8952    2.2198   -5.7198 C   0  0  0  1  0  0  0  0  0  0  0  0
    3.2056    1.9711   -6.1169 C   0  0  0  1  0  0  0  0  0  0  0  0
    0.2135    2.4611   -4.2195 C   0  0  0  1  0  0  0  0  0  0  0  0
   -0.2805    2.6603   -5.4084 N   0  0  0  1  0  0  0  0  0  0  0  0
    0.7285    2.5204   -6.3703 N   0  0  0  1  0  0  0  0  0  0  0  0
    0.4441    2.6904   -7.7553 C   0  0  0  1  0  0  0  0  0  0  0  0
   -0.4390    1.8375   -8.3901 C   0  0  0  1  0  0  0  0  0  0  0  0
   -0.6487    1.9483   -9.7558 C   0  0  0  1  0  0  0  0  0  0  0  0
    0.0291    2.9080  -10.4837 C   0  0  0  1  0  0  0  0  0  0  0  0
    0.9148    3.7634   -9.8468 C   0  0  0  1  0  0  0  0  0  0  0  0
    1.1240    3.6531   -8.4851 C   0  0  0  1  0  0  0  0  0  0  0  0
   -0.0591    3.1411  -11.8148 O   0  0  0  1  0  0  0  0  0  0  0  0
   -0.7814    2.1817  -12.6024 C   0  0  0  1  0  0  0  0  0  0  0  0
    4.7549    1.3947   -3.0036 N   0  0  0  1  0  0  0  0  0  0  0  0
    4.5058    1.2216   -1.5717 C   0  0  0  1  0  0  0  0  0  0  0  0
    4.9235   -0.2182   -1.1192 C   0  0  0  1  0  0  0  0  0  0  0  0
    6.4062   -0.0258   -0.6522 C   0  0  0  1  0  0  0  0  0  0  0  0
    6.3936    1.3542    0.0332 C   0  0  0  1  0  0  0  0  0  0  0  0
    5.3816    2.2090   -0.7500 C   0  0  0  1  0  0  0  0  0  0  0  0
    6.8051   -1.0957    0.3105 N   0  0  0  1  0  0  0  0  0  0  0  0
    3.4685    1.9942   -7.1229 H   0  0  0  1  0  0  0  0  0  0  0  0
   -0.3188    2.5046   -3.3271 H   0  0  0  1  0  0  0  0  0  0  0  0
   -0.9460    1.1127   -7.8432 H   0  0  0  1  0  0  0  0  0  0  0  0
   -1.3162    1.3091  -10.2329 H   0  0  0  1  0  0  0  0  0  0  0  0
    1.4218    4.4882  -10.3937 H   0  0  0  1  0  0  0  0  0  0  0  0
    1.7914    4.2922   -8.0080 H   0  0  0  1  0  0  0  0  0  0  0  0
   -0.8121    2.5068  -13.6214 H   0  0  0  1  0  0  0  0  0  0  0  0
   -1.7792    2.0911  -12.2270 H   0  0  0  1  0  0  0  0  0  0  0  0
   -0.2909    1.2324  -12.5458 H   0  0  0  1  0  0  0  0  0  0  0  0
    5.6760    1.3041   -3.3256 H   0  0  0  1  0  0  0  0  0  0  0  0
    3.4688    1.3878   -1.3668 H   0  0  0  1  0  0  0  0  0  0  0  0
    4.8639   -0.9094   -1.9338 H   0  0  0  1  0  0  0  0  0  0  0  0
    4.3085   -0.5614   -0.3137 H   0  0  0  1  0  0  0  0  0  0  0  0
    7.0737   -0.0308   -1.4885 H   0  0  0  1  0  0  0  0  0  0  0  0
    7.3661    1.7986   -0.0084 H   0  0  0  1  0  0  0  0  0  0  0  0
    6.0879    1.2590    1.0542 H   0  0  0  1  0  0  0  0  0  0  0  0
    4.7703    2.7690   -0.0735 H   0  0  0  1  0  0  0  0  0  0  0  0
    5.8955    2.8800   -1.4062 H   0  0  0  1  0  0  0  0  0  0  0  0
    6.1319   -1.1656    1.0192 H   0  0  0  1  0  0  0  0  0  0  0  0
    7.6733   -0.8718    0.7060 H   0  0  0  1  0  0  0  0  0  0  0  0
  1  2  4  0  0  0  0
  1  6  4  0  0  0  0
  2  3  4  0  0  0  0
  2 18  1  0  0  0  0
  3  4  4  0  0  0  0
  4  5  4  0  0  0  0
  4  7  4  0  0  0  0
  5  6  4  0  0  0  0
  5  9  4  0  0  0  0
  6 25  1  0  0  0  0
  7  8  4  0  0  0  0
  7 26  1  0  0  0  0
  8  9  4  0  0  0  0
  9 10  1  0  0  0  0
 10 11  4  0  0  0  0
 10 15  4  0  0  0  0
 11 12  4  0  0  0  0
 11 27  1  0  0  0  0
 12 13  4  0  0  0  0
 12 28  1  0  0  0  0
 13 14  4  0  0  0  0
 13 16  1  0  0  0  0
 14 15  4  0  0  0  0
 14 29  1  0  0  0  0
 15 30  1  0  0  0  0
 16 17  1  0  0  0  0
 17 31  1  0  0  0  0
 17 32  1  0  0  0  0
 17 33  1  0  0  0  0
 18 19  1  0  0  0  0
 18 34  1  0  0  0  0
 19 20  1  0  0  0  0
 19 23  1  0  0  0  0
 19 35  1  0  0  0  0
 20 21  1  0  0  0  0
 20 36  1  0  0  0  0
 20 37  1  0  0  0  0
 21 22  1  0  0  0  0
 21 24  1  0  0  0  0
 21 38  1  0  0  0  0
 22 23  1  0  0  0  0
 22 39  1  0  0  0  0
 22 40  1  0  0  0  0
 23 41  1  0  0  0  0
 23 42  1  0  0  0  0
 24 43  1  0  0  0  0
 24 44  1  0  0  0  0
M  END
> <ConfClashScore>
0 

> <ConfOneFourInteractionScore>
-0.984337 

> <ConfScore>
-0.035546 

> <ConfScorePBest>
0.00334 

> <ConfTolerance>
0.368183 

$$$$
c13.sdf
 OpenBabel04162418043D

 44 47  0  0  0  0  0  0  0  0999 V2000
    1.6426    0.6582   -1.0071 N   0  0  0  1  0  0  0  0  0  0  0  0
    2.1667    1.1700   -2.1079 C   0  0  0  1  0  0  0  0  0  0  0  0
    1.4490    1.4258   -3.1777 N   0  0  0  1  0  0  0  0  0  0  0  0
    0.1380    1.1714   -3.1876 C   0  0  0  1  0  0  0  0  0  0  0  0
   -0.4554    0.6249   -2.0298 C   0  0  0  1  0  0  0  0  0  0  0  0
    0.3543    0.3745   -0.9258 C   0  0  0  1  0  0  0  0  0  0  0  0
   -0.8922    1.3227   -4.1415 C   0  0  0  1  0  0  0  0  0  0  0  0
   -2.0111    0.9084   -3.6184 N   0  0  0  1  0  0  0  0  0  0  0  0
   -1.7865    0.4662   -2.3081 N   0  0  0  1  0  0  0  0  0  0  0  0
   -2.8566   -0.0386   -1.5155 C   0  0  0  1  0  0  0  0  0  0  0  0
   -2.6718   -0.2563   -0.1632 C   0  0  0  1  0  0  0  0  0  0  0  0
   -3.7150   -0.7426    0.6092 C   0  0  0  1  0  0  0  0  0  0  0  0
   -4.9382   -1.0149    0.0263 C   0  0  0  1  0  0  0  0  0  0  0  0
   -5.1234   -0.7965   -1.3301 C   0  0  0  1  0  0  0  0  0  0  0  0
   -4.0833   -0.3116   -2.1004 C   0  0  0  1  0  0  0  0  0  0  0  0
   -6.0249   -1.4958    0.6757 O   0  0  0  1  0  0  0  0  0  0  0  0
   -5.8928   -1.7390    2.0849 C   0  0  0  1  0  0  0  0  0  0  0  0
    3.4893    1.4402   -2.1346 N   0  0  0  1  0  0  0  0  0  0  0  0
    4.4163    1.0924   -1.0537 C   0  0  0  1  0  0  0  0  0  0  0  0
    5.2609   -0.1729   -1.4267 C   0  0  0  1  0  0  0  0  0  0  0  0
    6.5331   -0.0270   -0.5254 C   0  0  0  1  0  0  0  0  0  0  0  0
    6.7119    1.4953   -0.2653 C   0  0  0  1  0  0  0  0  0  0  0  0
    5.4779    2.1931   -0.8641 C   0  0  0  1  0  0  0  0  0  0  0  0
    6.3379   -0.7525    0.7654 N   0  0  0  1  0  0  0  0  0  0  0  0
   -0.0463   -0.0278   -0.0545 H   0  0  0  1  0  0  0  0  0  0  0  0
   -0.7767    1.7023   -5.1028 H   0  0  0  1  0  0  0  0  0  0  0  0
   -1.7502   -0.0552    0.2748 H   0  0  0  1  0  0  0  0  0  0  0  0
   -3.5772   -0.9027    1.6276 H   0  0  0  1  0  0  0  0  0  0  0  0
   -6.0450   -0.9976   -1.7681 H   0  0  0  1  0  0  0  0  0  0  0  0
   -4.2210   -0.1516   -3.1187 H   0  0  0  1  0  0  0  0  0  0  0  0
   -5.1262   -1.1092    2.4857 H   0  0  0  1  0  0  0  0  0  0  0  0
   -5.6328   -2.7642    2.2468 H   0  0  0  1  0  0  0  0  0  0  0  0
   -6.8210   -1.5247    2.5721 H   0  0  0  1  0  0  0  0  0  0  0  0
    3.8510    1.8957   -2.9233 H   0  0  0  1  0  0  0  0  0  0  0  0
    3.8668    0.9319   -0.1497 H   0  0  0  1  0  0  0  0  0  0  0  0
    5.5225   -0.1680   -2.4643 H   0  0  0  1  0  0  0  0  0  0  0  0
    4.7282   -1.0719   -1.1969 H   0  0  0  1  0  0  0  0  0  0  0  0
    7.3912   -0.4198   -1.0297 H   0  0  0  1  0  0  0  0  0  0  0  0
    6.7693    1.6856    0.7861 H   0  0  0  1  0  0  0  0  0  0  0  0
    7.6026    1.8487   -0.7414 H   0  0  0  1  0  0  0  0  0  0  0  0
    5.1165    2.9466   -0.1958 H   0  0  0  1  0  0  0  0  0  0  0  0
    5.7234    2.6386   -1.8055 H   0  0  0  1  0  0  0  0  0  0  0  0
    6.4133   -1.7176    0.6129 H   0  0  0  1  0  0  0  0  0  0  0  0
    5.4493   -0.5472    1.1241 H   0  0  0  1  0  0  0  0  0  0  0  0
  1  2  4  0  0  0  0
  1  6  4  0  0  0  0
  2  3  4  0  0  0  0
  2 18  1  0  0  0  0
  3  4  4  0  0  0  0
  4  5  4  0  0  0  0
  4  7  4  0  0  0  0
  5  6  4  0  0  0  0
  5  9  4  0  0  0  0
  6 25  1  0  0  0  0
  7  8  4  0  0  0  0
  7 26  1  0  0  0  0
  8  9  4  0  0  0  0
  9 10  1  0  0  0  0
 10 11  4  0  0  0  0
 10 15  4  0  0  0  0
 11 12  4  0  0  0  0
 11 27  1  0  0  0  0
 12 13  4  0  0  0  0
 12 28  1  0  0  0  0
 13 14  4  0  0  0  0
 13 16  1  0  0  0  0
 14 15  4  0  0  0  0
 14 29  1  0  0  0  0
 15 30  1  0  0  0  0
 16 17  1  0  0  0  0
 17 31  1  0  0  0  0
 17 32  1  0  0  0  0
 17 33  1  0  0  0  0
 18 19  1  0  0  0  0
 18 34  1  0  0  0  0
 19 20  1  0  0  0  0
 19 23  1  0  0  0  0
 19 35  1  0  0  0  0
 20 21  1  0  0  0  0
 20 36  1  0  0  0  0
 20 37  1  0  0  0  0
 21 22  1  0  0  0  0
 21 24  1  0  0  0  0
 21 38  1  0  0  0  0
 22 23  1  0  0  0  0
 22 39  1  0  0  0  0
 22 40  1  0  0  0  0
 23 41  1  0  0  0  0
 23 42  1  0  0  0  0
 24 43  1  0  0  0  0
 24 44  1  0  0  0  0
M  END
> <ConfClashScore>
0 

> <ConfOneFourInteractionScore>
-0.984337 

> <ConfScore>
-0.035146 

> <ConfScorePBest>
0.00332667 

> <ConfTolerance>
0.33796 

$$$$
c13.sdf
 OpenBabel04162418043D

 44 47  0  0  0  0  0  0  0  0999 V2000
    3.5693    0.7184   -4.9704 N   0  0  0  1  0  0  0  0  0  0  0  0
    3.4826    0.6764   -3.6517 C   0  0  0  1  0  0  0  0  0  0  0  0
    2.4356    0.1853   -3.0292 N   0  0  0  1  0  0  0  0  0  0  0  0
    1.4025   -0.2978   -3.7240 C   0  0  0  1  0  0  0  0  0  0  0  0
    1.4606   -0.2691   -5.1336 C   0  0  0  1  0  0  0  0  0  0  0  0
    2.5953    0.2630   -5.7390 C   0  0  0  1  0  0  0  0  0  0  0  0
    0.1627   -0.8788   -3.3785 C   0  0  0  1  0  0  0  0  0  0  0  0
   -0.4786   -1.1781   -4.4724 N   0  0  0  1  0  0  0  0  0  0  0  0
    0.2903   -0.8167   -5.5864 N   0  0  0  1  0  0  0  0  0  0  0  0
   -0.1683   -1.1424   -6.9193 C   0  0  0  1  0  0  0  0  0  0  0  0
    0.6626   -0.9389   -8.0048 C   0  0  0  1  0  0  0  0  0  0  0  0
    0.2250   -1.2560   -9.2813 C   0  0  0  1  0  0  0  0  0  0  0  0
   -1.0439   -1.7707   -9.4692 C   0  0  0  1  0  0  0  0  0  0  0  0
   -1.8771   -1.9747   -8.3803 C   0  0  0  1  0  0  0  0  0  0  0  0
   -1.4410   -1.6586   -7.1074 C   0  0  0  1  0  0  0  0  0  0  0  0
   -1.5781   -2.1100  -10.6585 O   0  0  0  1  0  0  0  0  0  0  0  0
   -0.6974   -1.9461  -11.7943 C   0  0  0  1  0  0  0  0  0  0  0  0
    4.5189    1.1610   -2.9086 N   0  0  0  1  0  0  0  0  0  0  0  0
    4.4611    1.2081   -1.4468 C   0  0  0  1  0  0  0  0  0  0  0  0
    4.8907   -0.1713   -0.8427 C   0  0  0  1  0  0  0  0  0  0  0  0
    6.4283    0.0101   -0.6057 C   0  0  0  1  0  0  0  0  0  0  0  0
    6.5523    1.4730   -0.1377 C   0  0  0  1  0  0  0  0  0  0  0  0
    5.4709    2.2571   -0.9018 C   0  0  0  1  0  0  0  0  0  0  0  0
    6.9215   -0.9322    0.4488 N   0  0  0  1  0  0  0  0  0  0  0  0
    2.6751    0.3015   -6.7752 H   0  0  0  1  0  0  0  0  0  0  0  0
   -0.1816   -1.0411   -2.4107 H   0  0  0  1  0  0  0  0  0  0  0  0
    1.6159   -0.5479   -7.8640 H   0  0  0  1  0  0  0  0  0  0  0  0
    0.8517   -1.1066  -10.0978 H   0  0  0  1  0  0  0  0  0  0  0  0
   -2.8304   -2.3658   -8.5211 H   0  0  0  1  0  0  0  0  0  0  0  0
   -2.0676   -1.8080   -6.2909 H   0  0  0  1  0  0  0  0  0  0  0  0
   -0.8948   -1.0065  -12.2667 H   0  0  0  1  0  0  0  0  0  0  0  0
   -0.8658   -2.7387  -12.4931 H   0  0  0  1  0  0  0  0  0  0  0  0
    0.3198   -1.9719  -11.4632 H   0  0  0  1  0  0  0  0  0  0  0  0
    5.3228    1.4860   -3.3652 H   0  0  0  1  0  0  0  0  0  0  0  0
    3.4672    1.4548   -1.1364 H   0  0  0  1  0  0  0  0  0  0  0  0
    4.3801   -0.3635    0.0777 H   0  0  0  1  0  0  0  0  0  0  0  0
    4.6994   -0.9683   -1.5305 H   0  0  0  1  0  0  0  0  0  0  0  0
    6.9758   -0.1490   -1.5111 H   0  0  0  1  0  0  0  0  0  0  0  0
    6.3850    1.5410    0.9170 H   0  0  0  1  0  0  0  0  0  0  0  0
    7.5236    1.8565   -0.3707 H   0  0  0  1  0  0  0  0  0  0  0  0
    5.9119    2.7999   -1.7116 H   0  0  0  1  0  0  0  0  0  0  0  0
    4.9749    2.9389   -0.2430 H   0  0  0  1  0  0  0  0  0  0  0  0
    6.9066   -1.8485    0.1017 H   0  0  0  1  0  0  0  0  0  0  0  0
    6.3422   -0.8722    1.2370 H   0  0  0  1  0  0  0  0  0  0  0  0
  1  2  4  0  0  0  0
  1  6  4  0  0  0  0
  2  3  4  0  0  0  0
  2 18  1  0  0  0  0
  3  4  4  0  0  0  0
  4  5  4  0  0  0  0
  4  7  4  0  0  0  0
  5  6  4  0  0  0  0
  5  9  4  0  0  0  0
  6 25  1  0  0  0  0
  7  8  4  0  0  0  0
  7 26  1  0  0  0  0
  8  9  4  0  0  0  0
  9 10  1  0  0  0  0
 10 11  4  0  0  0  0
 10 15  4  0  0  0  0
 11 12  4  0  0  0  0
 11 27  1  0  0  0  0
 12 13  4  0  0  0  0
 12 28  1  0  0  0  0
 13 14  4  0  0  0  0
 13 16  1  0  0  0  0
 14 15  4  0  0  0  0
 14 29  1  0  0  0  0
 15 30  1  0  0  0  0
 16 17  1  0  0  0  0
 17 31  1  0  0  0  0
 17 32  1  0  0  0  0
 17 33  1  0  0  0  0
 18 19  1  0  0  0  0
 18 34  1  0  0  0  0
 19 20  1  0  0  0  0
 19 23  1  0  0  0  0
 19 35  1  0  0  0  0
 20 21  1  0  0  0  0
 20 36  1  0  0  0  0
 20 37  1  0  0  0  0
 21 22  1  0  0  0  0
 21 24  1  0  0  0  0
 21 38  1  0  0  0  0
 22 23  1  0  0  0  0
 22 39  1  0  0  0  0
 22 40  1  0  0  0  0
 23 41  1  0  0  0  0
 23 42  1  0  0  0  0
 24 43  1  0  0  0  0
 24 44  1  0  0  0  0
M  END
> <ConfClashScore>
0 

> <ConfOneFourInteractionScore>
-0.984337 

> <ConfScore>
-0.035146 

> <ConfScorePBest>
0.00331334 

> <ConfTolerance>
0.332773 

$$$$
c13.sdf
 OpenBabel04162418043D

 44 47  0  0  0  0  0  0  0  0999 V2000
    2.5860    2.0382   -3.3471 N   0  0  0  1  0  0  0  0  0  0  0  0
    3.7759    1.7671   -3.8561 C   0  0  0  1  0  0  0  0  0  0  0  0
    4.0332    1.8679   -5.1400 N   0  0  0  1  0  0  0  0  0  0  0  0
    3.0799    2.2559   -5.9910 C   0  0  0  1  0  0  0  0  0  0  0  0
    1.7975    2.5537   -5.4827 C   0  0  0  1  0  0  0  0  0  0  0  0
    1.5826    2.4292   -4.1133 C   0  0  0  1  0  0  0  0  0  0  0  0
    3.0234    2.4616   -7.3869 C   0  0  0  1  0  0  0  0  0  0  0  0
    1.8206    2.8487   -7.7046 N   0  0  0  1  0  0  0  0  0  0  0  0
    1.0260    2.9196   -6.5529 N   0  0  0  1  0  0  0  0  0  0  0  0
   -0.3241    3.3226   -6.6785 C   0  0  0  1  0  0  0  0  0  0  0  0
   -0.8967    3.4392   -7.9309 C   0  0  0  1  0  0  0  0  0  0  0  0
   -2.2213    3.8290   -8.0537 C   0  0  0  1  0  0  0  0  0  0  0  0
   -2.9677    4.1063   -6.9240 C   0  0  0  1  0  0  0  0  0  0  0  0
   -2.3932    3.9893   -5.6679 C   0  0  0  1  0  0  0  0  0  0  0  0
   -1.0725    3.6007   -5.5453 C   0  0  0  1  0  0  0  0  0  0  0  0
   -4.2571    4.4912   -7.0439 O   0  0  0  1  0  0  0  0  0  0  0  0
   -4.8508    4.5776   -8.3488 C   0  0  0  1  0  0  0  0  0  0  0  0
    4.7884    1.3621   -3.0057 N   0  0  0  1  0  0  0  0  0  0  0  0
    4.5224    1.2113   -1.5756 C   0  0  0  1  0  0  0  0  0  0  0  0
    4.9384   -0.1839   -1.0967 C   0  0  0  1  0  0  0  0  0  0  0  0
    6.3897   -0.0258   -0.6432 C   0  0  0  1  0  0  0  0  0  0  0  0
    6.3636    1.3417    0.0440 C   0  0  0  1  0  0  0  0  0  0  0  0
    5.3794    2.1909   -0.7638 C   0  0  0  1  0  0  0  0  0  0  0  0
    6.7731   -1.0873    0.2967 N   0  0  0  1  0  0  0  0  0  0  0  0
    0.6512    2.6396   -3.7013 H   0  0  0  1  0  0  0  0  0  0  0  0
    3.8117    2.3264   -8.0516 H   0  0  0  1  0  0  0  0  0  0  0  0
   -0.3339    3.2345   -8.7812 H   0  0  0  1  0  0  0  0  0  0  0  0
   -2.6534    3.9129   -8.9959 H   0  0  0  1  0  0  0  0  0  0  0  0
   -2.9560    4.1940   -4.8176 H   0  0  0  1  0  0  0  0  0  0  0  0
   -0.6404    3.5168   -4.6031 H   0  0  0  1  0  0  0  0  0  0  0  0
   -5.0006    3.5926   -8.7389 H   0  0  0  1  0  0  0  0  0  0  0  0
   -4.2014    5.1240   -9.0004 H   0  0  0  1  0  0  0  0  0  0  0  0
   -5.7927    5.0805   -8.2792 H   0  0  0  1  0  0  0  0  0  0  0  0
    5.6827    1.1764   -3.3608 H   0  0  0  1  0  0  0  0  0  0  0  0
    3.4825    1.3776   -1.3862 H   0  0  0  1  0  0  0  0  0  0  0  0
    4.8685   -0.8925   -1.8954 H   0  0  0  1  0  0  0  0  0  0  0  0
    4.3218   -0.5019   -0.2821 H   0  0  0  1  0  0  0  0  0  0  0  0
    7.0597   -0.0283   -1.4775 H   0  0  0  1  0  0  0  0  0  0  0  0
    7.3374    1.7848    0.0304 H   0  0  0  1  0  0  0  0  0  0  0  0
    6.0294    1.2445    1.0558 H   0  0  0  1  0  0  0  0  0  0  0  0
    4.7610    2.7655   -0.1063 H   0  0  0  1  0  0  0  0  0  0  0  0
    5.9107    2.8483   -1.4200 H   0  0  0  1  0  0  0  0  0  0  0  0
    6.1837   -1.0600    1.0792 H   0  0  0  1  0  0  0  0  0  0  0  0
    7.7008   -0.9515    0.5819 H   0  0  0  1  0  0  0  0  0  0  0  0
  1  2  4  0  0  0  0
  1  6  4  0  0  0  0
  2  3  4  0  0  0  0
  2 18  1  0  0  0  0
  3  4  4  0  0  0  0
  4  5  4  0  0  0  0
  4  7  4  0  0  0  0
  5  6  4  0  0  0  0
  5  9  4  0  0  0  0
  6 25  1  0  0  0  0
  7  8  4  0  0  0  0
  7 26  1  0  0  0  0
  8  9  4  0  0  0  0
  9 10  1  0  0  0  0
 10 11  4  0  0  0  0
 10 15  4  0  0  0  0
 11 12  4  0  0  0  0
 11 27  1  0  0  0  0
 12 13  4  0  0  0  0
 12 28  1  0  0  0  0
 13 14  4  0  0  0  0
 13 16  1  0  0  0  0
 14 15  4  0  0  0  0
 14 29  1  0  0  0  0
 15 30  1  0  0  0  0
 16 17  1  0  0  0  0
 17 31  1  0  0  0  0
 17 32  1  0  0  0  0
 17 33  1  0  0  0  0
 18 19  1  0  0  0  0
 18 34  1  0  0  0  0
 19 20  1  0  0  0  0
 19 23  1  0  0  0  0
 19 35  1  0  0  0  0
 20 21  1  0  0  0  0
 20 36  1  0  0  0  0
 20 37  1  0  0  0  0
 21 22  1  0  0  0  0
 21 24  1  0  0  0  0
 21 38  1  0  0  0  0
 22 23  1  0  0  0  0
 22 39  1  0  0  0  0
 22 40  1  0  0  0  0
 23 41  1  0  0  0  0
 23 42  1  0  0  0  0
 24 43  1  0  0  0  0
 24 44  1  0  0  0  0
M  END
> <ConfClashScore>
0 

> <ConfOneFourInteractionScore>
-0.984337 

> <ConfScore>
-0.0338588 

> <ConfScorePBest>
0.00330001 

> <ConfTolerance>
0.3721 

$$$$
c13.sdf
 OpenBabel04162418043D

 44 47  0  0  0  0  0  0  0  0999 V2000
    2.6659    3.1022   -3.7642 N   0  0  0  1  0  0  0  0  0  0  0  0
    3.2388    2.7493   -2.6259 C   0  0  0  1  0  0  0  0  0  0  0  0
    3.1629    3.4850   -1.5406 N   0  0  0  1  0  0  0  0  0  0  0  0
    2.4898    4.6384   -1.5527 C   0  0  0  1  0  0  0  0  0  0  0  0
    1.8655    5.0465   -2.7506 C   0  0  0  1  0  0  0  0  0  0  0  0
    1.9794    4.2266   -3.8695 C   0  0  0  1  0  0  0  0  0  0  0  0
    2.2210    5.6374   -0.5916 C   0  0  0  1  0  0  0  0  0  0  0  0
    1.5003    6.5697   -1.1473 N   0  0  0  1  0  0  0  0  0  0  0  0
    1.2558    6.2439   -2.4878 N   0  0  0  1  0  0  0  0  0  0  0  0
    0.4045    7.0651   -3.2756 C   0  0  0  1  0  0  0  0  0  0  0  0
    0.8380    8.3081   -3.6966 C   0  0  0  1  0  0  0  0  0  0  0  0
   -0.0233    9.1441   -4.3900 C   0  0  0  1  0  0  0  0  0  0  0  0
   -1.3171    8.7370   -4.6557 C   0  0  0  1  0  0  0  0  0  0  0  0
   -1.7517    7.4902   -4.2333 C   0  0  0  1  0  0  0  0  0  0  0  0
   -0.8930    6.6566   -3.5420 C   0  0  0  1  0  0  0  0  0  0  0  0
   -2.0644    9.6364   -5.3321 O   0  0  0  1  0  0  0  0  0  0  0  0
   -3.3779    9.2584   -5.8058 C   0  0  0  1  0  0  0  0  0  0  0  0
    3.9418    1.6024   -2.5103 N   0  0  0  1  0  0  0  0  0  0  0  0
    4.4071    1.0620   -1.2448 C   0  0  0  1  0  0  0  0  0  0  0  0
    5.2894   -0.1650   -1.4866 C   0  0  0  1  0  0  0  0  0  0  0  0
    6.4636   -0.0272   -0.5145 C   0  0  0  1  0  0  0  0  0  0  0  0
    6.6890    1.4848   -0.4971 C   0  0  0  1  0  0  0  0  0  0  0  0
    5.2819    2.0918   -0.5188 C   0  0  0  1  0  0  0  0  0  0  0  0
    6.1058   -0.5381    0.8444 N   0  0  0  1  0  0  0  0  0  0  0  0
    1.5333    4.4934   -4.7703 H   0  0  0  1  0  0  0  0  0  0  0  0
    2.5449    5.6302    0.3966 H   0  0  0  1  0  0  0  0  0  0  0  0
    1.8103    8.6162   -3.4932 H   0  0  0  1  0  0  0  0  0  0  0  0
    0.3041   10.0778   -4.7103 H   0  0  0  1  0  0  0  0  0  0  0  0
   -2.7240    7.1822   -4.4367 H   0  0  0  1  0  0  0  0  0  0  0  0
   -1.2204    5.7229   -3.2216 H   0  0  0  1  0  0  0  0  0  0  0  0
   -3.2839    8.4882   -6.5426 H   0  0  0  1  0  0  0  0  0  0  0  0
   -3.8590   10.1100   -6.2398 H   0  0  0  1  0  0  0  0  0  0  0  0
   -3.9625    8.8975   -4.9855 H   0  0  0  1  0  0  0  0  0  0  0  0
    4.1504    1.1050   -3.3285 H   0  0  0  1  0  0  0  0  0  0  0  0
    3.5660    0.7985   -0.6381 H   0  0  0  1  0  0  0  0  0  0  0  0
    5.6410   -0.1784   -2.4971 H   0  0  0  1  0  0  0  0  0  0  0  0
    4.7428   -1.0629   -1.2867 H   0  0  0  1  0  0  0  0  0  0  0  0
    7.3283   -0.5445   -0.8743 H   0  0  0  1  0  0  0  0  0  0  0  0
    7.2118    1.7774    0.3894 H   0  0  0  1  0  0  0  0  0  0  0  0
    7.2453    1.7925   -1.3578 H   0  0  0  1  0  0  0  0  0  0  0  0
    4.9264    2.2489    0.4781 H   0  0  0  1  0  0  0  0  0  0  0  0
    5.2833    3.0217   -1.0482 H   0  0  0  1  0  0  0  0  0  0  0  0
    6.8949   -0.5047    1.4247 H   0  0  0  1  0  0  0  0  0  0  0  0
    5.7921   -1.4637    0.7730 H   0  0  0  1  0  0  0  0  0  0  0  0
  1  2  4  0  0  0  0
  1  6  4  0  0  0  0
  2  3  4  0  0  0  0
  2 18  1  0  0  0  0
  3  4  4  0  0  0  0
  4  5  4  0  0  0  0
  4  7  4  0  0  0  0
  5  6  4  0  0  0  0
  5  9  4  0  0  0  0
  6 25  1  0  0  0  0
  7  8  4  0  0  0  0
  7 26  1  0  0  0  0
  8  9  4  0  0  0  0
  9 10  1  0  0  0  0
 10 11  4  0  0  0  0
 10 15  4  0  0  0  0
 11 12  4  0  0  0  0
 11 27  1  0  0  0  0
 12 13  4  0  0  0  0
 12 28  1  0  0  0  0
 13 14  4  0  0  0  0
 13 16  1  0  0  0  0
 14 15  4  0  0  0  0
 14 29  1  0  0  0  0
 15 30  1  0  0  0  0
 16 17  1  0  0  0  0
 17 31  1  0  0  0  0
 17 32  1  0  0  0  0
 17 33  1  0  0  0  0
 18 19  1  0  0  0  0
 18 34  1  0  0  0  0
 19 20  1  0  0  0  0
 19 23  1  0  0  0  0
 19 35  1  0  0  0  0
 20 21  1  0  0  0  0
 20 36  1  0  0  0  0
 20 37  1  0  0  0  0
 21 22  1  0  0  0  0
 21 24  1  0  0  0  0
 21 38  1  0  0  0  0
 22 23  1  0  0  0  0
 22 39  1  0  0  0  0
 22 40  1  0  0  0  0
 23 41  1  0  0  0  0
 23 42  1  0  0  0  0
 24 43  1  0  0  0  0
 24 44  1  0  0  0  0
M  END
> <ConfClashScore>
0 

> <ConfOneFourInteractionScore>
-0.981704 

> <ConfScore>
-0.0330423 

> <ConfScorePBest>
0.00328668 

> <ConfTolerance>
0.404732 

$$$$
c13.sdf
 OpenBabel04162418043D

 44 47  0  0  0  0  0  0  0  0999 V2000
    2.9952    2.0688   -4.4855 N   0  0  0  1  0  0  0  0  0  0  0  0
    3.1645    1.3322   -3.4005 C   0  0  0  1  0  0  0  0  0  0  0  0
    2.3778    0.3233   -3.1034 N   0  0  0  1  0  0  0  0  0  0  0  0
    1.3593    0.0026   -3.9055 C   0  0  0  1  0  0  0  0  0  0  0  0
    1.1486    0.7673   -5.0726 C   0  0  0  1  0  0  0  0  0  0  0  0
    2.0140    1.8249   -5.3367 C   0  0  0  1  0  0  0  0  0  0  0  0
    0.3553   -0.9900   -3.8813 C   0  0  0  1  0  0  0  0  0  0  0  0
   -0.3995   -0.8477   -4.9337 N   0  0  0  1  0  0  0  0  0  0  0  0
    0.0568    0.2317   -5.7015 N   0  0  0  1  0  0  0  0  0  0  0  0
   -0.5954    0.5930   -6.8978 C   0  0  0  1  0  0  0  0  0  0  0  0
   -1.7959   -0.0283   -7.1855 C   0  0  0  1  0  0  0  0  0  0  0  0
   -2.4820    0.2936   -8.3462 C   0  0  0  1  0  0  0  0  0  0  0  0
   -1.9629    1.2318   -9.2184 C   0  0  0  1  0  0  0  0  0  0  0  0
   -0.7588    1.8549   -8.9296 C   0  0  0  1  0  0  0  0  0  0  0  0
   -0.0746    1.5340   -7.7723 C   0  0  0  1  0  0  0  0  0  0  0  0
   -2.5794    1.4741  -10.3995 O   0  0  0  1  0  0  0  0  0  0  0  0
   -2.0359    2.5191  -11.2212 C   0  0  0  1  0  0  0  0  0  0  0  0
    4.1876    1.6627   -2.6046 N   0  0  0  1  0  0  0  0  0  0  0  0
    4.4672    1.1157   -1.2737 C   0  0  0  1  0  0  0  0  0  0  0  0
    5.2649   -0.2302   -1.3838 C   0  0  0  1  0  0  0  0  0  0  0  0
    6.5334   -0.0796   -0.5239 C   0  0  0  1  0  0  0  0  0  0  0  0
    6.8076    1.4609   -0.5784 C   0  0  0  1  0  0  0  0  0  0  0  0
    5.3918    2.0440   -0.4926 C   0  0  0  1  0  0  0  0  0  0  0  0
    6.2881   -0.5370    0.8892 N   0  0  0  1  0  0  0  0  0  0  0  0
    1.8910    2.4114   -6.1867 H   0  0  0  1  0  0  0  0  0  0  0  0
    0.2377   -1.7150   -3.1450 H   0  0  0  1  0  0  0  0  0  0  0  0
   -2.1846   -0.7372   -6.5313 H   0  0  0  1  0  0  0  0  0  0  0  0
   -3.3874   -0.1710   -8.5608 H   0  0  0  1  0  0  0  0  0  0  0  0
   -0.3701    2.5638   -9.5838 H   0  0  0  1  0  0  0  0  0  0  0  0
    0.8308    1.9985   -7.5577 H   0  0  0  1  0  0  0  0  0  0  0  0
   -2.8250    2.9882  -11.7709 H   0  0  0  1  0  0  0  0  0  0  0  0
   -1.3249    2.1024  -11.9036 H   0  0  0  1  0  0  0  0  0  0  0  0
   -1.5528    3.2452  -10.6012 H   0  0  0  1  0  0  0  0  0  0  0  0
    4.8119    2.3371   -2.9449 H   0  0  0  1  0  0  0  0  0  0  0  0
    3.5471    0.9681   -0.7477 H   0  0  0  1  0  0  0  0  0  0  0  0
    4.6688   -1.0404   -1.0187 H   0  0  0  1  0  0  0  0  0  0  0  0
    5.5329   -0.4149   -2.4031 H   0  0  0  1  0  0  0  0  0  0  0  0
    7.3497   -0.6313   -0.9413 H   0  0  0  1  0  0  0  0  0  0  0  0
    7.2863    1.7376   -1.4945 H   0  0  0  1  0  0  0  0  0  0  0  0
    7.4084    1.7775    0.2484 H   0  0  0  1  0  0  0  0  0  0  0  0
    5.3735    3.0239   -0.9219 H   0  0  0  1  0  0  0  0  0  0  0  0
    5.0793    2.0959    0.5294 H   0  0  0  1  0  0  0  0  0  0  0  0
    6.1063   -1.5000    0.8944 H   0  0  0  1  0  0  0  0  0  0  0  0
    5.5174   -0.0573    1.2584 H   0  0  0  1  0  0  0  0  0  0  0  0
  1  2  4  0  0  0  0
  1  6  4  0  0  0  0
  2  3  4  0  0  0  0
  2 18  1  0  0  0  0
  3  4  4  0  0  0  0
  4  5  4  0  0  0  0
  4  7  4  0  0  0  0
  5  6  4  0  0  0  0
  5  9  4  0  0  0  0
  6 25  1  0  0  0  0
  7  8  4  0  0  0  0
  7 26  1  0  0  0  0
  8  9  4  0  0  0  0
  9 10  1  0  0  0  0
 10 11  4  0  0  0  0
 10 15  4  0  0  0  0
 11 12  4  0  0  0  0
 11 27  1  0  0  0  0
 12 13  4  0  0  0  0
 12 28  1  0  0  0  0
 13 14  4  0  0  0  0
 13 16  1  0  0  0  0
 14 15  4  0  0  0  0
 14 29  1  0  0  0  0
 15 30  1  0  0  0  0
 16 17  1  0  0  0  0
 17 31  1  0  0  0  0
 17 32  1  0  0  0  0
 17 33  1  0  0  0  0
 18 19  1  0  0  0  0
 18 34  1  0  0  0  0
 19 20  1  0  0  0  0
 19 23  1  0  0  0  0
 19 35  1  0  0  0  0
 20 21  1  0  0  0  0
 20 36  1  0  0  0  0
 20 37  1  0  0  0  0
 21 22  1  0  0  0  0
 21 24  1  0  0  0  0
 21 38  1  0  0  0  0
 22 23  1  0  0  0  0
 22 39  1  0  0  0  0
 22 40  1  0  0  0  0
 23 41  1  0  0  0  0
 23 42  1  0  0  0  0
 24 43  1  0  0  0  0
 24 44  1  0  0  0  0
M  END
> <ConfClashScore>
0 

> <ConfOneFourInteractionScore>
-0.984337 

> <ConfScore>
-0.0323241 

> <ConfScorePBest>
0.00327336 

> <ConfTolerance>
0.410664 

$$$$
c13.sdf
 OpenBabel04162418043D

 44 47  0  0  0  0  0  0  0  0999 V2000
    2.4783   -0.6291   -2.0404 N   0  0  0  1  0  0  0  0  0  0  0  0
    2.5854    0.5092   -2.7046 C   0  0  0  1  0  0  0  0  0  0  0  0
    1.8339    0.7925   -3.7439 N   0  0  0  1  0  0  0  0  0  0  0  0
    0.9177   -0.0797   -4.1721 C   0  0  0  1  0  0  0  0  0  0  0  0
    0.7757   -1.3052   -3.4869 C   0  0  0  1  0  0  0  0  0  0  0  0
    1.5993   -1.5512   -2.3923 C   0  0  0  1  0  0  0  0  0  0  0  0
   -0.0243   -0.0889   -5.2240 C   0  0  0  1  0  0  0  0  0  0  0  0
   -0.6817   -1.2131   -5.1874 N   0  0  0  1  0  0  0  0  0  0  0  0
   -0.2175   -1.9990   -4.1245 N   0  0  0  1  0  0  0  0  0  0  0  0
   -0.7775   -3.2832   -3.8685 C   0  0  0  1  0  0  0  0  0  0  0  0
   -0.0415   -4.2346   -3.1880 C   0  0  0  1  0  0  0  0  0  0  0  0
   -0.5885   -5.4827   -2.9341 C   0  0  0  1  0  0  0  0  0  0  0  0
   -1.8679   -5.7776   -3.3662 C   0  0  0  1  0  0  0  0  0  0  0  0
   -2.6059   -4.8231   -4.0487 C   0  0  0  1  0  0  0  0  0  0  0  0
   -2.0606   -3.5786   -4.3019 C   0  0  0  1  0  0  0  0  0  0  0  0
   -2.2928   -7.0278   -3.0657 O   0  0  0  1  0  0  0  0  0  0  0  0
   -3.4775   -7.4954   -3.7292 C   0  0  0  1  0  0  0  0  0  0  0  0
    3.5235    1.4373   -2.2906 N   0  0  0  1  0  0  0  0  0  0  0  0
    4.3837    1.0825   -1.1687 C   0  0  0  1  0  0  0  0  0  0  0  0
    5.2861   -0.1611   -1.5123 C   0  0  0  1  0  0  0  0  0  0  0  0
    6.4309   -0.0071   -0.4600 C   0  0  0  1  0  0  0  0  0  0  0  0
    6.5772    1.4903   -0.1815 C   0  0  0  1  0  0  0  0  0  0  0  0
    5.4192    2.1666   -0.9025 C   0  0  0  1  0  0  0  0  0  0  0  0
    6.0807   -0.7187    0.7750 N   0  0  0  1  0  0  0  0  0  0  0  0
    1.5245   -2.4426   -1.8619 H   0  0  0  1  0  0  0  0  0  0  0  0
   -0.1695    0.6756   -5.9140 H   0  0  0  1  0  0  0  0  0  0  0  0
    0.9227   -4.0142   -2.8663 H   0  0  0  1  0  0  0  0  0  0  0  0
   -0.0363   -6.1974   -2.4185 H   0  0  0  1  0  0  0  0  0  0  0  0
   -3.5701   -5.0435   -4.3704 H   0  0  0  1  0  0  0  0  0  0  0  0
   -2.6128   -2.8639   -4.8175 H   0  0  0  1  0  0  0  0  0  0  0  0
   -3.5870   -8.5471   -3.5655 H   0  0  0  1  0  0  0  0  0  0  0  0
   -3.3970   -7.3045   -4.7789 H   0  0  0  1  0  0  0  0  0  0  0  0
   -4.3312   -6.9829   -3.3374 H   0  0  0  1  0  0  0  0  0  0  0  0
    3.6071    2.3056   -2.7372 H   0  0  0  1  0  0  0  0  0  0  0  0
    3.7832    0.8985   -0.3024 H   0  0  0  1  0  0  0  0  0  0  0  0
    4.7538   -1.0799   -1.3804 H   0  0  0  1  0  0  0  0  0  0  0  0
    5.6632   -0.1072   -2.5122 H   0  0  0  1  0  0  0  0  0  0  0  0
    7.3460   -0.3999   -0.8514 H   0  0  0  1  0  0  0  0  0  0  0  0
    6.5217    1.6799    0.8702 H   0  0  0  1  0  0  0  0  0  0  0  0
    7.5113    1.8493   -0.5603 H   0  0  0  1  0  0  0  0  0  0  0  0
    5.7557    2.5908   -1.8254 H   0  0  0  1  0  0  0  0  0  0  0  0
    4.9996    2.9354   -0.2879 H   0  0  0  1  0  0  0  0  0  0  0  0
    6.7874   -0.5856    1.4408 H   0  0  0  1  0  0  0  0  0  0  0  0
    5.9871   -1.6755    0.5851 H   0  0  0  1  0  0  0  0  0  0  0  0
  1  2  4  0  0  0  0
  1  6  4  0  0  0  0
  2  3  4  0  0  0  0
  2 18  1  0  0  0  0
  3  4  4  0  0  0  0
  4  5  4  0  0  0  0
  4  7  4  0  0  0  0
  5  6  4  0  0  0  0
  5  9  4  0  0  0  0
  6 25  1  0  0  0  0
  7  8  4  0  0  0  0
  7 26  1  0  0  0  0
  8  9  4  0  0  0  0
  9 10  1  0  0  0  0
 10 11  4  0  0  0  0
 10 15  4  0  0  0  0
 11 12  4  0  0  0  0
 11 27  1  0  0  0  0
 12 13  4  0  0  0  0
 12 28  1  0  0  0  0
 13 14  4  0  0  0  0
 13 16  1  0  0  0  0
 14 15  4  0  0  0  0
 14 29  1  0  0  0  0
 15 30  1  0  0  0  0
 16 17  1  0  0  0  0
 17 31  1  0  0  0  0
 17 32  1  0  0  0  0
 17 33  1  0  0  0  0
 18 19  1  0  0  0  0
 18 34  1  0  0  0  0
 19 20  1  0  0  0  0
 19 23  1  0  0  0  0
 19 35  1  0  0  0  0
 20 21  1  0  0  0  0
 20 36  1  0  0  0  0
 20 37  1  0  0  0  0
 21 22  1  0  0  0  0
 21 24  1  0  0  0  0
 21 38  1  0  0  0  0
 22 23  1  0  0  0  0
 22 39  1  0  0  0  0
 22 40  1  0  0  0  0
 23 41  1  0  0  0  0
 23 42  1  0  0  0  0
 24 43  1  0  0  0  0
 24 44  1  0  0  0  0
M  END
> <ConfClashScore>
0 

> <ConfOneFourInteractionScore>
-0.981848 

> <ConfScore>
-0.0322075 

> <ConfScorePBest>
0.00326003 

> <ConfTolerance>
0.285486 

$$$$
c13.sdf
 OpenBabel04162418043D

 44 47  0  0  0  0  0  0  0  0999 V2000
    5.3449    2.6392   -4.7995 N   0  0  0  1  0  0  0  0  0  0  0  0
    4.9011    2.6095   -3.5543 C   0  0  0  1  0  0  0  0  0  0  0  0
    4.3939    3.6659   -2.9611 N   0  0  0  1  0  0  0  0  0  0  0  0
    4.3084    4.8292   -3.6114 C   0  0  0  1  0  0  0  0  0  0  0  0
    4.7725    4.8976   -4.9423 C   0  0  0  1  0  0  0  0  0  0  0  0
    5.3003    3.7465   -5.5197 C   0  0  0  1  0  0  0  0  0  0  0  0
    3.8320    6.1162   -3.2788 C   0  0  0  1  0  0  0  0  0  0  0  0
    3.9890    6.8996   -4.3079 N   0  0  0  1  0  0  0  0  0  0  0  0
    4.5698    6.1845   -5.3635 N   0  0  0  1  0  0  0  0  0  0  0  0
    4.8464    6.8185   -6.6083 C   0  0  0  1  0  0  0  0  0  0  0  0
    5.8554    7.7589   -6.6955 C   0  0  0  1  0  0  0  0  0  0  0  0
    6.1282    8.3720   -7.9084 C   0  0  0  1  0  0  0  0  0  0  0  0
    5.3878    8.0469   -9.0293 C   0  0  0  1  0  0  0  0  0  0  0  0
    4.3758    7.1036   -8.9416 C   0  0  0  1  0  0  0  0  0  0  0  0
    4.1037    6.4922   -7.7323 C   0  0  0  1  0  0  0  0  0  0  0  0
    5.6859    8.5458  -10.2447 O   0  0  0  1  0  0  0  0  0  0  0  0
    6.7251    9.5521  -10.2553 C   0  0  0  1  0  0  0  0  0  0  0  0
    4.9931    1.4217   -2.9032 N   0  0  0  1  0  0  0  0  0  0  0  0
    4.5522    1.2110   -1.5205 C   0  0  0  1  0  0  0  0  0  0  0  0
    4.9691   -0.1717   -1.0076 C   0  0  0  1  0  0  0  0  0  0  0  0
    6.4506   -0.0192   -0.6519 C   0  0  0  1  0  0  0  0  0  0  0  0
    6.6476    1.4728   -0.3517 C   0  0  0  1  0  0  0  0  0  0  0  0
    5.2823    2.1364   -0.5610 C   0  0  0  1  0  0  0  0  0  0  0  0
    6.7882   -0.8458    0.5541 N   0  0  0  1  0  0  0  0  0  0  0  0
    5.6525    3.7574   -6.4982 H   0  0  0  1  0  0  0  0  0  0  0  0
    3.4233    6.3930   -2.3634 H   0  0  0  1  0  0  0  0  0  0  0  0
    6.4100    8.0065   -5.8513 H   0  0  0  1  0  0  0  0  0  0  0  0
    6.8901    9.0767   -7.9750 H   0  0  0  1  0  0  0  0  0  0  0  0
    3.8212    6.8560   -9.7859 H   0  0  0  1  0  0  0  0  0  0  0  0
    3.3418    5.7875   -7.6657 H   0  0  0  1  0  0  0  0  0  0  0  0
    6.3085   10.4985   -9.9803 H   0  0  0  1  0  0  0  0  0  0  0  0
    7.1460    9.6195  -11.2367 H   0  0  0  1  0  0  0  0  0  0  0  0
    7.4893    9.2825   -9.5566 H   0  0  0  1  0  0  0  0  0  0  0  0
    5.3769    0.6600   -3.3858 H   0  0  0  1  0  0  0  0  0  0  0  0
    3.4924    1.3451   -1.4592 H   0  0  0  1  0  0  0  0  0  0  0  0
    4.8375   -0.9124   -1.7685 H   0  0  0  1  0  0  0  0  0  0  0  0
    4.3989   -0.4420   -0.1435 H   0  0  0  1  0  0  0  0  0  0  0  0
    7.0656   -0.3196   -1.4744 H   0  0  0  1  0  0  0  0  0  0  0  0
    6.9742    1.6076    0.6582 H   0  0  0  1  0  0  0  0  0  0  0  0
    7.3701    1.8929   -1.0198 H   0  0  0  1  0  0  0  0  0  0  0  0
    5.3970    3.1104   -0.9889 H   0  0  0  1  0  0  0  0  0  0  0  0
    4.7534    2.2134    0.3659 H   0  0  0  1  0  0  0  0  0  0  0  0
    6.5603   -1.7833    0.3823 H   0  0  0  1  0  0  0  0  0  0  0  0
    6.2777   -0.5218    1.3253 H   0  0  0  1  0  0  0  0  0  0  0  0
  1  2  4  0  0  0  0
  1  6  4  0  0  0  0
  2  3  4  0  0  0  0
  2 18  1  0  0  0  0
  3  4  4  0  0  0  0
  4  5  4  0  0  0  0
  4  7  4  0  0  0  0
  5  6  4  0  0  0  0
  5  9  4  0  0  0  0
  6 25  1  0  0  0  0
  7  8  4  0  0  0  0
  7 26  1  0  0  0  0
  8  9  4  0  0  0  0
  9 10  1  0  0  0  0
 10 11  4  0  0  0  0
 10 15  4  0  0  0  0
 11 12  4  0  0  0  0
 11 27  1  0  0  0  0
 12 13  4  0  0  0  0
 12 28  1  0  0  0  0
 13 14  4  0  0  0  0
 13 16  1  0  0  0  0
 14 15  4  0  0  0  0
 14 29  1  0  0  0  0
 15 30  1  0  0  0  0
 16 17  1  0  0  0  0
 17 31  1  0  0  0  0
 17 32  1  0  0  0  0
 17 33  1  0  0  0  0
 18 19  1  0  0  0  0
 18 34  1  0  0  0  0
 19 20  1  0  0  0  0
 19 23  1  0  0  0  0
 19 35  1  0  0  0  0
 20 21  1  0  0  0  0
 20 36  1  0  0  0  0
 20 37  1  0  0  0  0
 21 22  1  0  0  0  0
 21 24  1  0  0  0  0
 21 38  1  0  0  0  0
 22 23  1  0  0  0  0
 22 39  1  0  0  0  0
 22 40  1  0  0  0  0
 23 41  1  0  0  0  0
 23 42  1  0  0  0  0
 24 43  1  0  0  0  0
 24 44  1  0  0  0  0
M  END
> <ConfClashScore>
0 

> <ConfOneFourInteractionScore>
-0.985399 

> <ConfScore>
-0.0320565 

> <ConfScorePBest>
0.0032467 

> <ConfTolerance>
0.426724 

$$$$
c13.sdf
 OpenBabel04162418043D

 44 47  0  0  0  0  0  0  0  0999 V2000
    2.1240    0.9618   -4.0177 N   0  0  0  1  0  0  0  0  0  0  0  0
    2.5638    0.9850   -2.7709 C   0  0  0  1  0  0  0  0  0  0  0  0
    1.8110    0.6411   -1.7511 N   0  0  0  1  0  0  0  0  0  0  0  0
    0.5494    0.2485   -1.9456 C   0  0  0  1  0  0  0  0  0  0  0  0
    0.0463    0.2114   -3.2635 C   0  0  0  1  0  0  0  0  0  0  0  0
    0.8896    0.5869   -4.3051 C   0  0  0  1  0  0  0  0  0  0  0  0
   -0.4972   -0.1746   -1.0973 C   0  0  0  1  0  0  0  0  0  0  0  0
   -1.5429   -0.4455   -1.8258 N   0  0  0  1  0  0  0  0  0  0  0  0
   -1.2503   -0.2197   -3.1772 N   0  0  0  1  0  0  0  0  0  0  0  0
   -2.2536   -0.4541   -4.1391 C   0  0  0  1  0  0  0  0  0  0  0  0
   -3.4616    0.1974   -3.9763 C   0  0  0  1  0  0  0  0  0  0  0  0
   -4.4810    0.0069   -4.8961 C   0  0  0  1  0  0  0  0  0  0  0  0
   -4.2914   -0.8384   -5.9730 C   0  0  0  1  0  0  0  0  0  0  0  0
   -3.0797   -1.4918   -6.1361 C   0  0  0  1  0  0  0  0  0  0  0  0
   -2.0632   -1.3020   -5.2191 C   0  0  0  1  0  0  0  0  0  0  0  0
   -5.4151   -0.9554   -6.8444 O   0  0  0  1  0  0  0  0  0  0  0  0
   -6.7160   -0.3658   -6.5084 C   0  0  0  1  0  0  0  0  0  0  0  0
    3.8116    1.3631   -2.4719 N   0  0  0  1  0  0  0  0  0  0  0  0
    4.4676    1.2361   -1.1767 C   0  0  0  1  0  0  0  0  0  0  0  0
    5.0209   -0.1961   -1.0334 C   0  0  0  1  0  0  0  0  0  0  0  0
    6.4749    0.0167   -0.6162 C   0  0  0  1  0  0  0  0  0  0  0  0
    6.4033    1.4638   -0.0663 C   0  0  0  1  0  0  0  0  0  0  0  0
    5.5906    2.2865   -1.0791 C   0  0  0  1  0  0  0  0  0  0  0  0
    6.8934   -0.9548    0.4406 N   0  0  0  1  0  0  0  0  0  0  0  0
    0.5552    0.5729   -5.2898 H   0  0  0  1  0  0  0  0  0  0  0  0
   -0.4424   -0.2565   -0.0620 H   0  0  0  1  0  0  0  0  0  0  0  0
   -3.6057    0.8304   -3.1638 H   0  0  0  1  0  0  0  0  0  0  0  0
   -5.3886    0.5003   -4.7758 H   0  0  0  1  0  0  0  0  0  0  0  0
   -2.9356   -2.1248   -6.9486 H   0  0  0  1  0  0  0  0  0  0  0  0
   -1.1555   -1.7953   -5.3393 H   0  0  0  1  0  0  0  0  0  0  0  0
   -7.1141   -0.8497   -5.6411 H   0  0  0  1  0  0  0  0  0  0  0  0
   -7.3891   -0.4961   -7.3299 H   0  0  0  1  0  0  0  0  0  0  0  0
   -6.5933    0.6783   -6.3092 H   0  0  0  1  0  0  0  0  0  0  0  0
    4.3365    1.7652   -3.1952 H   0  0  0  1  0  0  0  0  0  0  0  0
    3.7565    1.4139   -0.3972 H   0  0  0  1  0  0  0  0  0  0  0  0
    4.4845   -0.7388   -0.2833 H   0  0  0  1  0  0  0  0  0  0  0  0
    4.9641   -0.7217   -1.9637 H   0  0  0  1  0  0  0  0  0  0  0  0
    7.1398   -0.0556   -1.4514 H   0  0  0  1  0  0  0  0  0  0  0  0
    7.3885    1.8696    0.0310 H   0  0  0  1  0  0  0  0  0  0  0  0
    5.9181    1.4713    0.8874 H   0  0  0  1  0  0  0  0  0  0  0  0
    6.1038    2.4440   -2.0047 H   0  0  0  1  0  0  0  0  0  0  0  0
    5.2580    3.2263   -0.6906 H   0  0  0  1  0  0  0  0  0  0  0  0
    6.8273   -1.8677    0.0904 H   0  0  0  1  0  0  0  0  0  0  0  0
    6.3075   -0.8612    1.2206 H   0  0  0  1  0  0  0  0  0  0  0  0
  1  2  4  0  0  0  0
  1  6  4  0  0  0  0
  2  3  4  0  0  0  0
  2 18  1  0  0  0  0
  3  4  4  0  0  0  0
  4  5  4  0  0  0  0
  4  7  4  0  0  0  0
  5  6  4  0  0  0  0
  5  9  4  0  0  0  0
  6 25  1  0  0  0  0
  7  8  4  0  0  0  0
  7 26  1  0  0  0  0
  8  9  4  0  0  0  0
  9 10  1  0  0  0  0
 10 11  4  0  0  0  0
 10 15  4  0  0  0  0
 11 12  4  0  0  0  0
 11 27  1  0  0  0  0
 12 13  4  0  0  0  0
 12 28  1  0  0  0  0
 13 14  4  0  0  0  0
 13 16  1  0  0  0  0
 14 15  4  0  0  0  0
 14 29  1  0  0  0  0
 15 30  1  0  0  0  0
 16 17  1  0  0  0  0
 17 31  1  0  0  0  0
 17 32  1  0  0  0  0
 17 33  1  0  0  0  0
 18 19  1  0  0  0  0
 18 34  1  0  0  0  0
 19 20  1  0  0  0  0
 19 23  1  0  0  0  0
 19 35  1  0  0  0  0
 20 21  1  0  0  0  0
 20 36  1  0  0  0  0
 20 37  1  0  0  0  0
 21 22  1  0  0  0  0
 21 24  1  0  0  0  0
 21 38  1  0  0  0  0
 22 23  1  0  0  0  0
 22 39  1  0  0  0  0
 22 40  1  0  0  0  0
 23 41  1  0  0  0  0
 23 42  1  0  0  0  0
 24 43  1  0  0  0  0
 24 44  1  0  0  0  0
M  END
> <ConfClashScore>
0 

> <ConfOneFourInteractionScore>
-0.984337 

> <ConfScore>
-0.0318287 

> <ConfScorePBest>
0.00323337 

> <ConfTolerance>
0.361924 

$$$$
c13.sdf
 OpenBabel04162418043D

 44 47  0  0  0  0  0  0  0  0999 V2000
    3.0779   -0.5840   -2.9444 N   0  0  0  1  0  0  0  0  0  0  0  0
    3.7943    0.2815   -3.6415 C   0  0  0  1  0  0  0  0  0  0  0  0
    3.8302    0.2717   -4.9544 N   0  0  0  1  0  0  0  0  0  0  0  0
    3.1286   -0.6331   -5.6419 C   0  0  0  1  0  0  0  0  0  0  0  0
    2.3524   -1.5727   -4.9305 C   0  0  0  1  0  0  0  0  0  0  0  0
    2.3526   -1.5146   -3.5399 C   0  0  0  1  0  0  0  0  0  0  0  0
    2.9506   -0.9127   -7.0146 C   0  0  0  1  0  0  0  0  0  0  0  0
    2.1420   -1.9272   -7.1337 N   0  0  0  1  0  0  0  0  0  0  0  0
    1.7459   -2.3690   -5.8645 N   0  0  0  1  0  0  0  0  0  0  0  0
    0.8574   -3.4727   -5.7213 C   0  0  0  1  0  0  0  0  0  0  0  0
   -0.4409   -3.3793   -6.1858 C   0  0  0  1  0  0  0  0  0  0  0  0
   -1.3042   -4.4554   -6.0511 C   0  0  0  1  0  0  0  0  0  0  0  0
   -0.8683   -5.6199   -5.4475 C   0  0  0  1  0  0  0  0  0  0  0  0
    0.4340   -5.7134   -4.9817 C   0  0  0  1  0  0  0  0  0  0  0  0
    1.2948   -4.6405   -5.1159 C   0  0  0  1  0  0  0  0  0  0  0  0
   -1.6833   -6.6962   -5.3987 O   0  0  0  1  0  0  0  0  0  0  0  0
   -3.0460   -6.5716   -5.8346 C   0  0  0  1  0  0  0  0  0  0  0  0
    4.4830    1.1726   -2.8967 N   0  0  0  1  0  0  0  0  0  0  0  0
    4.4518    1.2102   -1.4310 C   0  0  0  1  0  0  0  0  0  0  0  0
    4.8858   -0.1752   -0.8440 C   0  0  0  1  0  0  0  0  0  0  0  0
    6.4283   -0.0025   -0.6337 C   0  0  0  1  0  0  0  0  0  0  0  0
    6.5677    1.4567   -0.1584 C   0  0  0  1  0  0  0  0  0  0  0  0
    5.4763    2.2509   -0.8975 C   0  0  0  1  0  0  0  0  0  0  0  0
    6.9370   -0.9559    0.4074 N   0  0  0  1  0  0  0  0  0  0  0  0
    1.7932   -2.1898   -2.9807 H   0  0  0  1  0  0  0  0  0  0  0  0
    3.3921   -0.3942   -7.8007 H   0  0  0  1  0  0  0  0  0  0  0  0
   -0.7702   -2.5017   -6.6363 H   0  0  0  1  0  0  0  0  0  0  0  0
   -2.2800   -4.3866   -6.4042 H   0  0  0  1  0  0  0  0  0  0  0  0
    0.7633   -6.5910   -4.5311 H   0  0  0  1  0  0  0  0  0  0  0  0
    2.2706   -4.7092   -4.7628 H   0  0  0  1  0  0  0  0  0  0  0  0
   -3.0694   -6.4092   -6.8920 H   0  0  0  1  0  0  0  0  0  0  0  0
   -3.5051   -5.7433   -5.3366 H   0  0  0  1  0  0  0  0  0  0  0  0
   -3.5787   -7.4694   -5.6000 H   0  0  0  1  0  0  0  0  0  0  0  0
    5.0365    1.8332   -3.3631 H   0  0  0  1  0  0  0  0  0  0  0  0
    3.4649    1.4594   -1.1010 H   0  0  0  1  0  0  0  0  0  0  0  0
    4.3910   -0.3711    0.0843 H   0  0  0  1  0  0  0  0  0  0  0  0
    4.6782   -0.9667   -1.5334 H   0  0  0  1  0  0  0  0  0  0  0  0
    6.9585   -0.1580   -1.5500 H   0  0  0  1  0  0  0  0  0  0  0  0
    7.5364    1.8372   -0.4065 H   0  0  0  1  0  0  0  0  0  0  0  0
    6.4198    1.5184    0.8995 H   0  0  0  1  0  0  0  0  0  0  0  0
    5.9051    2.7970   -1.7117 H   0  0  0  1  0  0  0  0  0  0  0  0
    4.9956    2.9305   -0.2253 H   0  0  0  1  0  0  0  0  0  0  0  0
    6.6937   -1.8721    0.1588 H   0  0  0  1  0  0  0  0  0  0  0  0
    6.5372   -0.7359    1.2747 H   0  0  0  1  0  0  0  0  0  0  0  0
  1  2  4  0  0  0  0
  1  6  4  0  0  0  0
  2  3  4  0  0  0  0
  2 18  1  0  0  0  0
  3  4  4  0  0  0  0
  4  5  4  0  0  0  0
  4  7  4  0  0  0  0
  5  6  4  0  0  0  0
  5  9  4  0  0  0  0
  6 25  1  0  0  0  0
  7  8  4  0  0  0  0
  7 26  1  0  0  0  0
  8  9  4  0  0  0  0
  9 10  1  0  0  0  0
 10 11  4  0  0  0  0
 10 15  4  0  0  0  0
 11 12  4  0  0  0  0
 11 27  1  0  0  0  0
 12 13  4  0  0  0  0
 12 28  1  0  0  0  0
 13 14  4  0  0  0  0
 13 16  1  0  0  0  0
 14 15  4  0  0  0  0
 14 29  1  0  0  0  0
 15 30  1  0  0  0  0
 16 17  1  0  0  0  0
 17 31  1  0  0  0  0
 17 32  1  0  0  0  0
 17 33  1  0  0  0  0
 18 19  1  0  0  0  0
 18 34  1  0  0  0  0
 19 20  1  0  0  0  0
 19 23  1  0  0  0  0
 19 35  1  0  0  0  0
 20 21  1  0  0  0  0
 20 36  1  0  0  0  0
 20 37  1  0  0  0  0
 21 22  1  0  0  0  0
 21 24  1  0  0  0  0
 21 38  1  0  0  0  0
 22 23  1  0  0  0  0
 22 39  1  0  0  0  0
 22 40  1  0  0  0  0
 23 41  1  0  0  0  0
 23 42  1  0  0  0  0
 24 43  1  0  0  0  0
 24 44  1  0  0  0  0
M  END
> <ConfClashScore>
0 

> <ConfOneFourInteractionScore>
-0.985399 

> <ConfScore>
-0.0307911 

> <ConfScorePBest>
0.00322004 

> <ConfTolerance>
0.250833 

$$$$
c13.sdf
 OpenBabel04162418043D

 44 47  0  0  0  0  0  0  0  0999 V2000
    1.6096    1.0487   -3.3765 N   0  0  0  1  0  0  0  0  0  0  0  0
    2.4368    0.6257   -2.4357 C   0  0  0  1  0  0  0  0  0  0  0  0
    2.2857   -0.5309   -1.8318 N   0  0  0  1  0  0  0  0  0  0  0  0
    1.2691   -1.3339   -2.1562 C   0  0  0  1  0  0  0  0  0  0  0  0
    0.3663   -0.9145   -3.1565 C   0  0  0  1  0  0  0  0  0  0  0  0
    0.5760    0.3209   -3.7621 C   0  0  0  1  0  0  0  0  0  0  0  0
    0.8306   -2.6021   -1.7165 C   0  0  0  1  0  0  0  0  0  0  0  0
   -0.2395   -2.9295   -2.3837 N   0  0  0  1  0  0  0  0  0  0  0  0
   -0.5637   -1.9105   -3.2890 N   0  0  0  1  0  0  0  0  0  0  0  0
   -1.6814   -2.0249   -4.1288 C   0  0  0  1  0  0  0  0  0  0  0  0
   -2.5945   -0.9909   -4.0450 C   0  0  0  1  0  0  0  0  0  0  0  0
   -3.7319   -1.0049   -4.8373 C   0  0  0  1  0  0  0  0  0  0  0  0
   -3.9556   -2.0555   -5.7070 C   0  0  0  1  0  0  0  0  0  0  0  0
   -3.0396   -3.0926   -5.7910 C   0  0  0  1  0  0  0  0  0  0  0  0
   -1.9055   -3.0787   -5.0011 C   0  0  0  1  0  0  0  0  0  0  0  0
   -5.0694   -2.0717   -6.4772 O   0  0  0  1  0  0  0  0  0  0  0  0
   -5.3101   -3.2527   -7.2580 C   0  0  0  1  0  0  0  0  0  0  0  0
    3.4724    1.4082   -2.0827 N   0  0  0  1  0  0  0  0  0  0  0  0
    4.4279    1.0705   -1.0240 C   0  0  0  1  0  0  0  0  0  0  0  0
    5.2713   -0.1462   -1.4054 C   0  0  0  1  0  0  0  0  0  0  0  0
    6.5293   -0.0398   -0.5364 C   0  0  0  1  0  0  0  0  0  0  0  0
    6.7162    1.4601   -0.2752 C   0  0  0  1  0  0  0  0  0  0  0  0
    5.4907    2.1607   -0.8666 C   0  0  0  1  0  0  0  0  0  0  0  0
    6.3465   -0.7490    0.7048 N   0  0  0  1  0  0  0  0  0  0  0  0
   -0.0677    0.6644   -4.5032 H   0  0  0  1  0  0  0  0  0  0  0  0
    1.2865   -3.1795   -0.9815 H   0  0  0  1  0  0  0  0  0  0  0  0
   -2.4283   -0.2023   -3.3877 H   0  0  0  1  0  0  0  0  0  0  0  0
   -4.4171   -0.2248   -4.7772 H   0  0  0  1  0  0  0  0  0  0  0  0
   -3.2058   -3.8811   -6.4483 H   0  0  0  1  0  0  0  0  0  0  0  0
   -1.2204   -3.8588   -5.0612 H   0  0  0  1  0  0  0  0  0  0  0  0
   -6.0758   -3.0545   -7.9787 H   0  0  0  1  0  0  0  0  0  0  0  0
   -5.6237   -4.0478   -6.6143 H   0  0  0  1  0  0  0  0  0  0  0  0
   -4.4101   -3.5357   -7.7629 H   0  0  0  1  0  0  0  0  0  0  0  0
    3.5953    2.2542   -2.5619 H   0  0  0  1  0  0  0  0  0  0  0  0
    3.9016    0.9061   -0.1070 H   0  0  0  1  0  0  0  0  0  0  0  0
    4.7429   -1.0521   -1.1937 H   0  0  0  1  0  0  0  0  0  0  0  0
    5.5274   -0.1164   -2.4439 H   0  0  0  1  0  0  0  0  0  0  0  0
    7.3768   -0.4383   -1.0540 H   0  0  0  1  0  0  0  0  0  0  0  0
    7.6078    1.8099   -0.7524 H   0  0  0  1  0  0  0  0  0  0  0  0
    6.7770    1.6472    0.7765 H   0  0  0  1  0  0  0  0  0  0  0  0
    5.1439    2.9273   -0.2056 H   0  0  0  1  0  0  0  0  0  0  0  0
    5.7288    2.5898   -1.8175 H   0  0  0  1  0  0  0  0  0  0  0  0
    6.1495   -1.6906    0.5176 H   0  0  0  1  0  0  0  0  0  0  0  0
    5.6005   -0.3518    1.2009 H   0  0  0  1  0  0  0  0  0  0  0  0
  1  2  4  0  0  0  0
  1  6  4  0  0  0  0
  2  3  4  0  0  0  0
  2 18  1  0  0  0  0
  3  4  4  0  0  0  0
  4  5  4  0  0  0  0
  4  7  4  0  0  0  0
  5  6  4  0  0  0  0
  5  9  4  0  0  0  0
  6 25  1  0  0  0  0
  7  8  4  0  0  0  0
  7 26  1  0  0  0  0
  8  9  4  0  0  0  0
  9 10  1  0  0  0  0
 10 11  4  0  0  0  0
 10 15  4  0  0  0  0
 11 12  4  0  0  0  0
 11 27  1  0  0  0  0
 12 13  4  0  0  0  0
 12 28  1  0  0  0  0
 13 14  4  0  0  0  0
 13 16  1  0  0  0  0
 14 15  4  0  0  0  0
 14 29  1  0  0  0  0
 15 30  1  0  0  0  0
 16 17  1  0  0  0  0
 17 31  1  0  0  0  0
 17 32  1  0  0  0  0
 17 33  1  0  0  0  0
 18 19  1  0  0  0  0
 18 34  1  0  0  0  0
 19 20  1  0  0  0  0
 19 23  1  0  0  0  0
 19 35  1  0  0  0  0
 20 21  1  0  0  0  0
 20 36  1  0  0  0  0
 20 37  1  0  0  0  0
 21 22  1  0  0  0  0
 21 24  1  0  0  0  0
 21 38  1  0  0  0  0
 22 23  1  0  0  0  0
 22 39  1  0  0  0  0
 22 40  1  0  0  0  0
 23 41  1  0  0  0  0
 23 42  1  0  0  0  0
 24 43  1  0  0  0  0
 24 44  1  0  0  0  0
M  END
> <ConfClashScore>
0 

> <ConfOneFourInteractionScore>
-0.981848 

> <ConfScore>
-0.0307911 

> <ConfScorePBest>
0.00320672 

> <ConfTolerance>
0.250645 

$$$$
c13.sdf
 OpenBabel04162418043D

 44 47  0  0  0  0  0  0  0  0999 V2000
    2.8952   -0.7349   -2.5597 N   0  0  0  1  0  0  0  0  0  0  0  0
    2.7887    0.5613   -2.7984 C   0  0  0  1  0  0  0  0  0  0  0  0
    1.9779    1.0459   -3.7109 N   0  0  0  1  0  0  0  0  0  0  0  0
    1.2185    0.2266   -4.4427 C   0  0  0  1  0  0  0  0  0  0  0  0
    1.3062   -1.1633   -4.2149 C   0  0  0  1  0  0  0  0  0  0  0  0
    2.1827   -1.6198   -3.2350 C   0  0  0  1  0  0  0  0  0  0  0  0
    0.2706    0.4123   -5.4727 C   0  0  0  1  0  0  0  0  0  0  0  0
   -0.1803   -0.7530   -5.8417 N   0  0  0  1  0  0  0  0  0  0  0  0
    0.4356   -1.7600   -5.0870 N   0  0  0  1  0  0  0  0  0  0  0  0
    0.1162   -3.1168   -5.2971 C   0  0  0  1  0  0  0  0  0  0  0  0
   -0.2753   -3.8599   -4.1996 C   0  0  0  1  0  0  0  0  0  0  0  0
   -0.6058   -5.1976   -4.3507 C   0  0  0  1  0  0  0  0  0  0  0  0
   -0.5387   -5.7896   -5.5978 C   0  0  0  1  0  0  0  0  0  0  0  0
   -0.1459   -5.0441   -6.6985 C   0  0  0  1  0  0  0  0  0  0  0  0
    0.1836   -3.7103   -6.5480 C   0  0  0  1  0  0  0  0  0  0  0  0
   -0.7619   -7.1154   -5.6831 O   0  0  0  1  0  0  0  0  0  0  0  0
   -0.4044   -7.7161   -6.9496 C   0  0  0  1  0  0  0  0  0  0  0  0
    3.5385    1.4168   -2.0804 N   0  0  0  1  0  0  0  0  0  0  0  0
    4.4641    1.0027   -1.0249 C   0  0  0  1  0  0  0  0  0  0  0  0
    5.3406   -0.1448   -1.4991 C   0  0  0  1  0  0  0  0  0  0  0  0
    6.5323   -0.0519   -0.5399 C   0  0  0  1  0  0  0  0  0  0  0  0
    6.7927    1.4500   -0.3946 C   0  0  0  1  0  0  0  0  0  0  0  0
    5.4502    2.1290   -0.6971 C   0  0  0  1  0  0  0  0  0  0  0  0
    6.1985   -0.6504    0.7637 N   0  0  0  1  0  0  0  0  0  0  0  0
    2.2753   -2.6368   -3.0382 H   0  0  0  1  0  0  0  0  0  0  0  0
   -0.0197    1.3281   -5.8711 H   0  0  0  1  0  0  0  0  0  0  0  0
   -0.3220   -3.4156   -3.2604 H   0  0  0  1  0  0  0  0  0  0  0  0
   -0.9043   -5.7558   -3.5256 H   0  0  0  1  0  0  0  0  0  0  0  0
   -0.0993   -5.4884   -7.6377 H   0  0  0  1  0  0  0  0  0  0  0  0
    0.4822   -3.1520   -7.3731 H   0  0  0  1  0  0  0  0  0  0  0  0
   -0.7085   -7.0727   -7.7486 H   0  0  0  1  0  0  0  0  0  0  0  0
   -0.8955   -8.6618   -7.0468 H   0  0  0  1  0  0  0  0  0  0  0  0
    0.6554   -7.8582   -6.9901 H   0  0  0  1  0  0  0  0  0  0  0  0
    3.4603    2.3740   -2.2757 H   0  0  0  1  0  0  0  0  0  0  0  0
    3.9098    0.7203   -0.1543 H   0  0  0  1  0  0  0  0  0  0  0  0
    4.8368   -1.0840   -1.4035 H   0  0  0  1  0  0  0  0  0  0  0  0
    5.6473   -0.0058   -2.5147 H   0  0  0  1  0  0  0  0  0  0  0  0
    7.3878   -0.5458   -0.9511 H   0  0  0  1  0  0  0  0  0  0  0  0
    7.5388    1.7693   -1.0919 H   0  0  0  1  0  0  0  0  0  0  0  0
    7.1122    1.6796    0.6004 H   0  0  0  1  0  0  0  0  0  0  0  0
    5.1131    2.6800    0.1559 H   0  0  0  1  0  0  0  0  0  0  0  0
    5.5491    2.7897   -1.5328 H   0  0  0  1  0  0  0  0  0  0  0  0
    5.9550   -1.5915    0.6389 H   0  0  0  1  0  0  0  0  0  0  0  0
    5.4437   -0.1678    1.1609 H   0  0  0  1  0  0  0  0  0  0  0  0
  1  2  4  0  0  0  0
  1  6  4  0  0  0  0
  2  3  4  0  0  0  0
  2 18  1  0  0  0  0
  3  4  4  0  0  0  0
  4  5  4  0  0  0  0
  4  7  4  0  0  0  0
  5  6  4  0  0  0  0
  5  9  4  0  0  0  0
  6 25  1  0  0  0  0
  7  8  4  0  0  0  0
  7 26  1  0  0  0  0
  8  9  4  0  0  0  0
  9 10  1  0  0  0  0
 10 11  4  0  0  0  0
 10 15  4  0  0  0  0
 11 12  4  0  0  0  0
 11 27  1  0  0  0  0
 12 13  4  0  0  0  0
 12 28  1  0  0  0  0
 13 14  4  0  0  0  0
 13 16  1  0  0  0  0
 14 15  4  0  0  0  0
 14 29  1  0  0  0  0
 15 30  1  0  0  0  0
 16 17  1  0  0  0  0
 17 31  1  0  0  0  0
 17 32  1  0  0  0  0
 17 33  1  0  0  0  0
 18 19  1  0  0  0  0
 18 34  1  0  0  0  0
 19 20  1  0  0  0  0
 19 23  1  0  0  0  0
 19 35  1  0  0  0  0
 20 21  1  0  0  0  0
 20 36  1  0  0  0  0
 20 37  1  0  0  0  0
 21 22  1  0  0  0  0
 21 24  1  0  0  0  0
 21 38  1  0  0  0  0
 22 23  1  0  0  0  0
 22 39  1  0  0  0  0
 22 40  1  0  0  0  0
 23 41  1  0  0  0  0
 23 42  1  0  0  0  0
 24 43  1  0  0  0  0
 24 44  1  0  0  0  0
M  END
> <ConfClashScore>
0 

> <ConfOneFourInteractionScore>
-0.985399 

> <ConfScore>
-0.0300635 

> <ConfScorePBest>
0.00319339 

> <ConfTolerance>
0.27738 

$$$$
c13.sdf
 OpenBabel04162418043D

 44 47  0  0  0  0  0  0  0  0999 V2000
    5.0486    3.5113   -4.2338 N   0  0  0  1  0  0  0  0  0  0  0  0
    4.5982    3.0441   -3.0817 C   0  0  0  1  0  0  0  0  0  0  0  0
    3.9424    3.7931   -2.2251 N   0  0  0  1  0  0  0  0  0  0  0  0
    3.7045    5.0789   -2.4966 C   0  0  0  1  0  0  0  0  0  0  0  0
    4.1707    5.6115   -3.7174 C   0  0  0  1  0  0  0  0  0  0  0  0
    4.8597    4.7709   -4.5866 C   0  0  0  1  0  0  0  0  0  0  0  0
    3.0505    6.1294   -1.8164 C   0  0  0  1  0  0  0  0  0  0  0  0
    3.1098    7.2042   -2.5503 N   0  0  0  1  0  0  0  0  0  0  0  0
    3.7968    6.9284   -3.7398 N   0  0  0  1  0  0  0  0  0  0  0  0
    4.0758    7.9719   -4.6723 C   0  0  0  1  0  0  0  0  0  0  0  0
    3.0700    8.8331   -5.0684 C   0  0  0  1  0  0  0  0  0  0  0  0
    3.3200    9.7905   -6.0391 C   0  0  0  1  0  0  0  0  0  0  0  0
    4.5734    9.8806   -6.6146 C   0  0  0  1  0  0  0  0  0  0  0  0
    5.5821    9.0167   -6.2172 C   0  0  0  1  0  0  0  0  0  0  0  0
    5.3329    8.0620   -5.2493 C   0  0  0  1  0  0  0  0  0  0  0  0
    4.8378   10.8686   -7.4914 O   0  0  0  1  0  0  0  0  0  0  0  0
    6.2261   11.0097   -7.8508 C   0  0  0  1  0  0  0  0  0  0  0  0
    4.8224    1.7351   -2.7699 N   0  0  0  1  0  0  0  0  0  0  0  0
    4.5430    1.2024   -1.4308 C   0  0  0  1  0  0  0  0  0  0  0  0
    5.1448   -0.1975   -1.2687 C   0  0  0  1  0  0  0  0  0  0  0  0
    6.5163   -0.0017   -0.6086 C   0  0  0  1  0  0  0  0  0  0  0  0
    6.6698    1.5110   -0.4277 C   0  0  0  1  0  0  0  0  0  0  0  0
    5.2324    2.0390   -0.3656 C   0  0  0  1  0  0  0  0  0  0  0  0
    6.5619   -0.6878    0.7047 N   0  0  0  1  0  0  0  0  0  0  0  0
    5.2188    5.1267   -5.4955 H   0  0  0  1  0  0  0  0  0  0  0  0
    2.5963    6.0570   -0.8836 H   0  0  0  1  0  0  0  0  0  0  0  0
    2.1258    8.7628   -4.6383 H   0  0  0  1  0  0  0  0  0  0  0  0
    2.5644   10.4412   -6.3344 H   0  0  0  1  0  0  0  0  0  0  0  0
    6.5263    9.0870   -6.6473 H   0  0  0  1  0  0  0  0  0  0  0  0
    6.0886    7.4113   -4.9540 H   0  0  0  1  0  0  0  0  0  0  0  0
    6.3209   11.7340   -8.6326 H   0  0  0  1  0  0  0  0  0  0  0  0
    6.6040   10.0678   -8.1898 H   0  0  0  1  0  0  0  0  0  0  0  0
    6.7844   11.3320   -6.9967 H   0  0  0  1  0  0  0  0  0  0  0  0
    5.1791    1.1349   -3.4576 H   0  0  0  1  0  0  0  0  0  0  0  0
    3.4856    1.1804   -1.2686 H   0  0  0  1  0  0  0  0  0  0  0  0
    5.2570   -0.6656   -2.2243 H   0  0  0  1  0  0  0  0  0  0  0  0
    4.5171   -0.8009   -0.6468 H   0  0  0  1  0  0  0  0  0  0  0  0
    7.2924   -0.3838   -1.2383 H   0  0  0  1  0  0  0  0  0  0  0  0
    7.1943    1.9394   -1.2562 H   0  0  0  1  0  0  0  0  0  0  0  0
    7.1931    1.7320    0.4790 H   0  0  0  1  0  0  0  0  0  0  0  0
    4.7991    1.8744    0.5988 H   0  0  0  1  0  0  0  0  0  0  0  0
    5.1906    3.0816   -0.6027 H   0  0  0  1  0  0  0  0  0  0  0  0
    6.6581   -1.6532    0.5662 H   0  0  0  1  0  0  0  0  0  0  0  0
    5.7324   -0.5094    1.1951 H   0  0  0  1  0  0  0  0  0  0  0  0
  1  2  4  0  0  0  0
  1  6  4  0  0  0  0
  2  3  4  0  0  0  0
  2 18  1  0  0  0  0
  3  4  4  0  0  0  0
  4  5  4  0  0  0  0
  4  7  4  0  0  0  0
  5  6  4  0  0  0  0
  5  9  4  0  0  0  0
  6 25  1  0  0  0  0
  7  8  4  0  0  0  0
  7 26  1  0  0  0  0
  8  9  4  0  0  0  0
  9 10  1  0  0  0  0
 10 11  4  0  0  0  0
 10 15  4  0  0  0  0
 11 12  4  0  0  0  0
 11 27  1  0  0  0  0
 12 13  4  0  0  0  0
 12 28  1  0  0  0  0
 13 14  4  0  0  0  0
 13 16  1  0  0  0  0
 14 15  4  0  0  0  0
 14 29  1  0  0  0  0
 15 30  1  0  0  0  0
 16 17  1  0  0  0  0
 17 31  1  0  0  0  0
 17 32  1  0  0  0  0
 17 33  1  0  0  0  0
 18 19  1  0  0  0  0
 18 34  1  0  0  0  0
 19 20  1  0  0  0  0
 19 23  1  0  0  0  0
 19 35  1  0  0  0  0
 20 21  1  0  0  0  0
 20 36  1  0  0  0  0
 20 37  1  0  0  0  0
 21 22  1  0  0  0  0
 21 24  1  0  0  0  0
 21 38  1  0  0  0  0
 22 23  1  0  0  0  0
 22 39  1  0  0  0  0
 22 40  1  0  0  0  0
 23 41  1  0  0  0  0
 23 42  1  0  0  0  0
 24 43  1  0  0  0  0
 24 44  1  0  0  0  0
M  END
> <ConfClashScore>
0 

> <ConfOneFourInteractionScore>
-0.985399 

> <ConfScore>
-0.0295662 

> <ConfScorePBest>
0.00318006 

> <ConfTolerance>
0.429134 

$$$$
c13.sdf
 OpenBabel04162418043D

 44 47  0  0  0  0  0  0  0  0999 V2000
    2.5968    2.1514   -3.4274 N   0  0  0  1  0  0  0  0  0  0  0  0
    3.7918    1.7836   -3.8577 C   0  0  0  1  0  0  0  0  0  0  0  0
    4.1175    1.7955   -5.1300 N   0  0  0  1  0  0  0  0  0  0  0  0
    3.2324    2.1881   -6.0497 C   0  0  0  1  0  0  0  0  0  0  0  0
    1.9468    2.5876   -5.6264 C   0  0  0  1  0  0  0  0  0  0  0  0
    1.6577    2.5546   -4.2654 C   0  0  0  1  0  0  0  0  0  0  0  0
    3.2571    2.3160   -7.4558 C   0  0  0  1  0  0  0  0  0  0  0  0
    2.0970    2.7526   -7.8568 N   0  0  0  1  0  0  0  0  0  0  0  0
    1.2523    2.9351   -6.7540 N   0  0  0  1  0  0  0  0  0  0  0  0
   -0.1170    3.2106   -6.9436 C   0  0  0  1  0  0  0  0  0  0  0  0
   -0.9348    2.2702   -7.5412 C   0  0  0  1  0  0  0  0  0  0  0  0
   -2.2824    2.5391   -7.7228 C   0  0  0  1  0  0  0  0  0  0  0  0
   -2.8073    3.7497   -7.3112 C   0  0  0  1  0  0  0  0  0  0  0  0
   -1.9870    4.6928   -6.7119 C   0  0  0  1  0  0  0  0  0  0  0  0
   -0.6432    4.4248   -6.5307 C   0  0  0  1  0  0  0  0  0  0  0  0
   -4.1095    4.0755   -7.4635 O   0  0  0  1  0  0  0  0  0  0  0  0
   -5.0059    3.1371   -8.0786 C   0  0  0  1  0  0  0  0  0  0  0  0
    4.7684    1.3654   -2.9975 N   0  0  0  1  0  0  0  0  0  0  0  0
    4.5184    1.2158   -1.5693 C   0  0  0  1  0  0  0  0  0  0  0  0
    4.9395   -0.1791   -1.0942 C   0  0  0  1  0  0  0  0  0  0  0  0
    6.3955   -0.0208   -0.6562 C   0  0  0  1  0  0  0  0  0  0  0  0
    6.3767    1.3470    0.0306 C   0  0  0  1  0  0  0  0  0  0  0  0
    5.3840    2.1958   -0.7672 C   0  0  0  1  0  0  0  0  0  0  0  0
    6.7974   -1.1049    0.3003 N   0  0  0  1  0  0  0  0  0  0  0  0
    0.7215    2.8414   -3.9149 H   0  0  0  1  0  0  0  0  0  0  0  0
    4.0676    2.0978   -8.0698 H   0  0  0  1  0  0  0  0  0  0  0  0
   -0.5391    1.3609   -7.8545 H   0  0  0  1  0  0  0  0  0  0  0  0
   -2.8986    1.8299   -8.1688 H   0  0  0  1  0  0  0  0  0  0  0  0
   -2.3827    5.6021   -6.3985 H   0  0  0  1  0  0  0  0  0  0  0  0
   -0.0270    5.1339   -6.0847 H   0  0  0  1  0  0  0  0  0  0  0  0
   -6.0136    3.3783   -7.8117 H   0  0  0  1  0  0  0  0  0  0  0  0
   -4.7744    2.1488   -7.7403 H   0  0  0  1  0  0  0  0  0  0  0  0
   -4.8976    3.1852   -9.1420 H   0  0  0  1  0  0  0  0  0  0  0  0
    5.6596    1.1609   -3.3502 H   0  0  0  1  0  0  0  0  0  0  0  0
    3.4806    1.3823   -1.3690 H   0  0  0  1  0  0  0  0  0  0  0  0
    4.8611   -0.8882   -1.8918 H   0  0  0  1  0  0  0  0  0  0  0  0
    4.3315   -0.4967   -0.2730 H   0  0  0  1  0  0  0  0  0  0  0  0
    7.0566   -0.0237   -1.4976 H   0  0  0  1  0  0  0  0  0  0  0  0
    7.3503    1.7901    0.0064 H   0  0  0  1  0  0  0  0  0  0  0  0
    6.0533    1.2503    1.0459 H   0  0  0  1  0  0  0  0  0  0  0  0
    4.7727    2.7708   -0.1035 H   0  0  0  1  0  0  0  0  0  0  0  0
    5.9083    2.8529   -1.4293 H   0  0  0  1  0  0  0  0  0  0  0  0
    6.1382   -1.1643    1.0231 H   0  0  0  1  0  0  0  0  0  0  0  0
    7.6777   -0.8975    0.6776 H   0  0  0  1  0  0  0  0  0  0  0  0
  1  2  4  0  0  0  0
  1  6  4  0  0  0  0
  2  3  4  0  0  0  0
  2 18  1  0  0  0  0
  3  4  4  0  0  0  0
  4  5  4  0  0  0  0
  4  7  4  0  0  0  0
  5  6  4  0  0  0  0
  5  9  4  0  0  0  0
  6 25  1  0  0  0  0
  7  8  4  0  0  0  0
  7 26  1  0  0  0  0
  8  9  4  0  0  0  0
  9 10  1  0  0  0  0
 10 11  4  0  0  0  0
 10 15  4  0  0  0  0
 11 12  4  0  0  0  0
 11 27  1  0  0  0  0
 12 13  4  0  0  0  0
 12 28  1  0  0  0  0
 13 14  4  0  0  0  0
 13 16  1  0  0  0  0
 14 15  4  0  0  0  0
 14 29  1  0  0  0  0
 15 30  1  0  0  0  0
 16 17  1  0  0  0  0
 17 31  1  0  0  0  0
 17 32  1  0  0  0  0
 17 33  1  0  0  0  0
 18 19  1  0  0  0  0
 18 34  1  0  0  0  0
 19 20  1  0  0  0  0
 19 23  1  0  0  0  0
 19 35  1  0  0  0  0
 20 21  1  0  0  0  0
 20 36  1  0  0  0  0
 20 37  1  0  0  0  0
 21 22  1  0  0  0  0
 21 24  1  0  0  0  0
 21 38  1  0  0  0  0
 22 23  1  0  0  0  0
 22 39  1  0  0  0  0
 22 40  1  0  0  0  0
 23 41  1  0  0  0  0
 23 42  1  0  0  0  0
 24 43  1  0  0  0  0
 24 44  1  0  0  0  0
M  END
> <ConfClashScore>
0 

> <ConfOneFourInteractionScore>
-0.984337 

> <ConfScore>
-0.0295199 

> <ConfScorePBest>
0.00316673 

> <ConfTolerance>
0.371375 

$$$$
c13.sdf
 OpenBabel04162418043D

 44 47  0  0  0  0  0  0  0  0999 V2000
    4.5685    1.5809   -5.1648 N   0  0  0  1  0  0  0  0  0  0  0  0
    4.2448    1.1086   -3.9730 C   0  0  0  1  0  0  0  0  0  0  0  0
    3.3341    0.1768   -3.8073 N   0  0  0  1  0  0  0  0  0  0  0  0
    2.6921   -0.3343   -4.8609 C   0  0  0  1  0  0  0  0  0  0  0  0
    3.0122    0.1462   -6.1486 C   0  0  0  1  0  0  0  0  0  0  0  0
    3.9855    1.1344   -6.2636 C   0  0  0  1  0  0  0  0  0  0  0  0
    1.6905   -1.3155   -5.0290 C   0  0  0  1  0  0  0  0  0  0  0  0
    1.4219   -1.4262   -6.2990 N   0  0  0  1  0  0  0  0  0  0  0  0
    2.2194   -0.5371   -7.0313 N   0  0  0  1  0  0  0  0  0  0  0  0
    2.1751   -0.5464   -8.4556 C   0  0  0  1  0  0  0  0  0  0  0  0
    1.4330   -1.5092   -9.1133 C   0  0  0  1  0  0  0  0  0  0  0  0
    1.3069   -1.4642  -10.4930 C   0  0  0  1  0  0  0  0  0  0  0  0
    1.9276   -0.4598  -11.2115 C   0  0  0  1  0  0  0  0  0  0  0  0
    2.6718    0.5058  -10.5517 C   0  0  0  1  0  0  0  0  0  0  0  0
    2.7976    0.4611   -9.1760 C   0  0  0  1  0  0  0  0  0  0  0  0
    1.8804   -0.3167  -12.5540 O   0  0  0  1  0  0  0  0  0  0  0  0
    1.0494   -1.1942  -13.3298 C   0  0  0  1  0  0  0  0  0  0  0  0
    4.8797    1.6069   -2.8732 N   0  0  0  1  0  0  0  0  0  0  0  0
    4.5200    1.1860   -1.5248 C   0  0  0  1  0  0  0  0  0  0  0  0
    5.0636   -0.2166   -1.2324 C   0  0  0  1  0  0  0  0  0  0  0  0
    6.4076   -0.0164   -0.5194 C   0  0  0  1  0  0  0  0  0  0  0  0
    6.6054    1.4999   -0.4399 C   0  0  0  1  0  0  0  0  0  0  0  0
    5.1862    2.0762   -0.4887 C   0  0  0  1  0  0  0  0  0  0  0  0
    6.3655   -0.6074    0.8446 N   0  0  0  1  0  0  0  0  0  0  0  0
    4.2487    1.5138   -7.1955 H   0  0  0  1  0  0  0  0  0  0  0  0
    1.2415   -1.8599   -4.2650 H   0  0  0  1  0  0  0  0  0  0  0  0
    0.9693   -2.2673   -8.5732 H   0  0  0  1  0  0  0  0  0  0  0  0
    0.7452   -2.1864  -10.9876 H   0  0  0  1  0  0  0  0  0  0  0  0
    3.1355    1.2640  -11.0918 H   0  0  0  1  0  0  0  0  0  0  0  0
    3.3593    1.1832   -8.6814 H   0  0  0  1  0  0  0  0  0  0  0  0
    1.2939   -1.0936  -14.3666 H   0  0  0  1  0  0  0  0  0  0  0  0
    0.0217   -0.9372  -13.1794 H   0  0  0  1  0  0  0  0  0  0  0  0
    1.2135   -2.2056  -13.0214 H   0  0  0  1  0  0  0  0  0  0  0  0
    5.5960    2.2649   -2.9927 H   0  0  0  1  0  0  0  0  0  0  0  0
    3.4559    1.2094   -1.4152 H   0  0  0  1  0  0  0  0  0  0  0  0
    5.2052   -0.7568   -2.1452 H   0  0  0  1  0  0  0  0  0  0  0  0
    4.3857   -0.7527   -0.6016 H   0  0  0  1  0  0  0  0  0  0  0  0
    7.1993   -0.4680   -1.0800 H   0  0  0  1  0  0  0  0  0  0  0  0
    7.0918    1.7701    0.4741 H   0  0  0  1  0  0  0  0  0  0  0  0
    7.1840    1.8495   -1.2693 H   0  0  0  1  0  0  0  0  0  0  0  0
    5.1926    3.0994   -0.8017 H   0  0  0  1  0  0  0  0  0  0  0  0
    4.7013    1.9965    0.4618 H   0  0  0  1  0  0  0  0  0  0  0  0
    7.2478   -0.5268    1.2634 H   0  0  0  1  0  0  0  0  0  0  0  0
    6.1187   -1.5538    0.7828 H   0  0  0  1  0  0  0  0  0  0  0  0
  1  2  4  0  0  0  0
  1  6  4  0  0  0  0
  2  3  4  0  0  0  0
  2 18  1  0  0  0  0
  3  4  4  0  0  0  0
  4  5  4  0  0  0  0
  4  7  4  0  0  0  0
  5  6  4  0  0  0  0
  5  9  4  0  0  0  0
  6 25  1  0  0  0  0
  7  8  4  0  0  0  0
  7 26  1  0  0  0  0
  8  9  4  0  0  0  0
  9 10  1  0  0  0  0
 10 11  4  0  0  0  0
 10 15  4  0  0  0  0
 11 12  4  0  0  0  0
 11 27  1  0  0  0  0
 12 13  4  0  0  0  0
 12 28  1  0  0  0  0
 13 14  4  0  0  0  0
 13 16  1  0  0  0  0
 14 15  4  0  0  0  0
 14 29  1  0  0  0  0
 15 30  1  0  0  0  0
 16 17  1  0  0  0  0
 17 31  1  0  0  0  0
 17 32  1  0  0  0  0
 17 33  1  0  0  0  0
 18 19  1  0  0  0  0
 18 34  1  0  0  0  0
 19 20  1  0  0  0  0
 19 23  1  0  0  0  0
 19 35  1  0  0  0  0
 20 21  1  0  0  0  0
 20 36  1  0  0  0  0
 20 37  1  0  0  0  0
 21 22  1  0  0  0  0
 21 24  1  0  0  0  0
 21 38  1  0  0  0  0
 22 23  1  0  0  0  0
 22 39  1  0  0  0  0
 22 40  1  0  0  0  0
 23 41  1  0  0  0  0
 23 42  1  0  0  0  0
 24 43  1  0  0  0  0
 24 44  1  0  0  0  0
M  END
> <ConfClashScore>
0 

> <ConfOneFourInteractionScore>
-0.984337 

> <ConfScore>
-0.0292932 

> <ConfScorePBest>
0.0031534 

> <ConfTolerance>
0.37409 

$$$$
c13.sdf
 OpenBabel04162418043D

 44 47  0  0  0  0  0  0  0  0999 V2000
    1.6085    1.7930   -3.5020 N   0  0  0  1  0  0  0  0  0  0  0  0
    2.2102    1.4774   -2.3677 C   0  0  0  1  0  0  0  0  0  0  0  0
    1.5457    1.2287   -1.2625 N   0  0  0  1  0  0  0  0  0  0  0  0
    0.2116    1.2880   -1.2492 C   0  0  0  1  0  0  0  0  0  0  0  0
   -0.4642    1.6219   -2.4422 C   0  0  0  1  0  0  0  0  0  0  0  0
    0.2919    1.8753   -3.5829 C   0  0  0  1  0  0  0  0  0  0  0  0
   -0.7782    1.0847   -0.2628 C   0  0  0  1  0  0  0  0  0  0  0  0
   -1.9498    1.2756   -0.7998 N   0  0  0  1  0  0  0  0  0  0  0  0
   -1.8022    1.6112   -2.1520 N   0  0  0  1  0  0  0  0  0  0  0  0
   -2.9567    1.8603   -2.9213 C   0  0  0  1  0  0  0  0  0  0  0  0
   -3.8315    0.8094   -3.1222 C   0  0  0  1  0  0  0  0  0  0  0  0
   -4.9851    1.0006   -3.8666 C   0  0  0  1  0  0  0  0  0  0  0  0
   -5.2579    2.2408   -4.4124 C   0  0  0  1  0  0  0  0  0  0  0  0
   -4.3804    3.2948   -4.2109 C   0  0  0  1  0  0  0  0  0  0  0  0
   -3.2301    3.1042   -3.4687 C   0  0  0  1  0  0  0  0  0  0  0  0
   -6.4200    2.4939   -5.0600 O   0  0  0  1  0  0  0  0  0  0  0  0
   -6.7271    3.8678   -5.3440 C   0  0  0  1  0  0  0  0  0  0  0  0
    3.5534    1.4082   -2.3433 N   0  0  0  1  0  0  0  0  0  0  0  0
    4.3860    1.0782   -1.1856 C   0  0  0  1  0  0  0  0  0  0  0  0
    5.2832   -0.1259   -1.4727 C   0  0  0  1  0  0  0  0  0  0  0  0
    6.4330   -0.0075   -0.4664 C   0  0  0  1  0  0  0  0  0  0  0  0
    6.5694    1.4935   -0.1810 C   0  0  0  1  0  0  0  0  0  0  0  0
    5.4097    2.1811   -0.9053 C   0  0  0  1  0  0  0  0  0  0  0  0
    6.1082   -0.7516    0.7893 N   0  0  0  1  0  0  0  0  0  0  0  0
   -0.1699    2.1244   -4.4808 H   0  0  0  1  0  0  0  0  0  0  0  0
   -0.6012    0.8253    0.7287 H   0  0  0  1  0  0  0  0  0  0  0  0
   -3.6243   -0.1248   -2.7149 H   0  0  0  1  0  0  0  0  0  0  0  0
   -5.6454    0.2109   -4.0143 H   0  0  0  1  0  0  0  0  0  0  0  0
   -4.5875    4.2290   -4.6182 H   0  0  0  1  0  0  0  0  0  0  0  0
   -2.5697    3.8939   -3.3209 H   0  0  0  1  0  0  0  0  0  0  0  0
   -7.0243    4.3611   -4.4422 H   0  0  0  1  0  0  0  0  0  0  0  0
   -7.5248    3.9150   -6.0555 H   0  0  0  1  0  0  0  0  0  0  0  0
   -5.8611    4.3510   -5.7457 H   0  0  0  1  0  0  0  0  0  0  0  0
    4.0206    1.5974   -3.1838 H   0  0  0  1  0  0  0  0  0  0  0  0
    3.7614    0.9029   -0.3348 H   0  0  0  1  0  0  0  0  0  0  0  0
    5.6548   -0.0880   -2.4754 H   0  0  0  1  0  0  0  0  0  0  0  0
    4.7460   -1.0394   -1.3251 H   0  0  0  1  0  0  0  0  0  0  0  0
    7.3389   -0.3928   -0.8857 H   0  0  0  1  0  0  0  0  0  0  0  0
    7.5046    1.8567   -0.5528 H   0  0  0  1  0  0  0  0  0  0  0  0
    6.5081    1.6765    0.8715 H   0  0  0  1  0  0  0  0  0  0  0  0
    4.9802    2.9402   -0.2855 H   0  0  0  1  0  0  0  0  0  0  0  0
    5.7484    2.6175   -1.8217 H   0  0  0  1  0  0  0  0  0  0  0  0
    6.8452   -0.6532    1.4278 H   0  0  0  1  0  0  0  0  0  0  0  0
    5.9802   -1.7009    0.5823 H   0  0  0  1  0  0  0  0  0  0  0  0
  1  2  4  0  0  0  0
  1  6  4  0  0  0  0
  2  3  4  0  0  0  0
  2 18  1  0  0  0  0
  3  4  4  0  0  0  0
  4  5  4  0  0  0  0
  4  7  4  0  0  0  0
  5  6  4  0  0  0  0
  5  9  4  0  0  0  0
  6 25  1  0  0  0  0
  7  8  4  0  0  0  0
  7 26  1  0  0  0  0
  8  9  4  0  0  0  0
  9 10  1  0  0  0  0
 10 11  4  0  0  0  0
 10 15  4  0  0  0  0
 11 12  4  0  0  0  0
 11 27  1  0  0  0  0
 12 13  4  0  0  0  0
 12 28  1  0  0  0  0
 13 14  4  0  0  0  0
 13 16  1  0  0  0  0
 14 15  4  0  0  0  0
 14 29  1  0  0  0  0
 15 30  1  0  0  0  0
 16 17  1  0  0  0  0
 17 31  1  0  0  0  0
 17 32  1  0  0  0  0
 17 33  1  0  0  0  0
 18 19  1  0  0  0  0
 18 34  1  0  0  0  0
 19 20  1  0  0  0  0
 19 23  1  0  0  0  0
 19 35  1  0  0  0  0
 20 21  1  0  0  0  0
 20 36  1  0  0  0  0
 20 37  1  0  0  0  0
 21 22  1  0  0  0  0
 21 24  1  0  0  0  0
 21 38  1  0  0  0  0
 22 23  1  0  0  0  0
 22 39  1  0  0  0  0
 22 40  1  0  0  0  0
 23 41  1  0  0  0  0
 23 42  1  0  0  0  0
 24 43  1  0  0  0  0
 24 44  1  0  0  0  0
M  END
> <ConfClashScore>
0 

> <ConfOneFourInteractionScore>
-0.984337 

> <ConfScore>
-0.0292817 

> <ConfScorePBest>
0.00314007 

> <ConfTolerance>
0.324203 

$$$$
c13.sdf
 OpenBabel04162418043D

 44 47  0  0  0  0  0  0  0  0999 V2000
    2.4732   -0.7046   -2.0640 N   0  0  0  1  0  0  0  0  0  0  0  0
    2.5425    0.5259   -2.5430 C   0  0  0  1  0  0  0  0  0  0  0  0
    1.7237    0.9691   -3.4693 N   0  0  0  1  0  0  0  0  0  0  0  0
    0.7742    0.1732   -3.9678 C   0  0  0  1  0  0  0  0  0  0  0  0
    0.6709   -1.1469   -3.4799 C   0  0  0  1  0  0  0  0  0  0  0  0
    1.5657   -1.5619   -2.4980 C   0  0  0  1  0  0  0  0  0  0  0  0
   -0.2376    0.3290   -4.9404 C   0  0  0  1  0  0  0  0  0  0  0  0
   -0.8988   -0.7892   -5.0395 N   0  0  0  1  0  0  0  0  0  0  0  0
   -0.3685   -1.7335   -4.1507 N   0  0  0  1  0  0  0  0  0  0  0  0
   -0.9129   -3.0310   -4.0669 C   0  0  0  1  0  0  0  0  0  0  0  0
   -1.7846   -3.4254   -5.0643 C   0  0  0  1  0  0  0  0  0  0  0  0
   -2.3448   -4.6930   -5.0337 C   0  0  0  1  0  0  0  0  0  0  0  0
   -2.0360   -5.5605   -4.0030 C   0  0  0  1  0  0  0  0  0  0  0  0
   -1.1617   -5.1647   -3.0026 C   0  0  0  1  0  0  0  0  0  0  0  0
   -0.6030   -3.9009   -3.0331 C   0  0  0  1  0  0  0  0  0  0  0  0
   -2.5285   -6.8295   -3.8631 O   0  0  0  1  0  0  0  0  0  0  0  0
   -3.6201   -7.1051   -4.7547 C   0  0  0  1  0  0  0  0  0  0  0  0
    3.4780    1.4185   -2.0995 N   0  0  0  1  0  0  0  0  0  0  0  0
    4.4300    1.0740   -1.0346 C   0  0  0  1  0  0  0  0  0  0  0  0
    5.2802   -0.1364   -1.4208 C   0  0  0  1  0  0  0  0  0  0  0  0
    6.5319   -0.0333   -0.5424 C   0  0  0  1  0  0  0  0  0  0  0  0
    6.7118    1.4650   -0.2670 C   0  0  0  1  0  0  0  0  0  0  0  0
    5.4878    2.1664   -0.8605 C   0  0  0  1  0  0  0  0  0  0  0  0
    6.3379   -0.7741    0.7259 N   0  0  0  1  0  0  0  0  0  0  0  0
    1.5212   -2.5272   -2.1135 H   0  0  0  1  0  0  0  0  0  0  0  0
   -0.4243    1.1937   -5.4873 H   0  0  0  1  0  0  0  0  0  0  0  0
   -2.0201   -2.7713   -5.8377 H   0  0  0  1  0  0  0  0  0  0  0  0
   -2.9976   -4.9912   -5.7863 H   0  0  0  1  0  0  0  0  0  0  0  0
   -0.9261   -5.8189   -2.2292 H   0  0  0  1  0  0  0  0  0  0  0  0
    0.0498   -3.6026   -2.2804 H   0  0  0  1  0  0  0  0  0  0  0  0
   -4.0790   -8.0323   -4.4817 H   0  0  0  1  0  0  0  0  0  0  0  0
   -3.2532   -7.1707   -5.7577 H   0  0  0  1  0  0  0  0  0  0  0  0
   -4.3414   -6.3175   -4.6891 H   0  0  0  1  0  0  0  0  0  0  0  0
    3.5147    2.3112   -2.5022 H   0  0  0  1  0  0  0  0  0  0  0  0
    3.8981    0.8997   -0.1226 H   0  0  0  1  0  0  0  0  0  0  0  0
    5.5432   -0.0966   -2.4572 H   0  0  0  1  0  0  0  0  0  0  0  0
    4.7535   -1.0460   -1.2206 H   0  0  0  1  0  0  0  0  0  0  0  0
    7.3843   -0.4243   -1.0577 H   0  0  0  1  0  0  0  0  0  0  0  0
    7.6053    1.8220   -0.7350 H   0  0  0  1  0  0  0  0  0  0  0  0
    6.7648    1.6431    0.7868 H   0  0  0  1  0  0  0  0  0  0  0  0
    5.1339    2.9260   -0.1952 H   0  0  0  1  0  0  0  0  0  0  0  0
    5.7308    2.6046   -1.8059 H   0  0  0  1  0  0  0  0  0  0  0  0
    6.1628   -1.7182    0.5298 H   0  0  0  1  0  0  0  0  0  0  0  0
    5.5762   -0.3950    1.2121 H   0  0  0  1  0  0  0  0  0  0  0  0
  1  2  4  0  0  0  0
  1  6  4  0  0  0  0
  2  3  4  0  0  0  0
  2 18  1  0  0  0  0
  3  4  4  0  0  0  0
  4  5  4  0  0  0  0
  4  7  4  0  0  0  0
  5  6  4  0  0  0  0
  5  9  4  0  0  0  0
  6 25  1  0  0  0  0
  7  8  4  0  0  0  0
  7 26  1  0  0  0  0
  8  9  4  0  0  0  0
  9 10  1  0  0  0  0
 10 11  4  0  0  0  0
 10 15  4  0  0  0  0
 11 12  4  0  0  0  0
 11 27  1  0  0  0  0
 12 13  4  0  0  0  0
 12 28  1  0  0  0  0
 13 14  4  0  0  0  0
 13 16  1  0  0  0  0
 14 15  4  0  0  0  0
 14 29  1  0  0  0  0
 15 30  1  0  0  0  0
 16 17  1  0  0  0  0
 17 31  1  0  0  0  0
 17 32  1  0  0  0  0
 17 33  1  0  0  0  0
 18 19  1  0  0  0  0
 18 34  1  0  0  0  0
 19 20  1  0  0  0  0
 19 23  1  0  0  0  0
 19 35  1  0  0  0  0
 20 21  1  0  0  0  0
 20 36  1  0  0  0  0
 20 37  1  0  0  0  0
 21 22  1  0  0  0  0
 21 24  1  0  0  0  0
 21 38  1  0  0  0  0
 22 23  1  0  0  0  0
 22 39  1  0  0  0  0
 22 40  1  0  0  0  0
 23 41  1  0  0  0  0
 23 42  1  0  0  0  0
 24 43  1  0  0  0  0
 24 44  1  0  0  0  0
M  END
> <ConfClashScore>
0 

> <ConfOneFourInteractionScore>
-0.985399 

> <ConfScore>
-0.0291039 

> <ConfScorePBest>
0.00312675 

> <ConfTolerance>
0.346234 

$$$$
c13.sdf
 OpenBabel04162418043D

 44 47  0  0  0  0  0  0  0  0999 V2000
    4.0806   -0.3197   -3.8595 N   0  0  0  1  0  0  0  0  0  0  0  0
    4.6713    0.8576   -3.9750 C   0  0  0  1  0  0  0  0  0  0  0  0
    5.0499    1.3459   -5.1340 N   0  0  0  1  0  0  0  0  0  0  0  0
    4.8457    0.6532   -6.2574 C   0  0  0  1  0  0  0  0  0  0  0  0
    4.2176   -0.6076   -6.1718 C   0  0  0  1  0  0  0  0  0  0  0  0
    3.8379   -1.0746   -4.9169 C   0  0  0  1  0  0  0  0  0  0  0  0
    5.1211    0.8799   -7.6237 C   0  0  0  1  0  0  0  0  0  0  0  0
    4.7018   -0.1445   -8.3108 N   0  0  0  1  0  0  0  0  0  0  0  0
    4.1338   -1.0924   -7.4495 N   0  0  0  1  0  0  0  0  0  0  0  0
    3.6337   -2.2427   -7.9767 C   0  0  0  1  0  0  0  0  0  0  0  0
    2.8995   -3.1042   -7.1836 C   0  0  0  1  0  0  0  0  0  0  0  0
    2.3854   -4.2735   -7.7221 C   0  0  0  1  0  0  0  0  0  0  0  0
    2.6116   -4.5805   -9.0506 C   0  0  0  1  0  0  0  0  0  0  0  0
    3.3480   -3.7163   -9.8459 C   0  0  0  1  0  0  0  0  0  0  0  0
    3.8606   -2.5504   -9.3091 C   0  0  0  1  0  0  0  0  0  0  0  0
    2.0658   -5.7495   -9.4623 O   0  0  0  1  0  0  0  0  0  0  0  0
    2.2584   -6.1153  -10.8376 C   0  0  0  1  0  0  0  0  0  0  0  0
    4.8935    1.5836   -2.8646 N   0  0  0  1  0  0  0  0  0  0  0  0
    4.5137    1.2126   -1.4774 C   0  0  0  1  0  0  0  0  0  0  0  0
    5.0376   -0.1814   -1.1114 C   0  0  0  1  0  0  0  0  0  0  0  0
    6.4943   -0.0254   -0.6869 C   0  0  0  1  0  0  0  0  0  0  0  0
    6.6428    1.4990   -0.3490 C   0  0  0  1  0  0  0  0  0  0  0  0
    5.2369    2.1223   -0.4283 C   0  0  0  1  0  0  0  0  0  0  0  0
    6.7868   -0.8633    0.5144 N   0  0  0  1  0  0  0  0  0  0  0  0
    3.3727   -1.9989   -4.8133 H   0  0  0  1  0  0  0  0  0  0  0  0
    5.5825    1.7251   -8.0166 H   0  0  0  1  0  0  0  0  0  0  0  0
    2.7327   -2.8752   -6.1830 H   0  0  0  1  0  0  0  0  0  0  0  0
    1.8295   -4.9198   -7.1264 H   0  0  0  1  0  0  0  0  0  0  0  0
    3.5148   -3.9453  -10.8466 H   0  0  0  1  0  0  0  0  0  0  0  0
    4.4165   -1.9041   -9.9047 H   0  0  0  1  0  0  0  0  0  0  0  0
    3.3046   -6.2186  -11.0366 H   0  0  0  1  0  0  0  0  0  0  0  0
    1.8488   -5.3549  -11.4693 H   0  0  0  1  0  0  0  0  0  0  0  0
    1.7652   -7.0448  -11.0316 H   0  0  0  1  0  0  0  0  0  0  0  0
    5.3511    2.4422   -2.9825 H   0  0  0  1  0  0  0  0  0  0  0  0
    3.4504    1.2678   -1.3713 H   0  0  0  1  0  0  0  0  0  0  0  0
    4.9716   -0.8308   -1.9593 H   0  0  0  1  0  0  0  0  0  0  0  0
    4.4634   -0.5875   -0.3050 H   0  0  0  1  0  0  0  0  0  0  0  0
    7.1523   -0.3019   -1.4841 H   0  0  0  1  0  0  0  0  0  0  0  0
    7.0416    1.6187    0.6367 H   0  0  0  1  0  0  0  0  0  0  0  0
    7.2927    1.9696   -1.0568 H   0  0  0  1  0  0  0  0  0  0  0  0
    4.7439    2.0833    0.5206 H   0  0  0  1  0  0  0  0  0  0  0  0
    5.2836    3.1369   -0.7650 H   0  0  0  1  0  0  0  0  0  0  0  0
    6.5195   -1.7898    0.3399 H   0  0  0  1  0  0  0  0  0  0  0  0
    6.2860   -0.5183    1.2828 H   0  0  0  1  0  0  0  0  0  0  0  0
  1  2  4  0  0  0  0
  1  6  4  0  0  0  0
  2  3  4  0  0  0  0
  2 18  1  0  0  0  0
  3  4  4  0  0  0  0
  4  5  4  0  0  0  0
  4  7  4  0  0  0  0
  5  6  4  0  0  0  0
  5  9  4  0  0  0  0
  6 25  1  0  0  0  0
  7  8  4  0  0  0  0
  7 26  1  0  0  0  0
  8  9  4  0  0  0  0
  9 10  1  0  0  0  0
 10 11  4  0  0  0  0
 10 15  4  0  0  0  0
 11 12  4  0  0  0  0
 11 27  1  0  0  0  0
 12 13  4  0  0  0  0
 12 28  1  0  0  0  0
 13 14  4  0  0  0  0
 13 16  1  0  0  0  0
 14 15  4  0  0  0  0
 14 29  1  0  0  0  0
 15 30  1  0  0  0  0
 16 17  1  0  0  0  0
 17 31  1  0  0  0  0
 17 32  1  0  0  0  0
 17 33  1  0  0  0  0
 18 19  1  0  0  0  0
 18 34  1  0  0  0  0
 19 20  1  0  0  0  0
 19 23  1  0  0  0  0
 19 35  1  0  0  0  0
 20 21  1  0  0  0  0
 20 36  1  0  0  0  0
 20 37  1  0  0  0  0
 21 22  1  0  0  0  0
 21 24  1  0  0  0  0
 21 38  1  0  0  0  0
 22 23  1  0  0  0  0
 22 39  1  0  0  0  0
 22 40  1  0  0  0  0
 23 41  1  0  0  0  0
 23 42  1  0  0  0  0
 24 43  1  0  0  0  0
 24 44  1  0  0  0  0
M  END
> <ConfClashScore>
0 

> <ConfOneFourInteractionScore>
-0.985399 

> <ConfScore>
-0.0291039 

> <ConfScorePBest>
0.00311342 

> <ConfTolerance>
0.357957 

$$$$
c13.sdf
 OpenBabel04162418043D

 44 47  0  0  0  0  0  0  0  0999 V2000
    1.4971    0.9132   -3.2064 N   0  0  0  1  0  0  0  0  0  0  0  0
    2.4447    0.5270   -2.3690 C   0  0  0  1  0  0  0  0  0  0  0  0
    2.4549   -0.6647   -1.8168 N   0  0  0  1  0  0  0  0  0  0  0  0
    1.4869   -1.5433   -2.0898 C   0  0  0  1  0  0  0  0  0  0  0  0
    0.4590   -1.1650   -2.9796 C   0  0  0  1  0  0  0  0  0  0  0  0
    0.4998    0.1106   -3.5346 C   0  0  0  1  0  0  0  0  0  0  0  0
    1.2063   -2.8654   -1.6806 C   0  0  0  1  0  0  0  0  0  0  0  0
    0.1105   -3.2605   -2.2640 N   0  0  0  1  0  0  0  0  0  0  0  0
   -0.3877   -2.2363   -3.0799 N   0  0  0  1  0  0  0  0  0  0  0  0
   -1.6196   -2.3901   -3.7474 C   0  0  0  1  0  0  0  0  0  0  0  0
   -2.1638   -1.3940   -4.5359 C   0  0  0  1  0  0  0  0  0  0  0  0
   -3.3767   -1.6006   -5.1743 C   0  0  0  1  0  0  0  0  0  0  0  0
   -4.0446   -2.8005   -5.0181 C   0  0  0  1  0  0  0  0  0  0  0  0
   -3.4986   -3.7995   -4.2272 C   0  0  0  1  0  0  0  0  0  0  0  0
   -2.2892   -3.5937   -3.5906 C   0  0  0  1  0  0  0  0  0  0  0  0
   -5.2321   -3.0003   -5.6376 O   0  0  0  1  0  0  0  0  0  0  0  0
   -5.8879   -4.2574   -5.4096 C   0  0  0  1  0  0  0  0  0  0  0  0
    3.4639    1.4098   -2.0622 N   0  0  0  1  0  0  0  0  0  0  0  0
    4.4250    1.0752   -1.0197 C   0  0  0  1  0  0  0  0  0  0  0  0
    5.2628   -0.1432   -1.4079 C   0  0  0  1  0  0  0  0  0  0  0  0
    6.5305   -0.0364   -0.5531 C   0  0  0  1  0  0  0  0  0  0  0  0
    6.7219    1.4639   -0.2972 C   0  0  0  1  0  0  0  0  0  0  0  0
    5.4907    2.1646   -0.8764 C   0  0  0  1  0  0  0  0  0  0  0  0
    6.3543   -0.7693    0.7382 N   0  0  0  1  0  0  0  0  0  0  0  0
   -0.2397    0.4258   -4.1945 H   0  0  0  1  0  0  0  0  0  0  0  0
    1.7798   -3.4304   -1.0222 H   0  0  0  1  0  0  0  0  0  0  0  0
   -1.6633   -0.4896   -4.6502 H   0  0  0  1  0  0  0  0  0  0  0  0
   -3.7843   -0.8525   -5.7709 H   0  0  0  1  0  0  0  0  0  0  0  0
   -3.9991   -4.7040   -4.1128 H   0  0  0  1  0  0  0  0  0  0  0  0
   -1.8817   -4.3417   -2.9940 H   0  0  0  1  0  0  0  0  0  0  0  0
   -5.2389   -5.0568   -5.7005 H   0  0  0  1  0  0  0  0  0  0  0  0
   -6.7874   -4.3001   -5.9875 H   0  0  0  1  0  0  0  0  0  0  0  0
   -6.1261   -4.3518   -4.3707 H   0  0  0  1  0  0  0  0  0  0  0  0
    3.5396    2.2591   -2.5452 H   0  0  0  1  0  0  0  0  0  0  0  0
    3.9087    0.9133   -0.0966 H   0  0  0  1  0  0  0  0  0  0  0  0
    4.7357   -1.0481   -1.1884 H   0  0  0  1  0  0  0  0  0  0  0  0
    5.5073   -0.1158   -2.4492 H   0  0  0  1  0  0  0  0  0  0  0  0
    7.3717   -0.4369   -1.0792 H   0  0  0  1  0  0  0  0  0  0  0  0
    6.7946    1.6531    0.7535 H   0  0  0  1  0  0  0  0  0  0  0  0
    7.6085    1.8117   -0.7849 H   0  0  0  1  0  0  0  0  0  0  0  0
    5.1520    2.9329   -0.2131 H   0  0  0  1  0  0  0  0  0  0  0  0
    5.7186    2.5914   -1.8307 H   0  0  0  1  0  0  0  0  0  0  0  0
    6.1417   -1.7083    0.5550 H   0  0  0  1  0  0  0  0  0  0  0  0
    5.6225   -0.3623    1.2474 H   0  0  0  1  0  0  0  0  0  0  0  0
  1  2  4  0  0  0  0
  1  6  4  0  0  0  0
  2  3  4  0  0  0  0
  2 18  1  0  0  0  0
  3  4  4  0  0  0  0
  4  5  4  0  0  0  0
  4  7  4  0  0  0  0
  5  6  4  0  0  0  0
  5  9  4  0  0  0  0
  6 25  1  0  0  0  0
  7  8  4  0  0  0  0
  7 26  1  0  0  0  0
  8  9  4  0  0  0  0
  9 10  1  0  0  0  0
 10 11  4  0  0  0  0
 10 15  4  0  0  0  0
 11 12  4  0  0  0  0
 11 27  1  0  0  0  0
 12 13  4  0  0  0  0
 12 28  1  0  0  0  0
 13 14  4  0  0  0  0
 13 16  1  0  0  0  0
 14 15  4  0  0  0  0
 14 29  1  0  0  0  0
 15 30  1  0  0  0  0
 16 17  1  0  0  0  0
 17 31  1  0  0  0  0
 17 32  1  0  0  0  0
 17 33  1  0  0  0  0
 18 19  1  0  0  0  0
 18 34  1  0  0  0  0
 19 20  1  0  0  0  0
 19 23  1  0  0  0  0
 19 35  1  0  0  0  0
 20 21  1  0  0  0  0
 20 36  1  0  0  0  0
 20 37  1  0  0  0  0
 21 22  1  0  0  0  0
 21 24  1  0  0  0  0
 21 38  1  0  0  0  0
 22 23  1  0  0  0  0
 22 39  1  0  0  0  0
 22 40  1  0  0  0  0
 23 41  1  0  0  0  0
 23 42  1  0  0  0  0
 24 43  1  0  0  0  0
 24 44  1  0  0  0  0
M  END
> <ConfClashScore>
0 

> <ConfOneFourInteractionScore>
-0.981848 

> <ConfScore>
-0.0291039 

> <ConfScorePBest>
0.00310009 

> <ConfTolerance>
0.328385 

$$$$
c13.sdf
 OpenBabel04162418043D

 44 47  0  0  0  0  0  0  0  0999 V2000
    1.8875    0.0111   -1.0661 N   0  0  0  1  0  0  0  0  0  0  0  0
    2.2009    0.8402   -2.0473 C   0  0  0  1  0  0  0  0  0  0  0  0
    1.3729    1.1162   -3.0287 N   0  0  0  1  0  0  0  0  0  0  0  0
    0.1614    0.5556   -3.0674 C   0  0  0  1  0  0  0  0  0  0  0  0
   -0.2071   -0.3345   -2.0363 C   0  0  0  1  0  0  0  0  0  0  0  0
    0.7111   -0.5896   -1.0220 C   0  0  0  1  0  0  0  0  0  0  0  0
   -0.9371    0.6333   -3.9514 C   0  0  0  1  0  0  0  0  0  0  0  0
   -1.8889   -0.1362   -3.5049 N   0  0  0  1  0  0  0  0  0  0  0  0
   -1.4788   -0.7568   -2.3176 N   0  0  0  1  0  0  0  0  0  0  0  0
   -2.3677   -1.6365   -1.6673 C   0  0  0  1  0  0  0  0  0  0  0  0
   -1.9548   -2.9422   -1.4812 C   0  0  0  1  0  0  0  0  0  0  0  0
   -2.7875   -3.8479   -0.8426 C   0  0  0  1  0  0  0  0  0  0  0  0
   -4.0327   -3.4467   -0.3969 C   0  0  0  1  0  0  0  0  0  0  0  0
   -4.4467   -2.1370   -0.5837 C   0  0  0  1  0  0  0  0  0  0  0  0
   -3.6165   -1.2338   -1.2204 C   0  0  0  1  0  0  0  0  0  0  0  0
   -4.7582   -4.4183    0.2061 O   0  0  0  1  0  0  0  0  0  0  0  0
   -5.9158   -4.0069    0.9499 C   0  0  0  1  0  0  0  0  0  0  0  0
    3.4470    1.4399   -2.0412 N   0  0  0  1  0  0  0  0  0  0  0  0
    4.4295    1.0723   -1.0177 C   0  0  0  1  0  0  0  0  0  0  0  0
    5.2858   -0.1696   -1.4684 C   0  0  0  1  0  0  0  0  0  0  0  0
    6.5394   -0.0261   -0.5467 C   0  0  0  1  0  0  0  0  0  0  0  0
    6.7189    1.4687   -0.2736 C   0  0  0  1  0  0  0  0  0  0  0  0
    5.4904    2.1527   -0.8577 C   0  0  0  1  0  0  0  0  0  0  0  0
    6.3202   -0.7637    0.7415 N   0  0  0  1  0  0  0  0  0  0  0  0
    0.4762   -1.2397   -0.2450 H   0  0  0  1  0  0  0  0  0  0  0  0
   -0.9793    1.2095   -4.8161 H   0  0  0  1  0  0  0  0  0  0  0  0
   -1.0194   -3.2452   -1.8201 H   0  0  0  1  0  0  0  0  0  0  0  0
   -2.4752   -4.8295   -0.6989 H   0  0  0  1  0  0  0  0  0  0  0  0
   -5.3820   -1.8339   -0.2447 H   0  0  0  1  0  0  0  0  0  0  0  0
   -3.9287   -0.2523   -1.3641 H   0  0  0  1  0  0  0  0  0  0  0  0
   -6.3264   -3.1216    0.5109 H   0  0  0  1  0  0  0  0  0  0  0  0
   -5.6356   -3.8055    1.9627 H   0  0  0  1  0  0  0  0  0  0  0  0
   -6.6479   -4.7870    0.9302 H   0  0  0  1  0  0  0  0  0  0  0  0
    3.6726    2.1096   -2.7201 H   0  0  0  1  0  0  0  0  0  0  0  0
    3.9271    0.8819   -0.0924 H   0  0  0  1  0  0  0  0  0  0  0  0
    4.7690   -1.0887   -1.2865 H   0  0  0  1  0  0  0  0  0  0  0  0
    5.5512   -0.1078   -2.5032 H   0  0  0  1  0  0  0  0  0  0  0  0
    7.4052   -0.4170   -1.0392 H   0  0  0  1  0  0  0  0  0  0  0  0
    7.6067    1.8294   -0.7495 H   0  0  0  1  0  0  0  0  0  0  0  0
    6.7794    1.6494    0.7793 H   0  0  0  1  0  0  0  0  0  0  0  0
    5.7247    2.5842   -1.8084 H   0  0  0  1  0  0  0  0  0  0  0  0
    5.1425    2.9169   -0.1946 H   0  0  0  1  0  0  0  0  0  0  0  0
    6.0758   -1.6930    0.5489 H   0  0  0  1  0  0  0  0  0  0  0  0
    5.5976   -0.3338    1.2449 H   0  0  0  1  0  0  0  0  0  0  0  0
  1  2  4  0  0  0  0
  1  6  4  0  0  0  0
  2  3  4  0  0  0  0
  2 18  1  0  0  0  0
  3  4  4  0  0  0  0
  4  5  4  0  0  0  0
  4  7  4  0  0  0  0
  5  6  4  0  0  0  0
  5  9  4  0  0  0  0
  6 25  1  0  0  0  0
  7  8  4  0  0  0  0
  7 26  1  0  0  0  0
  8  9  4  0  0  0  0
  9 10  1  0  0  0  0
 10 11  4  0  0  0  0
 10 15  4  0  0  0  0
 11 12  4  0  0  0  0
 11 27  1  0  0  0  0
 12 13  4  0  0  0  0
 12 28  1  0  0  0  0
 13 14  4  0  0  0  0
 13 16  1  0  0  0  0
 14 15  4  0  0  0  0
 14 29  1  0  0  0  0
 15 30  1  0  0  0  0
 16 17  1  0  0  0  0
 17 31  1  0  0  0  0
 17 32  1  0  0  0  0
 17 33  1  0  0  0  0
 18 19  1  0  0  0  0
 18 34  1  0  0  0  0
 19 20  1  0  0  0  0
 19 23  1  0  0  0  0
 19 35  1  0  0  0  0
 20 21  1  0  0  0  0
 20 36  1  0  0  0  0
 20 37  1  0  0  0  0
 21 22  1  0  0  0  0
 21 24  1  0  0  0  0
 21 38  1  0  0  0  0
 22 23  1  0  0  0  0
 22 39  1  0  0  0  0
 22 40  1  0  0  0  0
 23 41  1  0  0  0  0
 23 42  1  0  0  0  0
 24 43  1  0  0  0  0
 24 44  1  0  0  0  0
M  END
> <ConfClashScore>
0 

> <ConfOneFourInteractionScore>
-0.984337 

> <ConfScore>
-0.0287373 

> <ConfScorePBest>
0.00308676 

> <ConfTolerance>
0.308322 

$$$$
c13.sdf
 OpenBabel04162418043D

 44 47  0  0  0  0  0  0  0  0999 V2000
    3.3629    2.9299   -3.4016 N   0  0  0  1  0  0  0  0  0  0  0  0
    4.3577    2.1875   -3.8571 C   0  0  0  1  0  0  0  0  0  0  0  0
    4.8287    2.3113   -5.0769 N   0  0  0  1  0  0  0  0  0  0  0  0
    4.3059    3.2108   -5.9142 C   0  0  0  1  0  0  0  0  0  0  0  0
    3.2426    4.0207   -5.4617 C   0  0  0  1  0  0  0  0  0  0  0  0
    2.7845    3.8454   -4.1592 C   0  0  0  1  0  0  0  0  0  0  0  0
    4.5681    3.5899   -7.2490 C   0  0  0  1  0  0  0  0  0  0  0  0
    3.7439    4.5419   -7.5833 N   0  0  0  1  0  0  0  0  0  0  0  0
    2.9026    4.8411   -6.5037 N   0  0  0  1  0  0  0  0  0  0  0  0
    1.9083    5.8507   -6.6141 C   0  0  0  1  0  0  0  0  0  0  0  0
    0.5701    5.5052   -6.6169 C   0  0  0  1  0  0  0  0  0  0  0  0
   -0.3996    6.4904   -6.7192 C   0  0  0  1  0  0  0  0  0  0  0  0
   -0.0284    7.8176   -6.8238 C   0  0  0  1  0  0  0  0  0  0  0  0
    1.3139    8.1639   -6.8210 C   0  0  0  1  0  0  0  0  0  0  0  0
    2.2809    7.1817   -6.7190 C   0  0  0  1  0  0  0  0  0  0  0  0
   -0.9228    8.8242   -6.9315 O   0  0  0  1  0  0  0  0  0  0  0  0
   -0.4755   10.1835   -6.8103 C   0  0  0  1  0  0  0  0  0  0  0  0
    4.9245    1.2450   -3.0189 N   0  0  0  1  0  0  0  0  0  0  0  0
    4.5466    1.2049   -1.6035 C   0  0  0  1  0  0  0  0  0  0  0  0
    4.8868   -0.1938   -0.9956 C   0  0  0  1  0  0  0  0  0  0  0  0
    6.3607    0.0399   -0.4935 C   0  0  0  1  0  0  0  0  0  0  0  0
    6.2812    1.4427    0.0932 C   0  0  0  1  0  0  0  0  0  0  0  0
    5.3525    2.2384   -0.8138 C   0  0  0  1  0  0  0  0  0  0  0  0
    6.7384   -0.9478    0.5329 N   0  0  0  1  0  0  0  0  0  0  0  0
    2.0028    4.4233   -3.7896 H   0  0  0  1  0  0  0  0  0  0  0  0
    5.2985    3.1773   -7.8636 H   0  0  0  1  0  0  0  0  0  0  0  0
    0.2908    4.5062   -6.5422 H   0  0  0  1  0  0  0  0  0  0  0  0
   -1.4067    6.2308   -6.7172 H   0  0  0  1  0  0  0  0  0  0  0  0
    1.5933    9.1629   -6.8956 H   0  0  0  1  0  0  0  0  0  0  0  0
    3.2880    7.4413   -6.7209 H   0  0  0  1  0  0  0  0  0  0  0  0
   -0.2899   10.5866   -7.7840 H   0  0  0  1  0  0  0  0  0  0  0  0
    0.4261   10.2121   -6.2349 H   0  0  0  1  0  0  0  0  0  0  0  0
   -1.2296   10.7647   -6.3219 H   0  0  0  1  0  0  0  0  0  0  0  0
    5.5779    0.6050   -3.3707 H   0  0  0  1  0  0  0  0  0  0  0  0
    3.4995    1.4031   -1.5076 H   0  0  0  1  0  0  0  0  0  0  0  0
    4.8430   -0.9642   -1.7367 H   0  0  0  1  0  0  0  0  0  0  0  0
    4.2315   -0.4391   -0.1861 H   0  0  0  1  0  0  0  0  0  0  0  0
    7.0580   -0.0027   -1.3039 H   0  0  0  1  0  0  0  0  0  0  0  0
    5.8853    1.4060    1.0866 H   0  0  0  1  0  0  0  0  0  0  0  0
    7.2526    1.8910    0.1122 H   0  0  0  1  0  0  0  0  0  0  0  0
    5.9208    2.8540   -1.4794 H   0  0  0  1  0  0  0  0  0  0  0  0
    4.6989    2.8522   -0.2299 H   0  0  0  1  0  0  0  0  0  0  0  0
    7.6605   -0.7835    0.8214 H   0  0  0  1  0  0  0  0  0  0  0  0
    6.6697   -1.8507    0.1580 H   0  0  0  1  0  0  0  0  0  0  0  0
  1  2  4  0  0  0  0
  1  6  4  0  0  0  0
  2  3  4  0  0  0  0
  2 18  1  0  0  0  0
  3  4  4  0  0  0  0
  4  5  4  0  0  0  0
  4  7  4  0  0  0  0
  5  6  4  0  0  0  0
  5  9  4  0  0  0  0
  6 25  1  0  0  0  0
  7  8  4  0  0  0  0
  7 26  1  0  0  0  0
  8  9  4  0  0  0  0
  9 10  1  0  0  0  0
 10 11  4  0  0  0  0
 10 15  4  0  0  0  0
 11 12  4  0  0  0  0
 11 27  1  0  0  0  0
 12 13  4  0  0  0  0
 12 28  1  0  0  0  0
 13 14  4  0  0  0  0
 13 16  1  0  0  0  0
 14 15  4  0  0  0  0
 14 29  1  0  0  0  0
 15 30  1  0  0  0  0
 16 17  1  0  0  0  0
 17 31  1  0  0  0  0
 17 32  1  0  0  0  0
 17 33  1  0  0  0  0
 18 19  1  0  0  0  0
 18 34  1  0  0  0  0
 19 20  1  0  0  0  0
 19 23  1  0  0  0  0
 19 35  1  0  0  0  0
 20 21  1  0  0  0  0
 20 36  1  0  0  0  0
 20 37  1  0  0  0  0
 21 22  1  0  0  0  0
 21 24  1  0  0  0  0
 21 38  1  0  0  0  0
 22 23  1  0  0  0  0
 22 39  1  0  0  0  0
 22 40  1  0  0  0  0
 23 41  1  0  0  0  0
 23 42  1  0  0  0  0
 24 43  1  0  0  0  0
 24 44  1  0  0  0  0
M  END
> <ConfClashScore>
0 

> <ConfOneFourInteractionScore>
-0.984337 

> <ConfScore>
-0.028398 

> <ConfScorePBest>
0.00307343 

> <ConfTolerance>
0.354978 

$$$$
c13.sdf
 OpenBabel04162418043D

 44 47  0  0  0  0  0  0  0  0999 V2000
    2.0297    2.4353   -1.4854 N   0  0  0  1  0  0  0  0  0  0  0  0
    2.7687    2.3397   -2.5777 C   0  0  0  1  0  0  0  0  0  0  0  0
    2.4297    2.9110   -3.7107 N   0  0  0  1  0  0  0  0  0  0  0  0
    1.3027    3.6223   -3.7971 C   0  0  0  1  0  0  0  0  0  0  0  0
    0.4892    3.7457   -2.6507 C   0  0  0  1  0  0  0  0  0  0  0  0
    0.8986    3.1188   -1.4775 C   0  0  0  1  0  0  0  0  0  0  0  0
    0.6641    4.3429   -4.8301 C   0  0  0  1  0  0  0  0  0  0  0  0
   -0.4365    4.8593   -4.3616 N   0  0  0  1  0  0  0  0  0  0  0  0
   -0.5851    4.5138   -3.0120 N   0  0  0  1  0  0  0  0  0  0  0  0
   -1.7139    4.9576   -2.2659 C   0  0  0  1  0  0  0  0  0  0  0  0
   -1.8752    6.3043   -2.0001 C   0  0  0  1  0  0  0  0  0  0  0  0
   -3.0203    6.7520   -1.3600 C   0  0  0  1  0  0  0  0  0  0  0  0
   -3.9984    5.8512   -0.9829 C   0  0  0  1  0  0  0  0  0  0  0  0
   -3.8366    4.5006   -1.2496 C   0  0  0  1  0  0  0  0  0  0  0  0
   -2.6948    4.0540   -1.8878 C   0  0  0  1  0  0  0  0  0  0  0  0
   -5.1527    6.1688   -0.3499 O   0  0  0  1  0  0  0  0  0  0  0  0
   -5.3737    7.5546   -0.0444 C   0  0  0  1  0  0  0  0  0  0  0  0
    3.9429    1.6110   -2.5268 N   0  0  0  1  0  0  0  0  0  0  0  0
    4.4053    1.0591   -1.2502 C   0  0  0  1  0  0  0  0  0  0  0  0
    5.2888   -0.1667   -1.4935 C   0  0  0  1  0  0  0  0  0  0  0  0
    6.4576   -0.0340   -0.5142 C   0  0  0  1  0  0  0  0  0  0  0  0
    6.6830    1.4778   -0.4877 C   0  0  0  1  0  0  0  0  0  0  0  0
    5.2761    2.0851   -0.5140 C   0  0  0  1  0  0  0  0  0  0  0  0
    6.0957   -0.5469    0.8271 N   0  0  0  1  0  0  0  0  0  0  0  0
    0.3259    3.1868   -0.6120 H   0  0  0  1  0  0  0  0  0  0  0  0
    1.0145    4.4446   -5.8040 H   0  0  0  1  0  0  0  0  0  0  0  0
   -1.1374    6.9817   -2.2802 H   0  0  0  1  0  0  0  0  0  0  0  0
   -3.1435    7.7658   -1.1636 H   0  0  0  1  0  0  0  0  0  0  0  0
   -4.5743    3.8232   -0.9695 H   0  0  0  1  0  0  0  0  0  0  0  0
   -2.5715    3.0402   -2.0842 H   0  0  0  1  0  0  0  0  0  0  0  0
   -6.0800    7.9645   -0.7358 H   0  0  0  1  0  0  0  0  0  0  0  0
   -4.4494    8.0882   -0.1208 H   0  0  0  1  0  0  0  0  0  0  0  0
   -5.7563    7.6435    0.9509 H   0  0  0  1  0  0  0  0  0  0  0  0
    4.4651    1.4639   -3.3429 H   0  0  0  1  0  0  0  0  0  0  0  0
    3.5608    0.7926   -0.6496 H   0  0  0  1  0  0  0  0  0  0  0  0
    5.6461   -0.1749   -2.5020 H   0  0  0  1  0  0  0  0  0  0  0  0
    4.7410   -1.0655   -1.3012 H   0  0  0  1  0  0  0  0  0  0  0  0
    7.3242   -0.5497   -0.8718 H   0  0  0  1  0  0  0  0  0  0  0  0
    7.2009    1.7658    0.4033 H   0  0  0  1  0  0  0  0  0  0  0  0
    7.2441    1.7899   -1.3436 H   0  0  0  1  0  0  0  0  0  0  0  0
    4.9151    2.2370    0.4817 H   0  0  0  1  0  0  0  0  0  0  0  0
    5.2805    3.0177   -1.0386 H   0  0  0  1  0  0  0  0  0  0  0  0
    6.8395   -0.3955    1.4469 H   0  0  0  1  0  0  0  0  0  0  0  0
    5.9088   -1.5073    0.7698 H   0  0  0  1  0  0  0  0  0  0  0  0
  1  2  4  0  0  0  0
  1  6  4  0  0  0  0
  2  3  4  0  0  0  0
  2 18  1  0  0  0  0
  3  4  4  0  0  0  0
  4  5  4  0  0  0  0
  4  7  4  0  0  0  0
  5  6  4  0  0  0  0
  5  9  4  0  0  0  0
  6 25  1  0  0  0  0
  7  8  4  0  0  0  0
  7 26  1  0  0  0  0
  8  9  4  0  0  0  0
  9 10  1  0  0  0  0
 10 11  4  0  0  0  0
 10 15  4  0  0  0  0
 11 12  4  0  0  0  0
 11 27  1  0  0  0  0
 12 13  4  0  0  0  0
 12 28  1  0  0  0  0
 13 14  4  0  0  0  0
 13 16  1  0  0  0  0
 14 15  4  0  0  0  0
 14 29  1  0  0  0  0
 15 30  1  0  0  0  0
 16 17  1  0  0  0  0
 17 31  1  0  0  0  0
 17 32  1  0  0  0  0
 17 33  1  0  0  0  0
 18 19  1  0  0  0  0
 18 34  1  0  0  0  0
 19 20  1  0  0  0  0
 19 23  1  0  0  0  0
 19 35  1  0  0  0  0
 20 21  1  0  0  0  0
 20 36  1  0  0  0  0
 20 37  1  0  0  0  0
 21 22  1  0  0  0  0
 21 24  1  0  0  0  0
 21 38  1  0  0  0  0
 22 23  1  0  0  0  0
 22 39  1  0  0  0  0
 22 40  1  0  0  0  0
 23 41  1  0  0  0  0
 23 42  1  0  0  0  0
 24 43  1  0  0  0  0
 24 44  1  0  0  0  0
M  END
> <ConfClashScore>
0 

> <ConfOneFourInteractionScore>
-0.984337 

> <ConfScore>
-0.028398 

> <ConfScorePBest>
0.00306011 

> <ConfTolerance>
0.40851 

$$$$
c13.sdf
 OpenBabel04162418043D

 44 47  0  0  0  0  0  0  0  0999 V2000
    2.6534    1.0411   -4.5181 N   0  0  0  1  0  0  0  0  0  0  0  0
    3.0982    0.6754   -3.3278 C   0  0  0  1  0  0  0  0  0  0  0  0
    2.6957   -0.4235   -2.7316 N   0  0  0  1  0  0  0  0  0  0  0  0
    1.8045   -1.2239   -3.3220 C   0  0  0  1  0  0  0  0  0  0  0  0
    1.3080   -0.8648   -4.5932 C   0  0  0  1  0  0  0  0  0  0  0  0
    1.7704    0.3110   -5.1768 C   0  0  0  1  0  0  0  0  0  0  0  0
    1.1800   -2.4402   -2.9687 C   0  0  0  1  0  0  0  0  0  0  0  0
    0.3768   -2.7935   -3.9318 N   0  0  0  1  0  0  0  0  0  0  0  0
    0.4246   -1.8441   -4.9610 N   0  0  0  1  0  0  0  0  0  0  0  0
   -0.4157   -1.9117   -6.0907 C   0  0  0  1  0  0  0  0  0  0  0  0
   -1.4676   -1.0365   -6.2842 C   0  0  0  1  0  0  0  0  0  0  0  0
   -2.2597   -1.1447   -7.4166 C   0  0  0  1  0  0  0  0  0  0  0  0
   -2.0009   -2.1311   -8.3495 C   0  0  0  1  0  0  0  0  0  0  0  0
   -0.9457   -3.0089   -8.1552 C   0  0  0  1  0  0  0  0  0  0  0  0
   -0.1559   -2.9011   -7.0261 C   0  0  0  1  0  0  0  0  0  0  0  0
   -2.8431   -2.1424   -9.4099 O   0  0  0  1  0  0  0  0  0  0  0  0
   -2.5831   -3.1042  -10.4442 C   0  0  0  1  0  0  0  0  0  0  0  0
    4.0207    1.5123   -2.7263 N   0  0  0  1  0  0  0  0  0  0  0  0
    4.4318    1.2045   -1.3534 C   0  0  0  1  0  0  0  0  0  0  0  0
    5.0804   -0.1694   -1.2912 C   0  0  0  1  0  0  0  0  0  0  0  0
    6.4594   -0.0143   -0.6292 C   0  0  0  1  0  0  0  0  0  0  0  0
    6.3705    1.3450    0.0423 C   0  0  0  1  0  0  0  0  0  0  0  0
    5.5070    2.2012   -0.8801 C   0  0  0  1  0  0  0  0  0  0  0  0
    6.6941   -1.0876    0.3703 N   0  0  0  1  0  0  0  0  0  0  0  0
    1.4280    0.6091   -6.1125 H   0  0  0  1  0  0  0  0  0  0  0  0
    1.3355   -2.9669   -2.0856 H   0  0  0  1  0  0  0  0  0  0  0  0
   -1.6649   -0.2968   -5.5803 H   0  0  0  1  0  0  0  0  0  0  0  0
   -3.0488   -0.4836   -7.5643 H   0  0  0  1  0  0  0  0  0  0  0  0
   -0.7484   -3.7486   -8.8591 H   0  0  0  1  0  0  0  0  0  0  0  0
    0.6333   -3.5622   -6.8784 H   0  0  0  1  0  0  0  0  0  0  0  0
   -1.6146   -2.9257  -10.8627 H   0  0  0  1  0  0  0  0  0  0  0  0
   -3.3246   -3.0132  -11.2102 H   0  0  0  1  0  0  0  0  0  0  0  0
   -2.6162   -4.0904  -10.0304 H   0  0  0  1  0  0  0  0  0  0  0  0
    4.3876    2.2861   -3.2027 H   0  0  0  1  0  0  0  0  0  0  0  0
    3.5791    1.2429   -0.7081 H   0  0  0  1  0  0  0  0  0  0  0  0
    5.1945   -0.5621   -2.2800 H   0  0  0  1  0  0  0  0  0  0  0  0
    4.4721   -0.8321   -0.7117 H   0  0  0  1  0  0  0  0  0  0  0  0
    7.2401   -0.0305   -1.3607 H   0  0  0  1  0  0  0  0  0  0  0  0
    5.9139    1.2565    1.0059 H   0  0  0  1  0  0  0  0  0  0  0  0
    7.3450    1.7744    0.1470 H   0  0  0  1  0  0  0  0  0  0  0  0
    6.0766    2.5756   -1.7049 H   0  0  0  1  0  0  0  0  0  0  0  0
    5.0680    3.0195   -0.3486 H   0  0  0  1  0  0  0  0  0  0  0  0
    5.8973   -1.1923    0.9312 H   0  0  0  1  0  0  0  0  0  0  0  0
    7.4600   -0.8482    0.9328 H   0  0  0  1  0  0  0  0  0  0  0  0
  1  2  4  0  0  0  0
  1  6  4  0  0  0  0
  2  3  4  0  0  0  0
  2 18  1  0  0  0  0
  3  4  4  0  0  0  0
  4  5  4  0  0  0  0
  4  7  4  0  0  0  0
  5  6  4  0  0  0  0
  5  9  4  0  0  0  0
  6 25  1  0  0  0  0
  7  8  4  0  0  0  0
  7 26  1  0  0  0  0
  8  9  4  0  0  0  0
  9 10  1  0  0  0  0
 10 11  4  0  0  0  0
 10 15  4  0  0  0  0
 11 12  4  0  0  0  0
 11 27  1  0  0  0  0
 12 13  4  0  0  0  0
 12 28  1  0  0  0  0
 13 14  4  0  0  0  0
 13 16  1  0  0  0  0
 14 15  4  0  0  0  0
 14 29  1  0  0  0  0
 15 30  1  0  0  0  0
 16 17  1  0  0  0  0
 17 31  1  0  0  0  0
 17 32  1  0  0  0  0
 17 33  1  0  0  0  0
 18 19  1  0  0  0  0
 18 34  1  0  0  0  0
 19 20  1  0  0  0  0
 19 23  1  0  0  0  0
 19 35  1  0  0  0  0
 20 21  1  0  0  0  0
 20 36  1  0  0  0  0
 20 37  1  0  0  0  0
 21 22  1  0  0  0  0
 21 24  1  0  0  0  0
 21 38  1  0  0  0  0
 22 23  1  0  0  0  0
 22 39  1  0  0  0  0
 22 40  1  0  0  0  0
 23 41  1  0  0  0  0
 23 42  1  0  0  0  0
 24 43  1  0  0  0  0
 24 44  1  0  0  0  0
M  END
> <ConfClashScore>
0 

> <ConfOneFourInteractionScore>
-0.981848 

> <ConfScore>
-0.0277886 

> <ConfScorePBest>
0.00304678 

> <ConfTolerance>
0.359258 

$$$$
c13.sdf
 OpenBabel04162418043D

 44 47  0  0  0  0  0  0  0  0999 V2000
    5.3619    2.2185   -5.0741 N   0  0  0  1  0  0  0  0  0  0  0  0
    4.7063    2.2178   -3.9259 C   0  0  0  1  0  0  0  0  0  0  0  0
    3.6991    3.0267   -3.6885 N   0  0  0  1  0  0  0  0  0  0  0  0
    3.2966    3.8947   -4.6201 C   0  0  0  1  0  0  0  0  0  0  0  0
    3.9734    3.9232   -5.8580 C   0  0  0  1  0  0  0  0  0  0  0  0
    5.0336    3.0429   -6.0535 C   0  0  0  1  0  0  0  0  0  0  0  0
    2.2809    4.8734   -4.6879 C   0  0  0  1  0  0  0  0  0  0  0  0
    2.3301    5.4476   -5.8563 N   0  0  0  1  0  0  0  0  0  0  0  0
    3.3664    4.8886   -6.6156 N   0  0  0  1  0  0  0  0  0  0  0  0
    3.5516    5.2848   -7.9608 C   0  0  0  1  0  0  0  0  0  0  0  0
    3.2870    6.5872   -8.3402 C   0  0  0  1  0  0  0  0  0  0  0  0
    3.4736    6.9767   -9.6573 C   0  0  0  1  0  0  0  0  0  0  0  0
    3.9192    6.0616  -10.5923 C   0  0  0  1  0  0  0  0  0  0  0  0
    4.1846    4.7553  -10.2116 C   0  0  0  1  0  0  0  0  0  0  0  0
    3.9986    4.3668   -8.8983 C   0  0  0  1  0  0  0  0  0  0  0  0
    4.1329    6.3235  -11.9037 O   0  0  0  1  0  0  0  0  0  0  0  0
    3.6849    7.5943  -12.4004 C   0  0  0  1  0  0  0  0  0  0  0  0
    5.1183    1.3443   -3.0003 N   0  0  0  1  0  0  0  0  0  0  0  0
    4.5696    1.1823   -1.6507 C   0  0  0  1  0  0  0  0  0  0  0  0
    4.9294   -0.1854   -1.0653 C   0  0  0  1  0  0  0  0  0  0  0  0
    6.3377   -0.0292   -0.4867 C   0  0  0  1  0  0  0  0  0  0  0  0
    6.5747    1.4767   -0.3167 C   0  0  0  1  0  0  0  0  0  0  0  0
    5.2365    2.1391   -0.6622 C   0  0  0  1  0  0  0  0  0  0  0  0
    6.4309   -0.7133    0.8252 N   0  0  0  1  0  0  0  0  0  0  0  0
    5.5569    3.0341   -6.9523 H   0  0  0  1  0  0  0  0  0  0  0  0
    1.6051    5.0987   -3.9301 H   0  0  0  1  0  0  0  0  0  0  0  0
    2.9478    7.2748   -7.6376 H   0  0  0  1  0  0  0  0  0  0  0  0
    3.2783    7.9577   -9.9421 H   0  0  0  1  0  0  0  0  0  0  0  0
    4.5238    4.0676  -10.9142 H   0  0  0  1  0  0  0  0  0  0  0  0
    4.1938    3.3858   -8.6136 H   0  0  0  1  0  0  0  0  0  0  0  0
    4.2267    8.3788  -11.9147 H   0  0  0  1  0  0  0  0  0  0  0  0
    2.6397    7.7066  -12.2011 H   0  0  0  1  0  0  0  0  0  0  0  0
    3.8547    7.6444  -13.4557 H   0  0  0  1  0  0  0  0  0  0  0  0
    5.8602    0.7544   -3.2491 H   0  0  0  1  0  0  0  0  0  0  0  0
    3.5098    1.3271   -1.6762 H   0  0  0  1  0  0  0  0  0  0  0  0
    4.2374   -0.4554   -0.2951 H   0  0  0  1  0  0  0  0  0  0  0  0
    4.9213   -0.9328   -1.8309 H   0  0  0  1  0  0  0  0  0  0  0  0
    7.0608   -0.4436   -1.1577 H   0  0  0  1  0  0  0  0  0  0  0  0
    7.3419    1.8127   -0.9827 H   0  0  0  1  0  0  0  0  0  0  0  0
    6.8540    1.7005    0.6917 H   0  0  0  1  0  0  0  0  0  0  0  0
    5.3954    3.0962   -1.1134 H   0  0  0  1  0  0  0  0  0  0  0  0
    4.6352    2.2533    0.2154 H   0  0  0  1  0  0  0  0  0  0  0  0
    7.2875   -0.4947    1.2480 H   0  0  0  1  0  0  0  0  0  0  0  0
    6.3700   -1.6824    0.6931 H   0  0  0  1  0  0  0  0  0  0  0  0
  1  2  4  0  0  0  0
  1  6  4  0  0  0  0
  2  3  4  0  0  0  0
  2 18  1  0  0  0  0
  3  4  4  0  0  0  0
  4  5  4  0  0  0  0
  4  7  4  0  0  0  0
  5  6  4  0  0  0  0
  5  9  4  0  0  0  0
  6 25  1  0  0  0  0
  7  8  4  0  0  0  0
  7 26  1  0  0  0  0
  8  9  4  0  0  0  0
  9 10  1  0  0  0  0
 10 11  4  0  0  0  0
 10 15  4  0  0  0  0
 11 12  4  0  0  0  0
 11 27  1  0  0  0  0
 12 13  4  0  0  0  0
 12 28  1  0  0  0  0
 13 14  4  0  0  0  0
 13 16  1  0  0  0  0
 14 15  4  0  0  0  0
 14 29  1  0  0  0  0
 15 30  1  0  0  0  0
 16 17  1  0  0  0  0
 17 31  1  0  0  0  0
 17 32  1  0  0  0  0
 17 33  1  0  0  0  0
 18 19  1  0  0  0  0
 18 34  1  0  0  0  0
 19 20  1  0  0  0  0
 19 23  1  0  0  0  0
 19 35  1  0  0  0  0
 20 21  1  0  0  0  0
 20 36  1  0  0  0  0
 20 37  1  0  0  0  0
 21 22  1  0  0  0  0
 21 24  1  0  0  0  0
 21 38  1  0  0  0  0
 22 23  1  0  0  0  0
 22 39  1  0  0  0  0
 22 40  1  0  0  0  0
 23 41  1  0  0  0  0
 23 42  1  0  0  0  0
 24 43  1  0  0  0  0
 24 44  1  0  0  0  0
M  END
> <ConfClashScore>
0 

> <ConfOneFourInteractionScore>
-0.984337 

> <ConfScore>
-0.0273772 

> <ConfScorePBest>
0.00303345 

> <ConfTolerance>
0.47497 

$$$$
c13.sdf
 OpenBabel04162418043D

 44 47  0  0  0  0  0  0  0  0999 V2000
    2.1097    2.7962   -1.2395 N   0  0  0  1  0  0  0  0  0  0  0  0
    2.4776    2.2074   -2.3649 C   0  0  0  1  0  0  0  0  0  0  0  0
    1.8248    2.3716   -3.4927 N   0  0  0  1  0  0  0  0  0  0  0  0
    0.7448    3.1557   -3.5394 C   0  0  0  1  0  0  0  0  0  0  0  0
    0.3232    3.8004   -2.3569 C   0  0  0  1  0  0  0  0  0  0  0  0
    1.0537    3.5895   -1.1912 C   0  0  0  1  0  0  0  0  0  0  0  0
   -0.1587    3.5363   -4.5558 C   0  0  0  1  0  0  0  0  0  0  0  0
   -1.0496    4.3381   -4.0453 N   0  0  0  1  0  0  0  0  0  0  0  0
   -0.7889    4.5298   -2.6821 N   0  0  0  1  0  0  0  0  0  0  0  0
   -1.6116    5.3568   -1.9029 C   0  0  0  1  0  0  0  0  0  0  0  0
   -1.2215    5.9654   -0.7249 C   0  0  0  1  0  0  0  0  0  0  0  0
   -2.1128    6.7700   -0.0324 C   0  0  0  1  0  0  0  0  0  0  0  0
   -3.3932    6.9596   -0.5171 C   0  0  0  1  0  0  0  0  0  0  0  0
   -3.7843    6.3492   -1.6986 C   0  0  0  1  0  0  0  0  0  0  0  0
   -2.8957    5.5468   -2.3891 C   0  0  0  1  0  0  0  0  0  0  0  0
   -4.2161    7.7526    0.2095 O   0  0  0  1  0  0  0  0  0  0  0  0
   -5.5926    7.8155   -0.1950 C   0  0  0  1  0  0  0  0  0  0  0  0
    3.5609    1.4101   -2.3558 N   0  0  0  1  0  0  0  0  0  0  0  0
    4.3878    1.0802   -1.1939 C   0  0  0  1  0  0  0  0  0  0  0  0
    5.2785   -0.1306   -1.4727 C   0  0  0  1  0  0  0  0  0  0  0  0
    6.4258   -0.0149   -0.4632 C   0  0  0  1  0  0  0  0  0  0  0  0
    6.5704    1.4865   -0.1840 C   0  0  0  1  0  0  0  0  0  0  0  0
    5.4173    2.1780   -0.9152 C   0  0  0  1  0  0  0  0  0  0  0  0
    6.0930   -0.7501    0.7925 N   0  0  0  1  0  0  0  0  0  0  0  0
    0.7743    4.0470   -0.3000 H   0  0  0  1  0  0  0  0  0  0  0  0
   -0.1193    3.2274   -5.5481 H   0  0  0  1  0  0  0  0  0  0  0  0
   -0.2593    5.8196   -0.3580 H   0  0  0  1  0  0  0  0  0  0  0  0
   -1.8180    7.2312    0.8519 H   0  0  0  1  0  0  0  0  0  0  0  0
   -4.7465    6.4949   -2.0654 H   0  0  0  1  0  0  0  0  0  0  0  0
   -3.1905    5.0856   -3.2735 H   0  0  0  1  0  0  0  0  0  0  0  0
   -5.6774    8.4066   -1.0829 H   0  0  0  1  0  0  0  0  0  0  0  0
   -6.1736    8.2599    0.5859 H   0  0  0  1  0  0  0  0  0  0  0  0
   -5.9525    6.8267   -0.3894 H   0  0  0  1  0  0  0  0  0  0  0  0
    3.8224    1.0106   -3.2116 H   0  0  0  1  0  0  0  0  0  0  0  0
    3.7593    0.9125   -0.3443 H   0  0  0  1  0  0  0  0  0  0  0  0
    4.7353   -1.0402   -1.3228 H   0  0  0  1  0  0  0  0  0  0  0  0
    5.6536   -0.0996   -2.4743 H   0  0  0  1  0  0  0  0  0  0  0  0
    7.3306   -0.4076   -0.8779 H   0  0  0  1  0  0  0  0  0  0  0  0
    6.5069    1.6746    0.8674 H   0  0  0  1  0  0  0  0  0  0  0  0
    7.5090    1.8424   -0.5544 H   0  0  0  1  0  0  0  0  0  0  0  0
    4.9904    2.9424   -0.3001 H   0  0  0  1  0  0  0  0  0  0  0  0
    5.7616    2.6083   -1.8323 H   0  0  0  1  0  0  0  0  0  0  0  0
    6.7896   -0.5861    1.4620 H   0  0  0  1  0  0  0  0  0  0  0  0
    6.0406   -1.7104    0.6044 H   0  0  0  1  0  0  0  0  0  0  0  0
  1  2  4  0  0  0  0
  1  6  4  0  0  0  0
  2  3  4  0  0  0  0
  2 18  1  0  0  0  0
  3  4  4  0  0  0  0
  4  5  4  0  0  0  0
  4  7  4  0  0  0  0
  5  6  4  0  0  0  0
  5  9  4  0  0  0  0
  6 25  1  0  0  0  0
  7  8  4  0  0  0  0
  7 26  1  0  0  0  0
  8  9  4  0  0  0  0
  9 10  1  0  0  0  0
 10 11  4  0  0  0  0
 10 15  4  0  0  0  0
 11 12  4  0  0  0  0
 11 27  1  0  0  0  0
 12 13  4  0  0  0  0
 12 28  1  0  0  0  0
 13 14  4  0  0  0  0
 13 16  1  0  0  0  0
 14 15  4  0  0  0  0
 14 29  1  0  0  0  0
 15 30  1  0  0  0  0
 16 17  1  0  0  0  0
 17 31  1  0  0  0  0
 17 32  1  0  0  0  0
 17 33  1  0  0  0  0
 18 19  1  0  0  0  0
 18 34  1  0  0  0  0
 19 20  1  0  0  0  0
 19 23  1  0  0  0  0
 19 35  1  0  0  0  0
 20 21  1  0  0  0  0
 20 36  1  0  0  0  0
 20 37  1  0  0  0  0
 21 22  1  0  0  0  0
 21 24  1  0  0  0  0
 21 38  1  0  0  0  0
 22 23  1  0  0  0  0
 22 39  1  0  0  0  0
 22 40  1  0  0  0  0
 23 41  1  0  0  0  0
 23 42  1  0  0  0  0
 24 43  1  0  0  0  0
 24 44  1  0  0  0  0
M  END
> <ConfClashScore>
0 

> <ConfOneFourInteractionScore>
-0.984337 

> <ConfScore>
-0.0273772 

> <ConfScorePBest>
0.00302012 

> <ConfTolerance>
0.315146 

$$$$
c13.sdf
 OpenBabel04162418043D

 44 47  0  0  0  0  0  0  0  0999 V2000
    1.9858    2.6878   -1.4294 N   0  0  0  1  0  0  0  0  0  0  0  0
    2.5692    2.1789   -2.5014 C   0  0  0  1  0  0  0  0  0  0  0  0
    2.0916    2.3509   -3.7127 N   0  0  0  1  0  0  0  0  0  0  0  0
    0.9768    3.0609   -3.9041 C   0  0  0  1  0  0  0  0  0  0  0  0
    0.3274    3.6190   -2.7825 C   0  0  0  1  0  0  0  0  0  0  0  0
    0.8790    3.4040   -1.5229 C   0  0  0  1  0  0  0  0  0  0  0  0
    0.2187    3.4261   -5.0381 C   0  0  0  1  0  0  0  0  0  0  0  0
   -0.7989    4.1404   -4.6490 N   0  0  0  1  0  0  0  0  0  0  0  0
   -0.7711    4.2853   -3.2557 N   0  0  0  1  0  0  0  0  0  0  0  0
   -1.7740    5.0228   -2.5841 C   0  0  0  1  0  0  0  0  0  0  0  0
   -1.5450    6.3399   -2.2334 C   0  0  0  1  0  0  0  0  0  0  0  0
   -2.5298    7.0643   -1.5800 C   0  0  0  1  0  0  0  0  0  0  0  0
   -3.7387    6.4679   -1.2746 C   0  0  0  1  0  0  0  0  0  0  0  0
   -3.9682    5.1469   -1.6265 C   0  0  0  1  0  0  0  0  0  0  0  0
   -2.9863    4.4245   -2.2779 C   0  0  0  1  0  0  0  0  0  0  0  0
   -4.6559    7.2286   -0.6312 O   0  0  0  1  0  0  0  0  0  0  0  0
   -5.9541    6.6521   -0.4193 C   0  0  0  1  0  0  0  0  0  0  0  0
    3.6999    1.4462   -2.4142 N   0  0  0  1  0  0  0  0  0  0  0  0
    4.4176    1.1937   -1.1571 C   0  0  0  1  0  0  0  0  0  0  0  0
    5.1194   -0.1654   -1.2068 C   0  0  0  1  0  0  0  0  0  0  0  0
    6.5066    0.0372   -0.5842 C   0  0  0  1  0  0  0  0  0  0  0  0
    6.5074    1.4758   -0.0558 C   0  0  0  1  0  0  0  0  0  0  0  0
    5.5305    2.2261   -0.9612 C   0  0  0  1  0  0  0  0  0  0  0  0
    6.7226   -0.9215    0.5228 N   0  0  0  1  0  0  0  0  0  0  0  0
    0.4294    3.7990   -0.6724 H   0  0  0  1  0  0  0  0  0  0  0  0
    0.4368    3.1676   -6.0216 H   0  0  0  1  0  0  0  0  0  0  0  0
   -0.6339    6.7875   -2.4596 H   0  0  0  1  0  0  0  0  0  0  0  0
   -2.3591    8.0565   -1.3197 H   0  0  0  1  0  0  0  0  0  0  0  0
   -4.8793    4.6993   -1.4003 H   0  0  0  1  0  0  0  0  0  0  0  0
   -3.1570    3.4322   -2.5383 H   0  0  0  1  0  0  0  0  0  0  0  0
   -6.1041    5.8469   -1.1078 H   0  0  0  1  0  0  0  0  0  0  0  0
   -6.7051    7.3983   -0.5744 H   0  0  0  1  0  0  0  0  0  0  0  0
   -6.0204    6.2815    0.5823 H   0  0  0  1  0  0  0  0  0  0  0  0
    4.0635    1.0598   -3.2382 H   0  0  0  1  0  0  0  0  0  0  0  0
    3.7284    1.2282   -0.3393 H   0  0  0  1  0  0  0  0  0  0  0  0
    5.2140   -0.4955   -2.2202 H   0  0  0  1  0  0  0  0  0  0  0  0
    4.5647   -0.8884   -0.6460 H   0  0  0  1  0  0  0  0  0  0  0  0
    7.2707   -0.0912   -1.3221 H   0  0  0  1  0  0  0  0  0  0  0  0
    7.4867    1.9015   -0.1239 H   0  0  0  1  0  0  0  0  0  0  0  0
    6.1757    1.5037    0.9611 H   0  0  0  1  0  0  0  0  0  0  0  0
    5.9869    2.4867   -1.8933 H   0  0  0  1  0  0  0  0  0  0  0  0
    5.1606    3.1101   -0.4852 H   0  0  0  1  0  0  0  0  0  0  0  0
    6.7065   -1.8361    0.1713 H   0  0  0  1  0  0  0  0  0  0  0  0
    6.0124   -0.8155    1.1897 H   0  0  0  1  0  0  0  0  0  0  0  0
  1  2  4  0  0  0  0
  1  6  4  0  0  0  0
  2  3  4  0  0  0  0
  2 18  1  0  0  0  0
  3  4  4  0  0  0  0
  4  5  4  0  0  0  0
  4  7  4  0  0  0  0
  5  6  4  0  0  0  0
  5  9  4  0  0  0  0
  6 25  1  0  0  0  0
  7  8  4  0  0  0  0
  7 26  1  0  0  0  0
  8  9  4  0  0  0  0
  9 10  1  0  0  0  0
 10 11  4  0  0  0  0
 10 15  4  0  0  0  0
 11 12  4  0  0  0  0
 11 27  1  0  0  0  0
 12 13  4  0  0  0  0
 12 28  1  0  0  0  0
 13 14  4  0  0  0  0
 13 16  1  0  0  0  0
 14 15  4  0  0  0  0
 14 29  1  0  0  0  0
 15 30  1  0  0  0  0
 16 17  1  0  0  0  0
 17 31  1  0  0  0  0
 17 32  1  0  0  0  0
 17 33  1  0  0  0  0
 18 19  1  0  0  0  0
 18 34  1  0  0  0  0
 19 20  1  0  0  0  0
 19 23  1  0  0  0  0
 19 35  1  0  0  0  0
 20 21  1  0  0  0  0
 20 36  1  0  0  0  0
 20 37  1  0  0  0  0
 21 22  1  0  0  0  0
 21 24  1  0  0  0  0
 21 38  1  0  0  0  0
 22 23  1  0  0  0  0
 22 39  1  0  0  0  0
 22 40  1  0  0  0  0
 23 41  1  0  0  0  0
 23 42  1  0  0  0  0
 24 43  1  0  0  0  0
 24 44  1  0  0  0  0
M  END
> <ConfClashScore>
0 

> <ConfOneFourInteractionScore>
-0.984337 

> <ConfScore>
-0.0270555 

> <ConfScorePBest>
0.00300679 

> <ConfTolerance>
0.413445 

$$$$
c13.sdf
 OpenBabel04162418043D

 44 47  0  0  0  0  0  0  0  0999 V2000
    2.3036    2.8401   -0.9170 N   0  0  0  1  0  0  0  0  0  0  0  0
    2.5345    2.3029   -2.1030 C   0  0  0  1  0  0  0  0  0  0  0  0
    1.7927    2.5683   -3.1538 N   0  0  0  1  0  0  0  0  0  0  0  0
    0.7587    3.4078   -3.0553 C   0  0  0  1  0  0  0  0  0  0  0  0
    0.4827    3.9998   -1.8045 C   0  0  0  1  0  0  0  0  0  0  0  0
    1.3026    3.6816   -0.7258 C   0  0  0  1  0  0  0  0  0  0  0  0
   -0.2101    3.8948   -3.9599 C   0  0  0  1  0  0  0  0  0  0  0  0
   -1.0048    4.7083   -3.3242 N   0  0  0  1  0  0  0  0  0  0  0  0
   -0.6115    4.8032   -1.9829 N   0  0  0  1  0  0  0  0  0  0  0  0
   -1.3125    5.6220   -1.0852 C   0  0  0  1  0  0  0  0  0  0  0  0
   -1.9073    6.7387   -1.6414 C   0  0  0  1  0  0  0  0  0  0  0  0
   -2.6288    7.6106   -0.8411 C   0  0  0  1  0  0  0  0  0  0  0  0
   -2.7490    7.3664    0.5140 C   0  0  0  1  0  0  0  0  0  0  0  0
   -2.1523    6.2463    1.0717 C   0  0  0  1  0  0  0  0  0  0  0  0
   -1.4329    5.3768    0.2738 C   0  0  0  1  0  0  0  0  0  0  0  0
   -3.3670    8.2679    1.3135 O   0  0  0  1  0  0  0  0  0  0  0  0
   -3.8392    9.4762    0.6975 C   0  0  0  1  0  0  0  0  0  0  0  0
    3.5677    1.4525   -2.2398 N   0  0  0  1  0  0  0  0  0  0  0  0
    4.4086    1.0160   -1.1387 C   0  0  0  1  0  0  0  0  0  0  0  0
    5.3130   -0.1390   -1.5602 C   0  0  0  1  0  0  0  0  0  0  0  0
    6.4746   -0.1243   -0.5820 C   0  0  0  1  0  0  0  0  0  0  0  0
    6.6749    1.3733   -0.2975 C   0  0  0  1  0  0  0  0  0  0  0  0
    5.4213    2.1084   -0.7454 C   0  0  0  1  0  0  0  0  0  0  0  0
    6.1336   -0.8601    0.6590 N   0  0  0  1  0  0  0  0  0  0  0  0
    1.1310    4.0976    0.2118 H   0  0  0  1  0  0  0  0  0  0  0  0
   -0.2780    3.6454   -4.9672 H   0  0  0  1  0  0  0  0  0  0  0  0
   -1.8136    6.9247   -2.6604 H   0  0  0  1  0  0  0  0  0  0  0  0
   -3.0798    8.4488   -1.2603 H   0  0  0  1  0  0  0  0  0  0  0  0
   -2.2460    6.0603    2.0906 H   0  0  0  1  0  0  0  0  0  0  0  0
   -0.9819    4.5387    0.6930 H   0  0  0  1  0  0  0  0  0  0  0  0
   -3.0334   10.1759    0.6195 H   0  0  0  1  0  0  0  0  0  0  0  0
   -4.6211    9.8981    1.2937 H   0  0  0  1  0  0  0  0  0  0  0  0
   -4.2149    9.2549   -0.2796 H   0  0  0  1  0  0  0  0  0  0  0  0
    3.7648    1.1069   -3.1354 H   0  0  0  1  0  0  0  0  0  0  0  0
    3.7940    0.7416   -0.3069 H   0  0  0  1  0  0  0  0  0  0  0  0
    4.7854   -1.0679   -1.4998 H   0  0  0  1  0  0  0  0  0  0  0  0
    5.6647    0.0076   -2.5601 H   0  0  0  1  0  0  0  0  0  0  0  0
    7.3515   -0.5519   -1.0214 H   0  0  0  1  0  0  0  0  0  0  0  0
    7.5221    1.7360   -0.8412 H   0  0  0  1  0  0  0  0  0  0  0  0
    6.8305    1.5262    0.7500 H   0  0  0  1  0  0  0  0  0  0  0  0
    5.6376    2.7350   -1.5854 H   0  0  0  1  0  0  0  0  0  0  0  0
    5.0338    2.7044    0.0543 H   0  0  0  1  0  0  0  0  0  0  0  0
    5.3230   -0.4767    1.0544 H   0  0  0  1  0  0  0  0  0  0  0  0
    6.8743   -0.7859    1.2964 H   0  0  0  1  0  0  0  0  0  0  0  0
  1  2  4  0  0  0  0
  1  6  4  0  0  0  0
  2  3  4  0  0  0  0
  2 18  1  0  0  0  0
  3  4  4  0  0  0  0
  4  5  4  0  0  0  0
  4  7  4  0  0  0  0
  5  6  4  0  0  0  0
  5  9  4  0  0  0  0
  6 25  1  0  0  0  0
  7  8  4  0  0  0  0
  7 26  1  0  0  0  0
  8  9  4  0  0  0  0
  9 10  1  0  0  0  0
 10 11  4  0  0  0  0
 10 15  4  0  0  0  0
 11 12  4  0  0  0  0
 11 27  1  0  0  0  0
 12 13  4  0  0  0  0
 12 28  1  0  0  0  0
 13 14  4  0  0  0  0
 13 16  1  0  0  0  0
 14 15  4  0  0  0  0
 14 29  1  0  0  0  0
 15 30  1  0  0  0  0
 16 17  1  0  0  0  0
 17 31  1  0  0  0  0
 17 32  1  0  0  0  0
 17 33  1  0  0  0  0
 18 19  1  0  0  0  0
 18 34  1  0  0  0  0
 19 20  1  0  0  0  0
 19 23  1  0  0  0  0
 19 35  1  0  0  0  0
 20 21  1  0  0  0  0
 20 36  1  0  0  0  0
 20 37  1  0  0  0  0
 21 22  1  0  0  0  0
 21 24  1  0  0  0  0
 21 38  1  0  0  0  0
 22 23  1  0  0  0  0
 22 39  1  0  0  0  0
 22 40  1  0  0  0  0
 23 41  1  0  0  0  0
 23 42  1  0  0  0  0
 24 43  1  0  0  0  0
 24 44  1  0  0  0  0
M  END
> <ConfClashScore>
0 

> <ConfOneFourInteractionScore>
-0.984337 

> <ConfScore>
-0.0264956 

> <ConfScorePBest>
0.00299346 

> <ConfTolerance>
0.32633 

$$$$
c13.sdf
 OpenBabel04162418043D

 44 47  0  0  0  0  0  0  0  0999 V2000
    1.8928    0.0509   -1.5542 N   0  0  0  1  0  0  0  0  0  0  0  0
    2.2987    0.9022   -2.4809 C   0  0  0  1  0  0  0  0  0  0  0  0
    1.5432    1.2517   -3.4968 N   0  0  0  1  0  0  0  0  0  0  0  0
    0.3139    0.7469   -3.6288 C   0  0  0  1  0  0  0  0  0  0  0  0
   -0.1525   -0.1649   -2.6581 C   0  0  0  1  0  0  0  0  0  0  0  0
    0.6918   -0.4987   -1.6032 C   0  0  0  1  0  0  0  0  0  0  0  0
   -0.7254    0.9065   -4.5714 C   0  0  0  1  0  0  0  0  0  0  0  0
   -1.7335    0.1632   -4.2128 N   0  0  0  1  0  0  0  0  0  0  0  0
   -1.4215   -0.5198   -3.0299 N   0  0  0  1  0  0  0  0  0  0  0  0
   -2.3628   -1.4026   -2.4278 C   0  0  0  1  0  0  0  0  0  0  0  0
   -2.9001   -1.0948   -1.1922 C   0  0  0  1  0  0  0  0  0  0  0  0
   -3.8884   -1.8991   -0.6465 C   0  0  0  1  0  0  0  0  0  0  0  0
   -4.3328   -3.0119   -1.3355 C   0  0  0  1  0  0  0  0  0  0  0  0
   -3.7937   -3.3205   -2.5748 C   0  0  0  1  0  0  0  0  0  0  0  0
   -2.8083   -2.5185   -3.1190 C   0  0  0  1  0  0  0  0  0  0  0  0
   -5.2922   -3.7986   -0.8012 O   0  0  0  1  0  0  0  0  0  0  0  0
   -5.6873   -3.6041    0.5767 C   0  0  0  1  0  0  0  0  0  0  0  0
    3.5501    1.4088   -2.3363 N   0  0  0  1  0  0  0  0  0  0  0  0
    4.3849    1.0779   -1.1804 C   0  0  0  1  0  0  0  0  0  0  0  0
    5.2820   -0.1255   -1.4705 C   0  0  0  1  0  0  0  0  0  0  0  0
    6.4336   -0.0079   -0.4660 C   0  0  0  1  0  0  0  0  0  0  0  0
    6.5699    1.4928   -0.1792 C   0  0  0  1  0  0  0  0  0  0  0  0
    5.4086    2.1808   -0.9007 C   0  0  0  1  0  0  0  0  0  0  0  0
    6.1142   -0.7471    0.7786 N   0  0  0  1  0  0  0  0  0  0  0  0
    0.3839   -1.1671   -0.8683 H   0  0  0  1  0  0  0  0  0  0  0  0
   -0.6917    1.5166   -5.4129 H   0  0  0  1  0  0  0  0  0  0  0  0
   -2.5630   -0.2598   -0.6719 H   0  0  0  1  0  0  0  0  0  0  0  0
   -4.2956   -1.6653    0.2814 H   0  0  0  1  0  0  0  0  0  0  0  0
   -4.1309   -4.1555   -3.0951 H   0  0  0  1  0  0  0  0  0  0  0  0
   -2.4011   -2.7524   -4.0469 H   0  0  0  1  0  0  0  0  0  0  0  0
   -5.9833   -4.5415    0.9991 H   0  0  0  1  0  0  0  0  0  0  0  0
   -6.5083   -2.9191    0.6187 H   0  0  0  1  0  0  0  0  0  0  0  0
   -4.8626   -3.2077    1.1313 H   0  0  0  1  0  0  0  0  0  0  0  0
    3.9034    2.0115   -3.0235 H   0  0  0  1  0  0  0  0  0  0  0  0
    3.7618    0.9013   -0.3286 H   0  0  0  1  0  0  0  0  0  0  0  0
    5.6519   -0.0864   -2.4737 H   0  0  0  1  0  0  0  0  0  0  0  0
    4.7455   -1.0395   -1.3229 H   0  0  0  1  0  0  0  0  0  0  0  0
    7.3389   -0.3923   -0.8874 H   0  0  0  1  0  0  0  0  0  0  0  0
    7.5043    1.8569   -0.5523 H   0  0  0  1  0  0  0  0  0  0  0  0
    6.5104    1.6747    0.8736 H   0  0  0  1  0  0  0  0  0  0  0  0
    5.7455    2.6184   -1.8172 H   0  0  0  1  0  0  0  0  0  0  0  0
    4.9799    2.9390   -0.2792 H   0  0  0  1  0  0  0  0  0  0  0  0
    6.8594   -0.6631    1.4095 H   0  0  0  1  0  0  0  0  0  0  0  0
    5.9696   -1.6933    0.5683 H   0  0  0  1  0  0  0  0  0  0  0  0
  1  2  4  0  0  0  0
  1  6  4  0  0  0  0
  2  3  4  0  0  0  0
  2 18  1  0  0  0  0
  3  4  4  0  0  0  0
  4  5  4  0  0  0  0
  4  7  4  0  0  0  0
  5  6  4  0  0  0  0
  5  9  4  0  0  0  0
  6 25  1  0  0  0  0
  7  8  4  0  0  0  0
  7 26  1  0  0  0  0
  8  9  4  0  0  0  0
  9 10  1  0  0  0  0
 10 11  4  0  0  0  0
 10 15  4  0  0  0  0
 11 12  4  0  0  0  0
 11 27  1  0  0  0  0
 12 13  4  0  0  0  0
 12 28  1  0  0  0  0
 13 14  4  0  0  0  0
 13 16  1  0  0  0  0
 14 15  4  0  0  0  0
 14 29  1  0  0  0  0
 15 30  1  0  0  0  0
 16 17  1  0  0  0  0
 17 31  1  0  0  0  0
 17 32  1  0  0  0  0
 17 33  1  0  0  0  0
 18 19  1  0  0  0  0
 18 34  1  0  0  0  0
 19 20  1  0  0  0  0
 19 23  1  0  0  0  0
 19 35  1  0  0  0  0
 20 21  1  0  0  0  0
 20 36  1  0  0  0  0
 20 37  1  0  0  0  0
 21 22  1  0  0  0  0
 21 24  1  0  0  0  0
 21 38  1  0  0  0  0
 22 23  1  0  0  0  0
 22 39  1  0  0  0  0
 22 40  1  0  0  0  0
 23 41  1  0  0  0  0
 23 42  1  0  0  0  0
 24 43  1  0  0  0  0
 24 44  1  0  0  0  0
M  END
> <ConfClashScore>
0 

> <ConfOneFourInteractionScore>
-0.984337 

> <ConfScore>
-0.0263961 

> <ConfScorePBest>
0.00298014 

> <ConfTolerance>
0.287757 

$$$$
c13.sdf
 OpenBabel04162418043D

 44 47  0  0  0  0  0  0  0  0999 V2000
    1.4530    2.1312   -3.0489 N   0  0  0  1  0  0  0  0  0  0  0  0
    2.2232    1.8468   -2.0124 C   0  0  0  1  0  0  0  0  0  0  0  0
    1.7940    1.9215   -0.7734 N   0  0  0  1  0  0  0  0  0  0  0  0
    0.5381    2.2953   -0.5156 C   0  0  0  1  0  0  0  0  0  0  0  0
   -0.3125    2.6064   -1.5979 C   0  0  0  1  0  0  0  0  0  0  0  0
    0.1968    2.5096   -2.8895 C   0  0  0  1  0  0  0  0  0  0  0  0
   -0.2193    2.4736    0.6628 C   0  0  0  1  0  0  0  0  0  0  0  0
   -1.4202    2.8575    0.3345 N   0  0  0  1  0  0  0  0  0  0  0  0
   -1.5226    2.9533   -1.0595 N   0  0  0  1  0  0  0  0  0  0  0  0
   -2.7801    3.2068   -1.6437 C   0  0  0  1  0  0  0  0  0  0  0  0
   -3.6656    4.1311   -1.1224 C   0  0  0  1  0  0  0  0  0  0  0  0
   -4.8878    4.3449   -1.7405 C   0  0  0  1  0  0  0  0  0  0  0  0
   -5.2231    3.6301   -2.8748 C   0  0  0  1  0  0  0  0  0  0  0  0
   -4.3349    2.7030   -3.3975 C   0  0  0  1  0  0  0  0  0  0  0  0
   -3.1162    2.4898   -2.7814 C   0  0  0  1  0  0  0  0  0  0  0  0
   -6.3716    3.7474   -3.5513 O   0  0  0  1  0  0  0  0  0  0  0  0
   -6.7253    2.8245   -4.6358 C   0  0  0  1  0  0  0  0  0  0  0  0
    3.5124    1.4613   -2.2369 N   0  0  0  1  0  0  0  0  0  0  0  0
    4.3959    1.0475   -1.1401 C   0  0  0  1  0  0  0  0  0  0  0  0
    5.2729   -0.1356   -1.5503 C   0  0  0  1  0  0  0  0  0  0  0  0
    6.4665   -0.0911   -0.5900 C   0  0  0  1  0  0  0  0  0  0  0  0
    6.6236    1.3858   -0.2064 C   0  0  0  1  0  0  0  0  0  0  0  0
    5.4370    2.1255   -0.8287 C   0  0  0  1  0  0  0  0  0  0  0  0
    6.1927   -0.9221    0.6255 N   0  0  0  1  0  0  0  0  0  0  0  0
   -0.3991    2.7307   -3.7126 H   0  0  0  1  0  0  0  0  0  0  0  0
    0.1248    2.3232    1.6326 H   0  0  0  1  0  0  0  0  0  0  0  0
   -3.4150    4.6662   -0.2665 H   0  0  0  1  0  0  0  0  0  0  0  0
   -5.5524    5.0433   -1.3506 H   0  0  0  1  0  0  0  0  0  0  0  0
   -4.5854    2.1680   -4.2534 H   0  0  0  1  0  0  0  0  0  0  0  0
   -2.4515    1.7914   -3.1712 H   0  0  0  1  0  0  0  0  0  0  0  0
   -5.9782    2.8689   -5.4005 H   0  0  0  1  0  0  0  0  0  0  0  0
   -7.6730    3.1038   -5.0466 H   0  0  0  1  0  0  0  0  0  0  0  0
   -6.7827    1.8277   -4.2510 H   0  0  0  1  0  0  0  0  0  0  0  0
    3.8576    1.4605   -3.1541 H   0  0  0  1  0  0  0  0  0  0  0  0
    3.8083    0.8143   -0.2768 H   0  0  0  1  0  0  0  0  0  0  0  0
    5.6003   -0.0283   -2.5633 H   0  0  0  1  0  0  0  0  0  0  0  0
    4.7377   -1.0560   -1.4435 H   0  0  0  1  0  0  0  0  0  0  0  0
    7.3509   -0.4482   -1.0751 H   0  0  0  1  0  0  0  0  0  0  0  0
    7.5436    1.7720   -0.5929 H   0  0  0  1  0  0  0  0  0  0  0  0
    6.6097    1.4945    0.8579 H   0  0  0  1  0  0  0  0  0  0  0  0
    5.0394    2.8401   -0.1388 H   0  0  0  1  0  0  0  0  0  0  0  0
    5.7374    2.6244   -1.7263 H   0  0  0  1  0  0  0  0  0  0  0  0
    5.4770   -0.5074    1.1509 H   0  0  0  1  0  0  0  0  0  0  0  0
    7.0052   -0.9814    1.1702 H   0  0  0  1  0  0  0  0  0  0  0  0
  1  2  4  0  0  0  0
  1  6  4  0  0  0  0
  2  3  4  0  0  0  0
  2 18  1  0  0  0  0
  3  4  4  0  0  0  0
  4  5  4  0  0  0  0
  4  7  4  0  0  0  0
  5  6  4  0  0  0  0
  5  9  4  0  0  0  0
  6 25  1  0  0  0  0
  7  8  4  0  0  0  0
  7 26  1  0  0  0  0
  8  9  4  0  0  0  0
  9 10  1  0  0  0  0
 10 11  4  0  0  0  0
 10 15  4  0  0  0  0
 11 12  4  0  0  0  0
 11 27  1  0  0  0  0
 12 13  4  0  0  0  0
 12 28  1  0  0  0  0
 13 14  4  0  0  0  0
 13 16  1  0  0  0  0
 14 15  4  0  0  0  0
 14 29  1  0  0  0  0
 15 30  1  0  0  0  0
 16 17  1  0  0  0  0
 17 31  1  0  0  0  0
 17 32  1  0  0  0  0
 17 33  1  0  0  0  0
 18 19  1  0  0  0  0
 18 34  1  0  0  0  0
 19 20  1  0  0  0  0
 19 23  1  0  0  0  0
 19 35  1  0  0  0  0
 20 21  1  0  0  0  0
 20 36  1  0  0  0  0
 20 37  1  0  0  0  0
 21 22  1  0  0  0  0
 21 24  1  0  0  0  0
 21 38  1  0  0  0  0
 22 23  1  0  0  0  0
 22 39  1  0  0  0  0
 22 40  1  0  0  0  0
 23 41  1  0  0  0  0
 23 42  1  0  0  0  0
 24 43  1  0  0  0  0
 24 44  1  0  0  0  0
M  END
> <ConfClashScore>
0 

> <ConfOneFourInteractionScore>
-0.984337 

> <ConfScore>
-0.0262322 

> <ConfScorePBest>
0.00296681 

> <ConfTolerance>
0.436132 

$$$$
c13.sdf
 OpenBabel04162418043D

 44 47  0  0  0  0  0  0  0  0999 V2000
    3.5548    3.7470   -1.9942 N   0  0  0  1  0  0  0  0  0  0  0  0
    3.3676    2.7674   -2.8624 C   0  0  0  1  0  0  0  0  0  0  0  0
    2.7618    2.9513   -4.0131 N   0  0  0  1  0  0  0  0  0  0  0  0
    2.3056    4.1604   -4.3500 C   0  0  0  1  0  0  0  0  0  0  0  0
    2.4881    5.2297   -3.4474 C   0  0  0  1  0  0  0  0  0  0  0  0
    3.1370    4.9760   -2.2426 C   0  0  0  1  0  0  0  0  0  0  0  0
    1.6307    4.6857   -5.4737 C   0  0  0  1  0  0  0  0  0  0  0  0
    1.4193    5.9564   -5.2788 N   0  0  0  1  0  0  0  0  0  0  0  0
    1.9352    6.3369   -4.0330 N   0  0  0  1  0  0  0  0  0  0  0  0
    1.8307    7.6834   -3.5811 C   0  0  0  1  0  0  0  0  0  0  0  0
    2.9533    8.3482   -3.1251 C   0  0  0  1  0  0  0  0  0  0  0  0
    2.8526    9.6605   -2.6903 C   0  0  0  1  0  0  0  0  0  0  0  0
    1.6287   10.3025   -2.7077 C   0  0  0  1  0  0  0  0  0  0  0  0
    0.5028    9.6355   -3.1651 C   0  0  0  1  0  0  0  0  0  0  0  0
    0.6031    8.3270   -3.5987 C   0  0  0  1  0  0  0  0  0  0  0  0
    1.6523   11.5786   -2.2551 O   0  0  0  1  0  0  0  0  0  0  0  0
    0.3901   12.2500   -2.1190 C   0  0  0  1  0  0  0  0  0  0  0  0
    3.8154    1.5311   -2.5557 N   0  0  0  1  0  0  0  0  0  0  0  0
    4.4253    1.1792   -1.2725 C   0  0  0  1  0  0  0  0  0  0  0  0
    5.1338   -0.1738   -1.3714 C   0  0  0  1  0  0  0  0  0  0  0  0
    6.4640   -0.0252   -0.6222 C   0  0  0  1  0  0  0  0  0  0  0  0
    6.4159    1.3671    0.0167 C   0  0  0  1  0  0  0  0  0  0  0  0
    5.5144    2.1896   -0.9042 C   0  0  0  1  0  0  0  0  0  0  0  0
    6.5914   -1.0691    0.4195 N   0  0  0  1  0  0  0  0  0  0  0  0
    3.2901    5.7381   -1.5518 H   0  0  0  1  0  0  0  0  0  0  0  0
    1.3489    4.1471   -6.3176 H   0  0  0  1  0  0  0  0  0  0  0  0
    3.8735    7.8639   -3.1082 H   0  0  0  1  0  0  0  0  0  0  0  0
    3.6980   10.1622   -2.3509 H   0  0  0  1  0  0  0  0  0  0  0  0
   -0.4174   10.1198   -3.1821 H   0  0  0  1  0  0  0  0  0  0  0  0
   -0.2423    7.8253   -3.9381 H   0  0  0  1  0  0  0  0  0  0  0  0
   -0.3407   11.7644   -2.7314 H   0  0  0  1  0  0  0  0  0  0  0  0
    0.4935   13.2693   -2.4278 H   0  0  0  1  0  0  0  0  0  0  0  0
    0.0771   12.2166   -1.0963 H   0  0  0  1  0  0  0  0  0  0  0  0
    3.7269    0.8278   -3.2324 H   0  0  0  1  0  0  0  0  0  0  0  0
    3.6708    1.1508   -0.5143 H   0  0  0  1  0  0  0  0  0  0  0  0
    5.3130   -0.4229   -2.3965 H   0  0  0  1  0  0  0  0  0  0  0  0
    4.5373   -0.9372   -0.9173 H   0  0  0  1  0  0  0  0  0  0  0  0
    7.2870   -0.0970   -1.3023 H   0  0  0  1  0  0  0  0  0  0  0  0
    6.0012    1.3154    1.0017 H   0  0  0  1  0  0  0  0  0  0  0  0
    7.3960    1.7940    0.0637 H   0  0  0  1  0  0  0  0  0  0  0  0
    6.0453    2.5218   -1.7718 H   0  0  0  1  0  0  0  0  0  0  0  0
    5.1033    3.0343   -0.3919 H   0  0  0  1  0  0  0  0  0  0  0  0
    5.7607   -1.1175    0.9374 H   0  0  0  1  0  0  0  0  0  0  0  0
    7.3356   -0.8454    1.0165 H   0  0  0  1  0  0  0  0  0  0  0  0
  1  2  4  0  0  0  0
  1  6  4  0  0  0  0
  2  3  4  0  0  0  0
  2 18  1  0  0  0  0
  3  4  4  0  0  0  0
  4  5  4  0  0  0  0
  4  7  4  0  0  0  0
  5  6  4  0  0  0  0
  5  9  4  0  0  0  0
  6 25  1  0  0  0  0
  7  8  4  0  0  0  0
  7 26  1  0  0  0  0
  8  9  4  0  0  0  0
  9 10  1  0  0  0  0
 10 11  4  0  0  0  0
 10 15  4  0  0  0  0
 11 12  4  0  0  0  0
 11 27  1  0  0  0  0
 12 13  4  0  0  0  0
 12 28  1  0  0  0  0
 13 14  4  0  0  0  0
 13 16  1  0  0  0  0
 14 15  4  0  0  0  0
 14 29  1  0  0  0  0
 15 30  1  0  0  0  0
 16 17  1  0  0  0  0
 17 31  1  0  0  0  0
 17 32  1  0  0  0  0
 17 33  1  0  0  0  0
 18 19  1  0  0  0  0
 18 34  1  0  0  0  0
 19 20  1  0  0  0  0
 19 23  1  0  0  0  0
 19 35  1  0  0  0  0
 20 21  1  0  0  0  0
 20 36  1  0  0  0  0
 20 37  1  0  0  0  0
 21 22  1  0  0  0  0
 21 24  1  0  0  0  0
 21 38  1  0  0  0  0
 22 23  1  0  0  0  0
 22 39  1  0  0  0  0
 22 40  1  0  0  0  0
 23 41  1  0  0  0  0
 23 42  1  0  0  0  0
 24 43  1  0  0  0  0
 24 44  1  0  0  0  0
M  END
> <ConfClashScore>
0 

> <ConfOneFourInteractionScore>
-0.985399 

> <ConfScore>
-0.026232 

> <ConfScorePBest>
0.00295348 

> <ConfTolerance>
0.31696 

$$$$
c13.sdf
 OpenBabel04162418043D

 44 47  0  0  0  0  0  0  0  0999 V2000
    3.8555    1.3140   -5.0776 N   0  0  0  1  0  0  0  0  0  0  0  0
    3.6182    1.0705   -3.7998 C   0  0  0  1  0  0  0  0  0  0  0  0
    2.4503    0.6544   -3.3663 N   0  0  0  1  0  0  0  0  0  0  0  0
    1.4432    0.4600   -4.2215 C   0  0  0  1  0  0  0  0  0  0  0  0
    1.6607    0.7099   -5.5933 C   0  0  0  1  0  0  0  0  0  0  0  0
    2.9186    1.1493   -5.9951 C   0  0  0  1  0  0  0  0  0  0  0  0
    0.1037    0.0320   -4.0921 C   0  0  0  1  0  0  0  0  0  0  0  0
   -0.4479    0.0205   -5.2723 N   0  0  0  1  0  0  0  0  0  0  0  0
    0.4827    0.4344   -6.2344 N   0  0  0  1  0  0  0  0  0  0  0  0
    0.0925    0.5950   -7.5916 C   0  0  0  1  0  0  0  0  0  0  0  0
    0.1959    1.8319   -8.1995 C   0  0  0  1  0  0  0  0  0  0  0  0
   -0.2659    2.0082   -9.4946 C   0  0  0  1  0  0  0  0  0  0  0  0
   -0.8346    0.9486  -10.1759 C   0  0  0  1  0  0  0  0  0  0  0  0
   -0.9382   -0.2919   -9.5660 C   0  0  0  1  0  0  0  0  0  0  0  0
   -0.4778   -0.4678   -8.2747 C   0  0  0  1  0  0  0  0  0  0  0  0
   -1.2534    1.2414  -11.4300 O   0  0  0  1  0  0  0  0  0  0  0  0
   -2.1318    0.2994  -12.0651 C   0  0  0  1  0  0  0  0  0  0  0  0
    4.6093    1.2554   -2.9092 N   0  0  0  1  0  0  0  0  0  0  0  0
    4.4888    1.2071   -1.4576 C   0  0  0  1  0  0  0  0  0  0  0  0
    4.9628   -0.1495   -0.9248 C   0  0  0  1  0  0  0  0  0  0  0  0
    6.4506    0.0433   -0.6310 C   0  0  0  1  0  0  0  0  0  0  0  0
    6.4808    1.4564   -0.0436 C   0  0  0  1  0  0  0  0  0  0  0  0
    5.4136    2.2438   -0.8073 C   0  0  0  1  0  0  0  0  0  0  0  0
    6.9433   -0.9643    0.3552 N   0  0  0  1  0  0  0  0  0  0  0  0
    3.1174    1.3442   -6.9971 H   0  0  0  1  0  0  0  0  0  0  0  0
   -0.3650   -0.2306   -3.2017 H   0  0  0  1  0  0  0  0  0  0  0  0
    0.6201    2.6302   -7.6855 H   0  0  0  1  0  0  0  0  0  0  0  0
   -0.1845    2.9379   -9.9536 H   0  0  0  1  0  0  0  0  0  0  0  0
   -1.3624   -1.0902  -10.0800 H   0  0  0  1  0  0  0  0  0  0  0  0
   -0.5592   -1.3975   -7.8157 H   0  0  0  1  0  0  0  0  0  0  0  0
   -1.9758    0.3229  -13.1234 H   0  0  0  1  0  0  0  0  0  0  0  0
   -3.1475    0.5573  -11.8489 H   0  0  0  1  0  0  0  0  0  0  0  0
   -1.9267   -0.6839  -11.6964 H   0  0  0  1  0  0  0  0  0  0  0  0
    5.5004    1.4409   -3.2724 H   0  0  0  1  0  0  0  0  0  0  0  0
    3.4715    1.3848   -1.1776 H   0  0  0  1  0  0  0  0  0  0  0  0
    4.8200   -0.9136   -1.6601 H   0  0  0  1  0  0  0  0  0  0  0  0
    4.4332   -0.4094   -0.0322 H   0  0  0  1  0  0  0  0  0  0  0  0
    7.0342   -0.0178   -1.5258 H   0  0  0  1  0  0  0  0  0  0  0  0
    7.4445    1.8991   -0.1859 H   0  0  0  1  0  0  0  0  0  0  0  0
    6.2500    1.4313    1.0009 H   0  0  0  1  0  0  0  0  0  0  0  0
    4.8587    2.8630   -0.1338 H   0  0  0  1  0  0  0  0  0  0  0  0
    5.8711    2.8534   -1.5583 H   0  0  0  1  0  0  0  0  0  0  0  0
    6.8873   -1.8606   -0.0371 H   0  0  0  1  0  0  0  0  0  0  0  0
    6.3909   -0.9268    1.1638 H   0  0  0  1  0  0  0  0  0  0  0  0
  1  2  4  0  0  0  0
  1  6  4  0  0  0  0
  2  3  4  0  0  0  0
  2 18  1  0  0  0  0
  3  4  4  0  0  0  0
  4  5  4  0  0  0  0
  4  7  4  0  0  0  0
  5  6  4  0  0  0  0
  5  9  4  0  0  0  0
  6 25  1  0  0  0  0
  7  8  4  0  0  0  0
  7 26  1  0  0  0  0
  8  9  4  0  0  0  0
  9 10  1  0  0  0  0
 10 11  4  0  0  0  0
 10 15  4  0  0  0  0
 11 12  4  0  0  0  0
 11 27  1  0  0  0  0
 12 13  4  0  0  0  0
 12 28  1  0  0  0  0
 13 14  4  0  0  0  0
 13 16  1  0  0  0  0
 14 15  4  0  0  0  0
 14 29  1  0  0  0  0
 15 30  1  0  0  0  0
 16 17  1  0  0  0  0
 17 31  1  0  0  0  0
 17 32  1  0  0  0  0
 17 33  1  0  0  0  0
 18 19  1  0  0  0  0
 18 34  1  0  0  0  0
 19 20  1  0  0  0  0
 19 23  1  0  0  0  0
 19 35  1  0  0  0  0
 20 21  1  0  0  0  0
 20 36  1  0  0  0  0
 20 37  1  0  0  0  0
 21 22  1  0  0  0  0
 21 24  1  0  0  0  0
 21 38  1  0  0  0  0
 22 23  1  0  0  0  0
 22 39  1  0  0  0  0
 22 40  1  0  0  0  0
 23 41  1  0  0  0  0
 23 42  1  0  0  0  0
 24 43  1  0  0  0  0
 24 44  1  0  0  0  0
M  END
> <ConfClashScore>
0 

> <ConfOneFourInteractionScore>
-0.984337 

> <ConfScore>
-0.0259153 

> <ConfScorePBest>
0.00294015 

> <ConfTolerance>
0.4784 

$$$$
c13.sdf
 OpenBabel04162418043D

 44 47  0  0  0  0  0  0  0  0999 V2000
    3.9803    3.4717   -3.0415 N   0  0  0  1  0  0  0  0  0  0  0  0
    4.3824    2.3761   -3.6632 C   0  0  0  1  0  0  0  0  0  0  0  0
    4.5189    2.3156   -4.9680 N   0  0  0  1  0  0  0  0  0  0  0  0
    4.2499    3.3825   -5.7250 C   0  0  0  1  0  0  0  0  0  0  0  0
    3.8183    4.5693   -5.0951 C   0  0  0  1  0  0  0  0  0  0  0  0
    3.6917    4.5752   -3.7092 C   0  0  0  1  0  0  0  0  0  0  0  0
    4.2907    3.6479   -7.1113 C   0  0  0  1  0  0  0  0  0  0  0  0
    3.9194    4.8804   -7.3126 N   0  0  0  1  0  0  0  0  0  0  0  0
    3.6166    5.4901   -6.0881 N   0  0  0  1  0  0  0  0  0  0  0  0
    3.1899    6.8255   -6.0368 C   0  0  0  1  0  0  0  0  0  0  0  0
    1.8860    7.2403   -6.2311 C   0  0  0  1  0  0  0  0  0  0  0  0
    1.5685    8.5874   -6.1536 C   0  0  0  1  0  0  0  0  0  0  0  0
    2.5567    9.5163   -5.8874 C   0  0  0  1  0  0  0  0  0  0  0  0
    3.8645    9.1001   -5.6925 C   0  0  0  1  0  0  0  0  0  0  0  0
    4.1812    7.7570   -5.7698 C   0  0  0  1  0  0  0  0  0  0  0  0
    2.3688   10.8507   -5.7933 O   0  0  0  1  0  0  0  0  0  0  0  0
    1.0500   11.3930   -5.9649 C   0  0  0  1  0  0  0  0  0  0  0  0
    4.6625    1.2817   -2.9329 N   0  0  0  1  0  0  0  0  0  0  0  0
    4.5047    1.2081   -1.4796 C   0  0  0  1  0  0  0  0  0  0  0  0
    4.9797   -0.1520   -0.9566 C   0  0  0  1  0  0  0  0  0  0  0  0
    6.4573    0.0518   -0.6214 C   0  0  0  1  0  0  0  0  0  0  0  0
    6.4569    1.4553   -0.0107 C   0  0  0  1  0  0  0  0  0  0  0  0
    5.4010    2.2438   -0.7891 C   0  0  0  1  0  0  0  0  0  0  0  0
    6.9361   -0.9677    0.3621 N   0  0  0  1  0  0  0  0  0  0  0  0
    3.3764    5.4307   -3.2089 H   0  0  0  1  0  0  0  0  0  0  0  0
    4.5708    2.9712   -7.8497 H   0  0  0  1  0  0  0  0  0  0  0  0
    1.1430    6.5418   -6.4354 H   0  0  0  1  0  0  0  0  0  0  0  0
    0.5865    8.8991   -6.2958 H   0  0  0  1  0  0  0  0  0  0  0  0
    4.6074    9.7986   -5.4882 H   0  0  0  1  0  0  0  0  0  0  0  0
    5.1631    7.4452   -5.6276 H   0  0  0  1  0  0  0  0  0  0  0  0
    0.4426   11.1273   -5.1251 H   0  0  0  1  0  0  0  0  0  0  0  0
    0.6153   10.9968   -6.8587 H   0  0  0  1  0  0  0  0  0  0  0  0
    1.1097   12.4587   -6.0387 H   0  0  0  1  0  0  0  0  0  0  0  0
    4.9918    0.4866   -3.4017 H   0  0  0  1  0  0  0  0  0  0  0  0
    3.4786    1.3704   -1.2231 H   0  0  0  1  0  0  0  0  0  0  0  0
    4.8643   -0.9054   -1.7075 H   0  0  0  1  0  0  0  0  0  0  0  0
    4.4303   -0.4320   -0.0822 H   0  0  0  1  0  0  0  0  0  0  0  0
    7.0643    0.0115   -1.5016 H   0  0  0  1  0  0  0  0  0  0  0  0
    6.1996    1.4107    1.0269 H   0  0  0  1  0  0  0  0  0  0  0  0
    7.4190    1.9105   -0.1209 H   0  0  0  1  0  0  0  0  0  0  0  0
    4.8222    2.8459   -0.1203 H   0  0  0  1  0  0  0  0  0  0  0  0
    5.8709    2.8704   -1.5181 H   0  0  0  1  0  0  0  0  0  0  0  0
    6.9003   -1.8580   -0.0460 H   0  0  0  1  0  0  0  0  0  0  0  0
    6.3626   -0.9494    1.1565 H   0  0  0  1  0  0  0  0  0  0  0  0
  1  2  4  0  0  0  0
  1  6  4  0  0  0  0
  2  3  4  0  0  0  0
  2 18  1  0  0  0  0
  3  4  4  0  0  0  0
  4  5  4  0  0  0  0
  4  7  4  0  0  0  0
  5  6  4  0  0  0  0
  5  9  4  0  0  0  0
  6 25  1  0  0  0  0
  7  8  4  0  0  0  0
  7 26  1  0  0  0  0
  8  9  4  0  0  0  0
  9 10  1  0  0  0  0
 10 11  4  0  0  0  0
 10 15  4  0  0  0  0
 11 12  4  0  0  0  0
 11 27  1  0  0  0  0
 12 13  4  0  0  0  0
 12 28  1  0  0  0  0
 13 14  4  0  0  0  0
 13 16  1  0  0  0  0
 14 15  4  0  0  0  0
 14 29  1  0  0  0  0
 15 30  1  0  0  0  0
 16 17  1  0  0  0  0
 17 31  1  0  0  0  0
 17 32  1  0  0  0  0
 17 33  1  0  0  0  0
 18 19  1  0  0  0  0
 18 34  1  0  0  0  0
 19 20  1  0  0  0  0
 19 23  1  0  0  0  0
 19 35  1  0  0  0  0
 20 21  1  0  0  0  0
 20 36  1  0  0  0  0
 20 37  1  0  0  0  0
 21 22  1  0  0  0  0
 21 24  1  0  0  0  0
 21 38  1  0  0  0  0
 22 23  1  0  0  0  0
 22 39  1  0  0  0  0
 22 40  1  0  0  0  0
 23 41  1  0  0  0  0
 23 42  1  0  0  0  0
 24 43  1  0  0  0  0
 24 44  1  0  0  0  0
M  END
> <ConfClashScore>
0 

> <ConfOneFourInteractionScore>
-0.987617 

> <ConfScore>
-0.023399 

> <ConfScorePBest>
0.00292682 

> <ConfTolerance>
0.323481 

$$$$
c13.sdf
 OpenBabel04162418043D

 44 47  0  0  0  0  0  0  0  0999 V2000
    3.8788    3.5685   -2.9637 N   0  0  0  1  0  0  0  0  0  0  0  0
    4.6780    2.7160   -3.5825 C   0  0  0  1  0  0  0  0  0  0  0  0
    5.1502    2.9397   -4.7875 N   0  0  0  1  0  0  0  0  0  0  0  0
    4.8308    4.0601   -5.4403 C   0  0  0  1  0  0  0  0  0  0  0  0
    3.9799    4.9929   -4.8101 C   0  0  0  1  0  0  0  0  0  0  0  0
    3.5097    4.7029   -3.5327 C   0  0  0  1  0  0  0  0  0  0  0  0
    5.1550    4.5941   -6.7067 C   0  0  0  1  0  0  0  0  0  0  0  0
    4.5594    5.7451   -6.8406 N   0  0  0  1  0  0  0  0  0  0  0  0
    3.8186    6.0323   -5.6866 N   0  0  0  1  0  0  0  0  0  0  0  0
    3.0764    7.2319   -5.5825 C   0  0  0  1  0  0  0  0  0  0  0  0
    2.1552    7.4473   -4.5749 C   0  0  0  1  0  0  0  0  0  0  0  0
    1.4587    8.6443   -4.5170 C   0  0  0  1  0  0  0  0  0  0  0  0
    1.6814    9.6204   -5.4700 C   0  0  0  1  0  0  0  0  0  0  0  0
    2.6053    9.4041   -6.4805 C   0  0  0  1  0  0  0  0  0  0  0  0
    3.2999    8.2106   -6.5383 C   0  0  0  1  0  0  0  0  0  0  0  0
    0.9403   10.7430   -5.3143 O   0  0  0  1  0  0  0  0  0  0  0  0
    1.2159   11.8393   -6.2001 C   0  0  0  1  0  0  0  0  0  0  0  0
    5.0224    1.5722   -2.9532 N   0  0  0  1  0  0  0  0  0  0  0  0
    4.5435    1.1973   -1.6198 C   0  0  0  1  0  0  0  0  0  0  0  0
    5.0428   -0.2049   -1.2251 C   0  0  0  1  0  0  0  0  0  0  0  0
    6.4141   -0.0184   -0.4870 C   0  0  0  1  0  0  0  0  0  0  0  0
    6.5645    1.4922   -0.3384 C   0  0  0  1  0  0  0  0  0  0  0  0
    5.1732    2.1122   -0.5165 C   0  0  0  1  0  0  0  0  0  0  0  0
    6.3879   -0.6734    0.8372 N   0  0  0  1  0  0  0  0  0  0  0  0
    2.8807    5.3655   -3.0358 H   0  0  0  1  0  0  0  0  0  0  0  0
    5.7679    4.1431   -7.4156 H   0  0  0  1  0  0  0  0  0  0  0  0
    1.9847    6.7113   -3.8601 H   0  0  0  1  0  0  0  0  0  0  0  0
    0.7685    8.8080   -3.7565 H   0  0  0  1  0  0  0  0  0  0  0  0
    2.7759   10.1401   -7.1953 H   0  0  0  1  0  0  0  0  0  0  0  0
    3.9901    8.0468   -7.2988 H   0  0  0  1  0  0  0  0  0  0  0  0
    1.0448   11.5334   -7.2111 H   0  0  0  1  0  0  0  0  0  0  0  0
    2.2362   12.1411   -6.0869 H   0  0  0  1  0  0  0  0  0  0  0  0
    0.5721   12.6602   -5.9623 H   0  0  0  1  0  0  0  0  0  0  0  0
    5.6286    0.9563   -3.4153 H   0  0  0  1  0  0  0  0  0  0  0  0
    3.4748    1.2463   -1.5973 H   0  0  0  1  0  0  0  0  0  0  0  0
    5.1764   -0.8061   -2.1001 H   0  0  0  1  0  0  0  0  0  0  0  0
    4.3368   -0.6752   -0.5730 H   0  0  0  1  0  0  0  0  0  0  0  0
    7.2153   -0.4227   -1.0697 H   0  0  0  1  0  0  0  0  0  0  0  0
    7.2308    1.8685   -1.0864 H   0  0  0  1  0  0  0  0  0  0  0  0
    6.9480    1.7275    0.6324 H   0  0  0  1  0  0  0  0  0  0  0  0
    5.2404    3.1278   -0.8464 H   0  0  0  1  0  0  0  0  0  0  0  0
    4.6098    2.0684    0.3921 H   0  0  0  1  0  0  0  0  0  0  0  0
    7.2695   -0.5958    1.2581 H   0  0  0  1  0  0  0  0  0  0  0  0
    6.1604   -1.6204    0.7285 H   0  0  0  1  0  0  0  0  0  0  0  0
  1  2  4  0  0  0  0
  1  6  4  0  0  0  0
  2  3  4  0  0  0  0
  2 18  1  0  0  0  0
  3  4  4  0  0  0  0
  4  5  4  0  0  0  0
  4  7  4  0  0  0  0
  5  6  4  0  0  0  0
  5  9  4  0  0  0  0
  6 25  1  0  0  0  0
  7  8  4  0  0  0  0
  7 26  1  0  0  0  0
  8  9  4  0  0  0  0
  9 10  1  0  0  0  0
 10 11  4  0  0  0  0
 10 15  4  0  0  0  0
 11 12  4  0  0  0  0
 11 27  1  0  0  0  0
 12 13  4  0  0  0  0
 12 28  1  0  0  0  0
 13 14  4  0  0  0  0
 13 16  1  0  0  0  0
 14 15  4  0  0  0  0
 14 29  1  0  0  0  0
 15 30  1  0  0  0  0
 16 17  1  0  0  0  0
 17 31  1  0  0  0  0
 17 32  1  0  0  0  0
 17 33  1  0  0  0  0
 18 19  1  0  0  0  0
 18 34  1  0  0  0  0
 19 20  1  0  0  0  0
 19 23  1  0  0  0  0
 19 35  1  0  0  0  0
 20 21  1  0  0  0  0
 20 36  1  0  0  0  0
 20 37  1  0  0  0  0
 21 22  1  0  0  0  0
 21 24  1  0  0  0  0
 21 38  1  0  0  0  0
 22 23  1  0  0  0  0
 22 39  1  0  0  0  0
 22 40  1  0  0  0  0
 23 41  1  0  0  0  0
 23 42  1  0  0  0  0
 24 43  1  0  0  0  0
 24 44  1  0  0  0  0
M  END
> <ConfClashScore>
0 

> <ConfOneFourInteractionScore>
-0.984337 

> <ConfScore>
-0.0230544 

> <ConfScorePBest>
0.0029135 

> <ConfTolerance>
0.338005 

$$$$
c13.sdf
 OpenBabel04162418043D

 44 47  0  0  0  0  0  0  0  0999 V2000
    3.4507    3.6734   -1.9296 N   0  0  0  1  0  0  0  0  0  0  0  0
    3.5002    2.7818   -2.9048 C   0  0  0  1  0  0  0  0  0  0  0  0
    3.0526    3.0333   -4.1136 N   0  0  0  1  0  0  0  0  0  0  0  0
    2.5214    4.2241   -4.4024 C   0  0  0  1  0  0  0  0  0  0  0  0
    2.4524    5.2003   -3.3858 C   0  0  0  1  0  0  0  0  0  0  0  0
    2.9422    4.8778   -2.1236 C   0  0  0  1  0  0  0  0  0  0  0  0
    1.9646    4.8040   -5.5634 C   0  0  0  1  0  0  0  0  0  0  0  0
    1.5897    6.0203   -5.2852 N   0  0  0  1  0  0  0  0  0  0  0  0
    1.8735    6.3085   -3.9438 N   0  0  0  1  0  0  0  0  0  0  0  0
    1.4609    7.5480   -3.4145 C   0  0  0  1  0  0  0  0  0  0  0  0
    1.6076    7.8678   -2.0779 C   0  0  0  1  0  0  0  0  0  0  0  0
    1.1890    9.1042   -1.6113 C   0  0  0  1  0  0  0  0  0  0  0  0
    0.6202   10.0150   -2.4814 C   0  0  0  1  0  0  0  0  0  0  0  0
    0.4731    9.6941   -3.8219 C   0  0  0  1  0  0  0  0  0  0  0  0
    0.8904    8.4613   -4.2873 C   0  0  0  1  0  0  0  0  0  0  0  0
    0.2456   11.1848   -1.9112 O   0  0  0  1  0  0  0  0  0  0  0  0
   -0.2801   12.1999   -2.7805 C   0  0  0  1  0  0  0  0  0  0  0  0
    4.0287    1.5712   -2.6505 N   0  0  0  1  0  0  0  0  0  0  0  0
    4.4179    1.0493   -1.3367 C   0  0  0  1  0  0  0  0  0  0  0  0
    5.3143   -0.1757   -1.4871 C   0  0  0  1  0  0  0  0  0  0  0  0
    6.4417   -0.0496   -0.4551 C   0  0  0  1  0  0  0  0  0  0  0  0
    6.7173    1.4916   -0.4548 C   0  0  0  1  0  0  0  0  0  0  0  0
    5.3030    2.0903   -0.5667 C   0  0  0  1  0  0  0  0  0  0  0  0
    6.0035   -0.5158    0.8768 N   0  0  0  1  0  0  0  0  0  0  0  0
    2.9087    5.5706   -1.3487 H   0  0  0  1  0  0  0  0  0  0  0  0
    1.8695    4.3372   -6.4878 H   0  0  0  1  0  0  0  0  0  0  0  0
    2.0319    7.1810   -1.4224 H   0  0  0  1  0  0  0  0  0  0  0  0
    1.3031    9.3464   -0.6064 H   0  0  0  1  0  0  0  0  0  0  0  0
    0.0487   10.3809   -4.4775 H   0  0  0  1  0  0  0  0  0  0  0  0
    0.7764    8.2190   -5.2923 H   0  0  0  1  0  0  0  0  0  0  0  0
   -0.5473   13.0607   -2.2038 H   0  0  0  1  0  0  0  0  0  0  0  0
   -1.1469   11.8246   -3.2833 H   0  0  0  1  0  0  0  0  0  0  0  0
    0.4622   12.4706   -3.5020 H   0  0  0  1  0  0  0  0  0  0  0  0
    4.1672    0.9795   -3.4194 H   0  0  0  1  0  0  0  0  0  0  0  0
    3.5404    0.8090   -0.7735 H   0  0  0  1  0  0  0  0  0  0  0  0
    5.7249   -0.2090   -2.4746 H   0  0  0  1  0  0  0  0  0  0  0  0
    4.7498   -1.0662   -1.3047 H   0  0  0  1  0  0  0  0  0  0  0  0
    7.3085   -0.5987   -0.7584 H   0  0  0  1  0  0  0  0  0  0  0  0
    7.3230    1.7749   -1.2901 H   0  0  0  1  0  0  0  0  0  0  0  0
    7.1947    1.7975    0.4526 H   0  0  0  1  0  0  0  0  0  0  0  0
    5.3375    3.0130   -1.1074 H   0  0  0  1  0  0  0  0  0  0  0  0
    4.9000    2.2631    0.4093 H   0  0  0  1  0  0  0  0  0  0  0  0
    6.7263   -0.3810    1.5247 H   0  0  0  1  0  0  0  0  0  0  0  0
    5.7791   -1.4687    0.8316 H   0  0  0  1  0  0  0  0  0  0  0  0
  1  2  4  0  0  0  0
  1  6  4  0  0  0  0
  2  3  4  0  0  0  0
  2 18  1  0  0  0  0
  3  4  4  0  0  0  0
  4  5  4  0  0  0  0
  4  7  4  0  0  0  0
  5  6  4  0  0  0  0
  5  9  4  0  0  0  0
  6 25  1  0  0  0  0
  7  8  4  0  0  0  0
  7 26  1  0  0  0  0
  8  9  4  0  0  0  0
  9 10  1  0  0  0  0
 10 11  4  0  0  0  0
 10 15  4  0  0  0  0
 11 12  4  0  0  0  0
 11 27  1  0  0  0  0
 12 13  4  0  0  0  0
 12 28  1  0  0  0  0
 13 14  4  0  0  0  0
 13 16  1  0  0  0  0
 14 15  4  0  0  0  0
 14 29  1  0  0  0  0
 15 30  1  0  0  0  0
 16 17  1  0  0  0  0
 17 31  1  0  0  0  0
 17 32  1  0  0  0  0
 17 33  1  0  0  0  0
 18 19  1  0  0  0  0
 18 34  1  0  0  0  0
 19 20  1  0  0  0  0
 19 23  1  0  0  0  0
 19 35  1  0  0  0  0
 20 21  1  0  0  0  0
 20 36  1  0  0  0  0
 20 37  1  0  0  0  0
 21 22  1  0  0  0  0
 21 24  1  0  0  0  0
 21 38  1  0  0  0  0
 22 23  1  0  0  0  0
 22 39  1  0  0  0  0
 22 40  1  0  0  0  0
 23 41  1  0  0  0  0
 23 42  1  0  0  0  0
 24 43  1  0  0  0  0
 24 44  1  0  0  0  0
M  END
> <ConfClashScore>
0 

> <ConfOneFourInteractionScore>
-0.985399 

> <ConfScore>
-0.0224747 

> <ConfScorePBest>
0.00290017 

> <ConfTolerance>
0.349222 

$$$$
c13.sdf
 OpenBabel04162418043D

 44 47  0  0  0  0  0  0  0  0999 V2000
    2.5509    3.0148   -0.7345 N   0  0  0  1  0  0  0  0  0  0  0  0
    2.6565    2.5516   -1.9685 C   0  0  0  1  0  0  0  0  0  0  0  0
    1.9841    3.0639   -2.9738 N   0  0  0  1  0  0  0  0  0  0  0  0
    1.1542    4.0914   -2.7769 C   0  0  0  1  0  0  0  0  0  0  0  0
    1.0166    4.6116   -1.4723 C   0  0  0  1  0  0  0  0  0  0  0  0
    1.7540    4.0289   -0.4458 C   0  0  0  1  0  0  0  0  0  0  0  0
    0.3082    4.8542   -3.6115 C   0  0  0  1  0  0  0  0  0  0  0  0
   -0.2912    5.7564   -2.8877 N   0  0  0  1  0  0  0  0  0  0  0  0
    0.1190    5.6423   -1.5529 N   0  0  0  1  0  0  0  0  0  0  0  0
   -0.3910    6.5130   -0.5617 C   0  0  0  1  0  0  0  0  0  0  0  0
   -0.4461    6.1021    0.7568 C   0  0  0  1  0  0  0  0  0  0  0  0
   -0.9409    6.9574    1.7290 C   0  0  0  1  0  0  0  0  0  0  0  0
   -1.3841    8.2190    1.3792 C   0  0  0  1  0  0  0  0  0  0  0  0
   -1.3287    8.6309    0.0567 C   0  0  0  1  0  0  0  0  0  0  0  0
   -0.8354    7.7782   -0.9127 C   0  0  0  1  0  0  0  0  0  0  0  0
   -1.8723    9.0525    2.3282 O   0  0  0  1  0  0  0  0  0  0  0  0
   -2.0648    8.5085    3.6433 C   0  0  0  1  0  0  0  0  0  0  0  0
    3.5064    1.4879   -2.2112 N   0  0  0  1  0  0  0  0  0  0  0  0
    4.3922    1.0566   -1.1248 C   0  0  0  1  0  0  0  0  0  0  0  0
    5.2537   -0.1764   -1.5619 C   0  0  0  1  0  0  0  0  0  0  0  0
    6.4897   -0.1016   -0.6033 C   0  0  0  1  0  0  0  0  0  0  0  0
    6.6545    1.3959   -0.2192 C   0  0  0  1  0  0  0  0  0  0  0  0
    5.4429    2.1387   -0.8094 C   0  0  0  1  0  0  0  0  0  0  0  0
    6.2453   -0.9288    0.6246 N   0  0  0  1  0  0  0  0  0  0  0  0
    1.6795    4.3842    0.5287 H   0  0  0  1  0  0  0  0  0  0  0  0
    0.1841    4.7181   -4.6351 H   0  0  0  1  0  0  0  0  0  0  0  0
   -0.1164    5.1514    1.0195 H   0  0  0  1  0  0  0  0  0  0  0  0
   -0.9787    6.6498    2.7217 H   0  0  0  1  0  0  0  0  0  0  0  0
   -1.6584    9.5816   -0.2060 H   0  0  0  1  0  0  0  0  0  0  0  0
   -0.7976    8.0858   -1.9055 H   0  0  0  1  0  0  0  0  0  0  0  0
   -2.2556    7.4581    3.5709 H   0  0  0  1  0  0  0  0  0  0  0  0
   -2.8982    8.9907    4.1100 H   0  0  0  1  0  0  0  0  0  0  0  0
   -1.1841    8.6713    4.2288 H   0  0  0  1  0  0  0  0  0  0  0  0
    3.5164    1.0368   -3.0812 H   0  0  0  1  0  0  0  0  0  0  0  0
    3.8085    0.8268   -0.2580 H   0  0  0  1  0  0  0  0  0  0  0  0
    4.7147   -1.0902   -1.4232 H   0  0  0  1  0  0  0  0  0  0  0  0
    5.5552   -0.0912   -2.5850 H   0  0  0  1  0  0  0  0  0  0  0  0
    7.3676   -0.4545   -1.1029 H   0  0  0  1  0  0  0  0  0  0  0  0
    6.6707    1.5040    0.8453 H   0  0  0  1  0  0  0  0  0  0  0  0
    7.5621    1.7847   -0.6315 H   0  0  0  1  0  0  0  0  0  0  0  0
    5.0541    2.8382   -0.0992 H   0  0  0  1  0  0  0  0  0  0  0  0
    5.7235    2.6557   -1.7031 H   0  0  0  1  0  0  0  0  0  0  0  0
    5.3953   -0.6637    1.0338 H   0  0  0  1  0  0  0  0  0  0  0  0
    6.9740   -0.7866    1.2643 H   0  0  0  1  0  0  0  0  0  0  0  0
  1  2  4  0  0  0  0
  1  6  4  0  0  0  0
  2  3  4  0  0  0  0
  2 18  1  0  0  0  0
  3  4  4  0  0  0  0
  4  5  4  0  0  0  0
  4  7  4  0  0  0  0
  5  6  4  0  0  0  0
  5  9  4  0  0  0  0
  6 25  1  0  0  0  0
  7  8  4  0  0  0  0
  7 26  1  0  0  0  0
  8  9  4  0  0  0  0
  9 10  1  0  0  0  0
 10 11  4  0  0  0  0
 10 15  4  0  0  0  0
 11 12  4  0  0  0  0
 11 27  1  0  0  0  0
 12 13  4  0  0  0  0
 12 28  1  0  0  0  0
 13 14  4  0  0  0  0
 13 16  1  0  0  0  0
 14 15  4  0  0  0  0
 14 29  1  0  0  0  0
 15 30  1  0  0  0  0
 16 17  1  0  0  0  0
 17 31  1  0  0  0  0
 17 32  1  0  0  0  0
 17 33  1  0  0  0  0
 18 19  1  0  0  0  0
 18 34  1  0  0  0  0
 19 20  1  0  0  0  0
 19 23  1  0  0  0  0
 19 35  1  0  0  0  0
 20 21  1  0  0  0  0
 20 36  1  0  0  0  0
 20 37  1  0  0  0  0
 21 22  1  0  0  0  0
 21 24  1  0  0  0  0
 21 38  1  0  0  0  0
 22 23  1  0  0  0  0
 22 39  1  0  0  0  0
 22 40  1  0  0  0  0
 23 41  1  0  0  0  0
 23 42  1  0  0  0  0
 24 43  1  0  0  0  0
 24 44  1  0  0  0  0
M  END
> <ConfClashScore>
0 

> <ConfOneFourInteractionScore>
-0.981848 

> <ConfScore>
-0.0215749 

> <ConfScorePBest>
0.00288684 

> <ConfTolerance>
0.32465 

$$$$
c13.sdf
 OpenBabel04162418043D

 44 47  0  0  0  0  0  0  0  0999 V2000
    2.0605    1.0826   -3.9800 N   0  0  0  1  0  0  0  0  0  0  0  0
    2.8089    0.5609   -3.0228 C   0  0  0  1  0  0  0  0  0  0  0  0
    2.8039   -0.7226   -2.7444 N   0  0  0  1  0  0  0  0  0  0  0  0
    2.0254   -1.5599   -3.4346 C   0  0  0  1  0  0  0  0  0  0  0  0
    1.2132   -1.0379   -4.4637 C   0  0  0  1  0  0  0  0  0  0  0  0
    1.2595    0.3303   -4.7144 C   0  0  0  1  0  0  0  0  0  0  0  0
    1.7881   -2.9513   -3.3936 C   0  0  0  1  0  0  0  0  0  0  0  0
    0.9134   -3.2540   -4.3105 N   0  0  0  1  0  0  0  0  0  0  0  0
    0.5289   -2.0960   -4.9992 N   0  0  0  1  0  0  0  0  0  0  0  0
   -0.3203   -2.1513   -6.1394 C   0  0  0  1  0  0  0  0  0  0  0  0
   -1.4998   -1.4312   -6.1580 C   0  0  0  1  0  0  0  0  0  0  0  0
   -2.3246   -1.4808   -7.2710 C   0  0  0  1  0  0  0  0  0  0  0  0
   -1.9701   -2.2545   -8.3600 C   0  0  0  1  0  0  0  0  0  0  0  0
   -0.7870   -2.9768   -8.3412 C   0  0  0  1  0  0  0  0  0  0  0  0
    0.0354   -2.9274   -7.2315 C   0  0  0  1  0  0  0  0  0  0  0  0
   -2.8218   -2.2637   -9.4128 O   0  0  0  1  0  0  0  0  0  0  0  0
   -4.1418   -1.7423   -9.1936 C   0  0  0  1  0  0  0  0  0  0  0  0
    3.5844    1.4090   -2.3382 N   0  0  0  1  0  0  0  0  0  0  0  0
    4.4226    1.0816   -1.1803 C   0  0  0  1  0  0  0  0  0  0  0  0
    5.2730   -0.1524   -1.4698 C   0  0  0  1  0  0  0  0  0  0  0  0
    6.4269   -0.0088   -0.4591 C   0  0  0  1  0  0  0  0  0  0  0  0
    6.5701    1.4825   -0.1985 C   0  0  0  1  0  0  0  0  0  0  0  0
    5.4108    2.2020   -0.9072 C   0  0  0  1  0  0  0  0  0  0  0  0
    6.1044   -0.7183    0.7905 N   0  0  0  1  0  0  0  0  0  0  0  0
    0.6756    0.7522   -5.4645 H   0  0  0  1  0  0  0  0  0  0  0  0
    2.2373   -3.6235   -2.7394 H   0  0  0  1  0  0  0  0  0  0  0  0
   -1.7686   -0.8521   -5.3369 H   0  0  0  1  0  0  0  0  0  0  0  0
   -3.2102   -0.9357   -7.2866 H   0  0  0  1  0  0  0  0  0  0  0  0
   -0.5182   -3.5558   -9.1622 H   0  0  0  1  0  0  0  0  0  0  0  0
    0.9210   -3.4724   -7.2158 H   0  0  0  1  0  0  0  0  0  0  0  0
   -4.6821   -2.3993   -8.5444 H   0  0  0  1  0  0  0  0  0  0  0  0
   -4.6545   -1.6650  -10.1295 H   0  0  0  1  0  0  0  0  0  0  0  0
   -4.0724   -0.7741   -8.7434 H   0  0  0  1  0  0  0  0  0  0  0  0
    3.5933    2.3413   -2.6403 H   0  0  0  1  0  0  0  0  0  0  0  0
    3.8012    0.9149   -0.3253 H   0  0  0  1  0  0  0  0  0  0  0  0
    4.7193   -1.0518   -1.2987 H   0  0  0  1  0  0  0  0  0  0  0  0
    5.6372   -0.1431   -2.4758 H   0  0  0  1  0  0  0  0  0  0  0  0
    7.3327   -0.4032   -0.8702 H   0  0  0  1  0  0  0  0  0  0  0  0
    6.5266    1.6729    0.8535 H   0  0  0  1  0  0  0  0  0  0  0  0
    7.5046    1.8306   -0.5862 H   0  0  0  1  0  0  0  0  0  0  0  0
    5.7402    2.6538   -1.8195 H   0  0  0  1  0  0  0  0  0  0  0  0
    4.9788    2.9489   -0.2744 H   0  0  0  1  0  0  0  0  0  0  0  0
    6.8672   -0.6648    1.4033 H   0  0  0  1  0  0  0  0  0  0  0  0
    5.9107   -1.6582    0.5916 H   0  0  0  1  0  0  0  0  0  0  0  0
  1  2  4  0  0  0  0
  1  6  4  0  0  0  0
  2  3  4  0  0  0  0
  2 18  1  0  0  0  0
  3  4  4  0  0  0  0
  4  5  4  0  0  0  0
  4  7  4  0  0  0  0
  5  6  4  0  0  0  0
  5  9  4  0  0  0  0
  6 25  1  0  0  0  0
  7  8  4  0  0  0  0
  7 26  1  0  0  0  0
  8  9  4  0  0  0  0
  9 10  1  0  0  0  0
 10 11  4  0  0  0  0
 10 15  4  0  0  0  0
 11 12  4  0  0  0  0
 11 27  1  0  0  0  0
 12 13  4  0  0  0  0
 12 28  1  0  0  0  0
 13 14  4  0  0  0  0
 13 16  1  0  0  0  0
 14 15  4  0  0  0  0
 14 29  1  0  0  0  0
 15 30  1  0  0  0  0
 16 17  1  0  0  0  0
 17 31  1  0  0  0  0
 17 32  1  0  0  0  0
 17 33  1  0  0  0  0
 18 19  1  0  0  0  0
 18 34  1  0  0  0  0
 19 20  1  0  0  0  0
 19 23  1  0  0  0  0
 19 35  1  0  0  0  0
 20 21  1  0  0  0  0
 20 36  1  0  0  0  0
 20 37  1  0  0  0  0
 21 22  1  0  0  0  0
 21 24  1  0  0  0  0
 21 38  1  0  0  0  0
 22 23  1  0  0  0  0
 22 39  1  0  0  0  0
 22 40  1  0  0  0  0
 23 41  1  0  0  0  0
 23 42  1  0  0  0  0
 24 43  1  0  0  0  0
 24 44  1  0  0  0  0
M  END
> <ConfClashScore>
0 

> <ConfOneFourInteractionScore>
-0.985399 

> <ConfScore>
-0.0215244 

> <ConfScorePBest>
0.00287351 

> <ConfTolerance>
0.281232 

$$$$
c13.sdf
 OpenBabel04162418043D

 44 47  0  0  0  0  0  0  0  0999 V2000
    1.7042    1.4872   -3.6605 N   0  0  0  1  0  0  0  0  0  0  0  0
    2.3059    1.3105   -2.4964 C   0  0  0  1  0  0  0  0  0  0  0  0
    1.6526    0.9677   -1.4098 N   0  0  0  1  0  0  0  0  0  0  0  0
    0.3305    0.7829   -1.4473 C   0  0  0  1  0  0  0  0  0  0  0  0
   -0.3448    0.9629   -2.6732 C   0  0  0  1  0  0  0  0  0  0  0  0
    0.3990    1.3262   -3.7920 C   0  0  0  1  0  0  0  0  0  0  0  0
   -0.6458    0.4230   -0.4926 C   0  0  0  1  0  0  0  0  0  0  0  0
   -1.8094    0.3857   -1.0775 N   0  0  0  1  0  0  0  0  0  0  0  0
   -1.6695    0.7143   -2.4322 N   0  0  0  1  0  0  0  0  0  0  0  0
   -2.7830    0.6447   -3.2938 C   0  0  0  1  0  0  0  0  0  0  0  0
   -2.6966    0.9425   -4.6406 C   0  0  0  1  0  0  0  0  0  0  0  0
   -3.8227    0.8524   -5.4438 C   0  0  0  1  0  0  0  0  0  0  0  0
   -5.0330    0.4698   -4.8969 C   0  0  0  1  0  0  0  0  0  0  0  0
   -5.1195    0.1711   -3.5460 C   0  0  0  1  0  0  0  0  0  0  0  0
   -3.9967    0.2610   -2.7450 C   0  0  0  1  0  0  0  0  0  0  0  0
   -6.0593    0.4228   -5.7741 O   0  0  0  1  0  0  0  0  0  0  0  0
   -7.3755    0.0904   -5.3053 C   0  0  0  1  0  0  0  0  0  0  0  0
    3.6560    1.4905   -2.4197 N   0  0  0  1  0  0  0  0  0  0  0  0
    4.4097    1.1605   -1.2056 C   0  0  0  1  0  0  0  0  0  0  0  0
    5.1107   -0.1925   -1.3553 C   0  0  0  1  0  0  0  0  0  0  0  0
    6.4433   -0.0475   -0.6083 C   0  0  0  1  0  0  0  0  0  0  0  0
    6.4786    1.3861   -0.0683 C   0  0  0  1  0  0  0  0  0  0  0  0
    5.5489    2.1620   -0.9868 C   0  0  0  1  0  0  0  0  0  0  0  0
    6.5138   -1.0184    0.5086 N   0  0  0  1  0  0  0  0  0  0  0  0
   -0.0629    1.4681   -4.7129 H   0  0  0  1  0  0  0  0  0  0  0  0
   -0.4657    0.2210    0.5115 H   0  0  0  1  0  0  0  0  0  0  0  0
   -1.7868    1.2343   -5.0514 H   0  0  0  1  0  0  0  0  0  0  0  0
   -3.7569    1.0726   -6.4581 H   0  0  0  1  0  0  0  0  0  0  0  0
   -6.0293   -0.1206   -3.1352 H   0  0  0  1  0  0  0  0  0  0  0  0
   -4.0625    0.0407   -1.7307 H   0  0  0  1  0  0  0  0  0  0  0  0
   -7.7951    0.9308   -4.7930 H   0  0  0  1  0  0  0  0  0  0  0  0
   -7.3156   -0.7418   -4.6353 H   0  0  0  1  0  0  0  0  0  0  0  0
   -7.9964   -0.1657   -6.1382 H   0  0  0  1  0  0  0  0  0  0  0  0
    4.1346    1.8496   -3.1958 H   0  0  0  1  0  0  0  0  0  0  0  0
    3.7473    1.1521   -0.3653 H   0  0  0  1  0  0  0  0  0  0  0  0
    4.5198   -0.9702   -0.9183 H   0  0  0  1  0  0  0  0  0  0  0  0
    5.2829   -0.4123   -2.3882 H   0  0  0  1  0  0  0  0  0  0  0  0
    7.2625   -0.2119   -1.2767 H   0  0  0  1  0  0  0  0  0  0  0  0
    7.4714    1.7826   -0.1128 H   0  0  0  1  0  0  0  0  0  0  0  0
    6.1260    1.4185    0.9414 H   0  0  0  1  0  0  0  0  0  0  0  0
    5.1957    3.0562   -0.5172 H   0  0  0  1  0  0  0  0  0  0  0  0
    6.0314    2.4097   -1.9092 H   0  0  0  1  0  0  0  0  0  0  0  0
    5.7081   -0.9404    1.0611 H   0  0  0  1  0  0  0  0  0  0  0  0
    7.3045   -0.8295    1.0559 H   0  0  0  1  0  0  0  0  0  0  0  0
  1  2  4  0  0  0  0
  1  6  4  0  0  0  0
  2  3  4  0  0  0  0
  2 18  1  0  0  0  0
  3  4  4  0  0  0  0
  4  5  4  0  0  0  0
  4  7  4  0  0  0  0
  5  6  4  0  0  0  0
  5  9  4  0  0  0  0
  6 25  1  0  0  0  0
  7  8  4  0  0  0  0
  7 26  1  0  0  0  0
  8  9  4  0  0  0  0
  9 10  1  0  0  0  0
 10 11  4  0  0  0  0
 10 15  4  0  0  0  0
 11 12  4  0  0  0  0
 11 27  1  0  0  0  0
 12 13  4  0  0  0  0
 12 28  1  0  0  0  0
 13 14  4  0  0  0  0
 13 16  1  0  0  0  0
 14 15  4  0  0  0  0
 14 29  1  0  0  0  0
 15 30  1  0  0  0  0
 16 17  1  0  0  0  0
 17 31  1  0  0  0  0
 17 32  1  0  0  0  0
 17 33  1  0  0  0  0
 18 19  1  0  0  0  0
 18 34  1  0  0  0  0
 19 20  1  0  0  0  0
 19 23  1  0  0  0  0
 19 35  1  0  0  0  0
 20 21  1  0  0  0  0
 20 36  1  0  0  0  0
 20 37  1  0  0  0  0
 21 22  1  0  0  0  0
 21 24  1  0  0  0  0
 21 38  1  0  0  0  0
 22 23  1  0  0  0  0
 22 39  1  0  0  0  0
 22 40  1  0  0  0  0
 23 41  1  0  0  0  0
 23 42  1  0  0  0  0
 24 43  1  0  0  0  0
 24 44  1  0  0  0  0
M  END
> <ConfClashScore>
0 

> <ConfOneFourInteractionScore>
-0.984337 

> <ConfScore>
-0.0212257 

> <ConfScorePBest>
0.00286018 

> <ConfTolerance>
0.396957 

$$$$
c13.sdf
 OpenBabel04162418043D

 44 47  0  0  0  0  0  0  0  0999 V2000
    3.8861    3.1275   -3.4740 N   0  0  0  1  0  0  0  0  0  0  0  0
    4.7982    2.2558   -3.8697 C   0  0  0  1  0  0  0  0  0  0  0  0
    5.3586    2.3111   -5.0562 N   0  0  0  1  0  0  0  0  0  0  0  0
    5.0172    3.2710   -5.9197 C   0  0  0  1  0  0  0  0  0  0  0  0
    4.0468    4.2189   -5.5310 C   0  0  0  1  0  0  0  0  0  0  0  0
    3.4868    4.1109   -4.2614 C   0  0  0  1  0  0  0  0  0  0  0  0
    5.4132    3.6074   -7.2327 C   0  0  0  1  0  0  0  0  0  0  0  0
    4.7488    4.6615   -7.6132 N   0  0  0  1  0  0  0  0  0  0  0  0
    3.8885    5.0751   -6.5876 N   0  0  0  1  0  0  0  0  0  0  0  0
    2.9681    6.1365   -6.7521 C   0  0  0  1  0  0  0  0  0  0  0  0
    1.8234    5.9482   -7.5033 C   0  0  0  1  0  0  0  0  0  0  0  0
    0.9188    6.9867   -7.6601 C   0  0  0  1  0  0  0  0  0  0  0  0
    1.1642    8.2121   -7.0697 C   0  0  0  1  0  0  0  0  0  0  0  0
    2.3124    8.4008   -6.3163 C   0  0  0  1  0  0  0  0  0  0  0  0
    3.2144    7.3653   -6.1599 C   0  0  0  1  0  0  0  0  0  0  0  0
    0.2595    9.2188   -7.1158 O   0  0  0  1  0  0  0  0  0  0  0  0
   -0.9355    8.9926   -7.8795 C   0  0  0  1  0  0  0  0  0  0  0  0
    5.1773    1.2473   -3.0027 N   0  0  0  1  0  0  0  0  0  0  0  0
    4.5816    1.1715   -1.6646 C   0  0  0  1  0  0  0  0  0  0  0  0
    4.8843   -0.1686   -1.0042 C   0  0  0  1  0  0  0  0  0  0  0  0
    6.3272   -0.0051   -0.5035 C   0  0  0  1  0  0  0  0  0  0  0  0
    6.4768    1.4673   -0.1524 C   0  0  0  1  0  0  0  0  0  0  0  0
    5.2403    2.1799   -0.7068 C   0  0  0  1  0  0  0  0  0  0  0  0
    6.5551   -0.8402    0.6835 N   0  0  0  1  0  0  0  0  0  0  0  0
    2.7686    4.7905   -3.9389 H   0  0  0  1  0  0  0  0  0  0  0  0
    6.1188    3.0979   -7.8021 H   0  0  0  1  0  0  0  0  0  0  0  0
    1.6407    5.0273   -7.9509 H   0  0  0  1  0  0  0  0  0  0  0  0
    0.0554    6.8439   -8.2220 H   0  0  0  1  0  0  0  0  0  0  0  0
    2.4951    9.3216   -5.8687 H   0  0  0  1  0  0  0  0  0  0  0  0
    4.0778    7.5082   -5.5980 H   0  0  0  1  0  0  0  0  0  0  0  0
   -0.7636    9.2632   -8.9003 H   0  0  0  1  0  0  0  0  0  0  0  0
   -1.7306    9.5883   -7.4819 H   0  0  0  1  0  0  0  0  0  0  0  0
   -1.2028    7.9580   -7.8251 H   0  0  0  1  0  0  0  0  0  0  0  0
    5.8428    0.5844   -3.2819 H   0  0  0  1  0  0  0  0  0  0  0  0
    3.5268    1.3376   -1.7333 H   0  0  0  1  0  0  0  0  0  0  0  0
    4.2157   -0.3528   -0.1894 H   0  0  0  1  0  0  0  0  0  0  0  0
    4.8137   -0.9680   -1.7119 H   0  0  0  1  0  0  0  0  0  0  0  0
    7.0213   -0.2779   -1.2708 H   0  0  0  1  0  0  0  0  0  0  0  0
    6.5277    1.5897    0.9093 H   0  0  0  1  0  0  0  0  0  0  0  0
    7.3633    1.8649   -0.6007 H   0  0  0  1  0  0  0  0  0  0  0  0
    4.5691    2.4360    0.0862 H   0  0  0  1  0  0  0  0  0  0  0  0
    5.5245    3.0664   -1.2344 H   0  0  0  1  0  0  0  0  0  0  0  0
    7.3922   -0.5718    1.1165 H   0  0  0  1  0  0  0  0  0  0  0  0
    6.6136   -1.7808    0.4146 H   0  0  0  1  0  0  0  0  0  0  0  0
  1  2  4  0  0  0  0
  1  6  4  0  0  0  0
  2  3  4  0  0  0  0
  2 18  1  0  0  0  0
  3  4  4  0  0  0  0
  4  5  4  0  0  0  0
  4  7  4  0  0  0  0
  5  6  4  0  0  0  0
  5  9  4  0  0  0  0
  6 25  1  0  0  0  0
  7  8  4  0  0  0  0
  7 26  1  0  0  0  0
  8  9  4  0  0  0  0
  9 10  1  0  0  0  0
 10 11  4  0  0  0  0
 10 15  4  0  0  0  0
 11 12  4  0  0  0  0
 11 27  1  0  0  0  0
 12 13  4  0  0  0  0
 12 28  1  0  0  0  0
 13 14  4  0  0  0  0
 13 16  1  0  0  0  0
 14 15  4  0  0  0  0
 14 29  1  0  0  0  0
 15 30  1  0  0  0  0
 16 17  1  0  0  0  0
 17 31  1  0  0  0  0
 17 32  1  0  0  0  0
 17 33  1  0  0  0  0
 18 19  1  0  0  0  0
 18 34  1  0  0  0  0
 19 20  1  0  0  0  0
 19 23  1  0  0  0  0
 19 35  1  0  0  0  0
 20 21  1  0  0  0  0
 20 36  1  0  0  0  0
 20 37  1  0  0  0  0
 21 22  1  0  0  0  0
 21 24  1  0  0  0  0
 21 38  1  0  0  0  0
 22 23  1  0  0  0  0
 22 39  1  0  0  0  0
 22 40  1  0  0  0  0
 23 41  1  0  0  0  0
 23 42  1  0  0  0  0
 24 43  1  0  0  0  0
 24 44  1  0  0  0  0
M  END
> <ConfClashScore>
0 

> <ConfOneFourInteractionScore>
-0.984337 

> <ConfScore>
-0.0209857 

> <ConfScorePBest>
0.00284685 

> <ConfTolerance>
0.511587 

$$$$
c13.sdf
 OpenBabel04162418043D

 44 47  0  0  0  0  0  0  0  0999 V2000
    2.6118    1.4455   -3.6703 N   0  0  0  1  0  0  0  0  0  0  0  0
    3.8911    1.5174   -3.9970 C   0  0  0  1  0  0  0  0  0  0  0  0
    4.2933    1.7241   -5.2301 N   0  0  0  1  0  0  0  0  0  0  0  0
    3.4032    1.8715   -6.2146 C   0  0  0  1  0  0  0  0  0  0  0  0
    2.0288    1.8007   -5.9024 C   0  0  0  1  0  0  0  0  0  0  0  0
    1.6610    1.5796   -4.5784 C   0  0  0  1  0  0  0  0  0  0  0  0
    3.4944    2.0994   -7.6053 C   0  0  0  1  0  0  0  0  0  0  0  0
    2.2904    2.1623   -8.0990 N   0  0  0  1  0  0  0  0  0  0  0  0
    1.3492    1.9821   -7.0770 N   0  0  0  1  0  0  0  0  0  0  0  0
   -0.0258    2.0072   -7.3543 C   0  0  0  1  0  0  0  0  0  0  0  0
   -0.5866    2.5571   -8.4916 C   0  0  0  1  0  0  0  0  0  0  0  0
   -1.9606    2.5249   -8.6717 C   0  0  0  1  0  0  0  0  0  0  0  0
   -2.7703    1.9478   -7.7117 C   0  0  0  1  0  0  0  0  0  0  0  0
   -2.2077    1.3964   -6.5711 C   0  0  0  1  0  0  0  0  0  0  0  0
   -0.8377    1.4284   -6.3913 C   0  0  0  1  0  0  0  0  0  0  0  0
   -4.0785    1.9797   -7.9907 O   0  0  0  1  0  0  0  0  0  0  0  0
   -5.0524    1.2090   -7.2094 C   0  0  0  1  0  0  0  0  0  0  0  0
    4.7746    1.3680   -3.0016 N   0  0  0  1  0  0  0  0  0  0  0  0
    4.5227    1.2167   -1.5648 C   0  0  0  1  0  0  0  0  0  0  0  0
    4.9393   -0.1801   -1.0914 C   0  0  0  1  0  0  0  0  0  0  0  0
    6.3959   -0.0268   -0.6532 C   0  0  0  1  0  0  0  0  0  0  0  0
    6.3813    1.3402    0.0352 C   0  0  0  1  0  0  0  0  0  0  0  0
    5.3913    2.1931   -0.7616 C   0  0  0  1  0  0  0  0  0  0  0  0
    6.7859   -1.0903    0.2819 N   0  0  0  1  0  0  0  0  0  0  0  0
    0.6582    1.5211   -4.3092 H   0  0  0  1  0  0  0  0  0  0  0  0
    4.3770    2.2003   -8.1460 H   0  0  0  1  0  0  0  0  0  0  0  0
    0.0223    2.9949   -9.2121 H   0  0  0  1  0  0  0  0  0  0  0  0
   -2.3823    2.9351   -9.5294 H   0  0  0  1  0  0  0  0  0  0  0  0
   -2.8166    0.9586   -5.8505 H   0  0  0  1  0  0  0  0  0  0  0  0
   -0.4159    1.0182   -5.5337 H   0  0  0  1  0  0  0  0  0  0  0  0
   -4.5996    0.8820   -6.2968 H   0  0  0  1  0  0  0  0  0  0  0  0
   -5.3695    0.3578   -7.7750 H   0  0  0  1  0  0  0  0  0  0  0  0
   -5.8984    1.8252   -6.9867 H   0  0  0  1  0  0  0  0  0  0  0  0
    5.7172    1.3586   -3.2697 H   0  0  0  1  0  0  0  0  0  0  0  0
    3.4854    1.3862   -1.3643 H   0  0  0  1  0  0  0  0  0  0  0  0
    4.8587   -0.8880   -1.8897 H   0  0  0  1  0  0  0  0  0  0  0  0
    4.3304   -0.4967   -0.2704 H   0  0  0  1  0  0  0  0  0  0  0  0
    7.0569   -0.0309   -1.4945 H   0  0  0  1  0  0  0  0  0  0  0  0
    6.0577    1.2434    1.0504 H   0  0  0  1  0  0  0  0  0  0  0  0
    7.3564    1.7803    0.0115 H   0  0  0  1  0  0  0  0  0  0  0  0
    5.9177    2.8492   -1.4230 H   0  0  0  1  0  0  0  0  0  0  0  0
    4.7818    2.7692   -0.0973 H   0  0  0  1  0  0  0  0  0  0  0  0
    6.1164   -1.1615    0.9940 H   0  0  0  1  0  0  0  0  0  0  0  0
    7.6581   -0.8764    0.6741 H   0  0  0  1  0  0  0  0  0  0  0  0
  1  2  4  0  0  0  0
  1  6  4  0  0  0  0
  2  3  4  0  0  0  0
  2 18  1  0  0  0  0
  3  4  4  0  0  0  0
  4  5  4  0  0  0  0
  4  7  4  0  0  0  0
  5  6  4  0  0  0  0
  5  9  4  0  0  0  0
  6 25  1  0  0  0  0
  7  8  4  0  0  0  0
  7 26  1  0  0  0  0
  8  9  4  0  0  0  0
  9 10  1  0  0  0  0
 10 11  4  0  0  0  0
 10 15  4  0  0  0  0
 11 12  4  0  0  0  0
 11 27  1  0  0  0  0
 12 13  4  0  0  0  0
 12 28  1  0  0  0  0
 13 14  4  0  0  0  0
 13 16  1  0  0  0  0
 14 15  4  0  0  0  0
 14 29  1  0  0  0  0
 15 30  1  0  0  0  0
 16 17  1  0  0  0  0
 17 31  1  0  0  0  0
 17 32  1  0  0  0  0
 17 33  1  0  0  0  0
 18 19  1  0  0  0  0
 18 34  1  0  0  0  0
 19 20  1  0  0  0  0
 19 23  1  0  0  0  0
 19 35  1  0  0  0  0
 20 21  1  0  0  0  0
 20 36  1  0  0  0  0
 20 37  1  0  0  0  0
 21 22  1  0  0  0  0
 21 24  1  0  0  0  0
 21 38  1  0  0  0  0
 22 23  1  0  0  0  0
 22 39  1  0  0  0  0
 22 40  1  0  0  0  0
 23 41  1  0  0  0  0
 23 42  1  0  0  0  0
 24 43  1  0  0  0  0
 24 44  1  0  0  0  0
M  END
> <ConfClashScore>
0 

> <ConfOneFourInteractionScore>
-0.984337 

> <ConfScore>
-0.0208412 

> <ConfScorePBest>
0.00283353 

> <ConfTolerance>
0.391763 

$$$$
c13.sdf
 OpenBabel04162418043D

 44 47  0  0  0  0  0  0  0  0999 V2000
    1.6230    1.2833   -0.6763 N   0  0  0  1  0  0  0  0  0  0  0  0
    2.1418    1.5374   -1.8657 C   0  0  0  1  0  0  0  0  0  0  0  0
    1.4103    1.9211   -2.8867 N   0  0  0  1  0  0  0  0  0  0  0  0
    0.0899    2.0700   -2.7529 C   0  0  0  1  0  0  0  0  0  0  0  0
   -0.4982    1.8075   -1.4973 C   0  0  0  1  0  0  0  0  0  0  0  0
    0.3263    1.4039   -0.4512 C   0  0  0  1  0  0  0  0  0  0  0  0
   -0.9554    2.4556   -3.6204 C   0  0  0  1  0  0  0  0  0  0  0  0
   -2.0780    2.4319   -2.9597 N   0  0  0  1  0  0  0  0  0  0  0  0
   -1.8411    2.0349   -1.6371 N   0  0  0  1  0  0  0  0  0  0  0  0
   -2.9013    1.9302   -0.7142 C   0  0  0  1  0  0  0  0  0  0  0  0
   -3.4901    0.7206   -0.3972 C   0  0  0  1  0  0  0  0  0  0  0  0
   -4.5266    0.6743    0.5219 C   0  0  0  1  0  0  0  0  0  0  0  0
   -4.9750    1.8381    1.1175 C   0  0  0  1  0  0  0  0  0  0  0  0
   -4.3843    3.0513    0.7994 C   0  0  0  1  0  0  0  0  0  0  0  0
   -3.3508    3.0976   -0.1170 C   0  0  0  1  0  0  0  0  0  0  0  0
   -5.9939    1.7248    2.0023 O   0  0  0  1  0  0  0  0  0  0  0  0
   -6.3016    0.4071    2.4833 C   0  0  0  1  0  0  0  0  0  0  0  0
    3.4818    1.4152   -2.1066 N   0  0  0  1  0  0  0  0  0  0  0  0
    4.4284    1.0773   -1.0400 C   0  0  0  1  0  0  0  0  0  0  0  0
    5.2810   -0.1340   -1.4181 C   0  0  0  1  0  0  0  0  0  0  0  0
    6.5299   -0.0257   -0.5363 C   0  0  0  1  0  0  0  0  0  0  0  0
    6.7074    1.4739   -0.2671 C   0  0  0  1  0  0  0  0  0  0  0  0
    5.4846    2.1715   -0.8676 C   0  0  0  1  0  0  0  0  0  0  0  0
    6.3308   -0.7678    0.7464 N   0  0  0  1  0  0  0  0  0  0  0  0
   -0.0701    1.2011    0.4887 H   0  0  0  1  0  0  0  0  0  0  0  0
   -0.8471    2.7156   -4.6216 H   0  0  0  1  0  0  0  0  0  0  0  0
   -3.1554   -0.1547   -0.8483 H   0  0  0  1  0  0  0  0  0  0  0  0
   -4.9670   -0.2364    0.7635 H   0  0  0  1  0  0  0  0  0  0  0  0
   -4.7190    3.9266    1.2505 H   0  0  0  1  0  0  0  0  0  0  0  0
   -2.9104    4.0083   -0.3586 H   0  0  0  1  0  0  0  0  0  0  0  0
   -5.4014   -0.0766    2.8006 H   0  0  0  1  0  0  0  0  0  0  0  0
   -6.7545   -0.1621    1.6986 H   0  0  0  1  0  0  0  0  0  0  0  0
   -6.9782    0.4781    3.3092 H   0  0  0  1  0  0  0  0  0  0  0  0
    3.8182    1.5571   -3.0161 H   0  0  0  1  0  0  0  0  0  0  0  0
    3.8938    0.9066   -0.1289 H   0  0  0  1  0  0  0  0  0  0  0  0
    5.5471   -0.0987   -2.4539 H   0  0  0  1  0  0  0  0  0  0  0  0
    4.7545   -1.0432   -1.2154 H   0  0  0  1  0  0  0  0  0  0  0  0
    7.3842   -0.4182   -1.0472 H   0  0  0  1  0  0  0  0  0  0  0  0
    7.6021    1.8297   -0.7339 H   0  0  0  1  0  0  0  0  0  0  0  0
    6.7570    1.6569    0.7860 H   0  0  0  1  0  0  0  0  0  0  0  0
    5.1279    2.9337   -0.2068 H   0  0  0  1  0  0  0  0  0  0  0  0
    5.7302    2.6057   -1.8142 H   0  0  0  1  0  0  0  0  0  0  0  0
    6.2635   -1.7279    0.5619 H   0  0  0  1  0  0  0  0  0  0  0  0
    5.5063   -0.4596    1.1773 H   0  0  0  1  0  0  0  0  0  0  0  0
  1  2  4  0  0  0  0
  1  6  4  0  0  0  0
  2  3  4  0  0  0  0
  2 18  1  0  0  0  0
  3  4  4  0  0  0  0
  4  5  4  0  0  0  0
  4  7  4  0  0  0  0
  5  6  4  0  0  0  0
  5  9  4  0  0  0  0
  6 25  1  0  0  0  0
  7  8  4  0  0  0  0
  7 26  1  0  0  0  0
  8  9  4  0  0  0  0
  9 10  1  0  0  0  0
 10 11  4  0  0  0  0
 10 15  4  0  0  0  0
 11 12  4  0  0  0  0
 11 27  1  0  0  0  0
 12 13  4  0  0  0  0
 12 28  1  0  0  0  0
 13 14  4  0  0  0  0
 13 16  1  0  0  0  0
 14 15  4  0  0  0  0
 14 29  1  0  0  0  0
 15 30  1  0  0  0  0
 16 17  1  0  0  0  0
 17 31  1  0  0  0  0
 17 32  1  0  0  0  0
 17 33  1  0  0  0  0
 18 19  1  0  0  0  0
 18 34  1  0  0  0  0
 19 20  1  0  0  0  0
 19 23  1  0  0  0  0
 19 35  1  0  0  0  0
 20 21  1  0  0  0  0
 20 36  1  0  0  0  0
 20 37  1  0  0  0  0
 21 22  1  0  0  0  0
 21 24  1  0  0  0  0
 21 38  1  0  0  0  0
 22 23  1  0  0  0  0
 22 39  1  0  0  0  0
 22 40  1  0  0  0  0
 23 41  1  0  0  0  0
 23 42  1  0  0  0  0
 24 43  1  0  0  0  0
 24 44  1  0  0  0  0
M  END
> <ConfClashScore>
0 

> <ConfOneFourInteractionScore>
-0.984337 

> <ConfScore>
-0.0198432 

> <ConfScorePBest>
0.0028202 

> <ConfTolerance>
0.438591 

$$$$
c13.sdf
 OpenBabel04162418043D

 44 47  0  0  0  0  0  0  0  0999 V2000
    1.9685    2.9992   -3.0354 N   0  0  0  1  0  0  0  0  0  0  0  0
    2.8349    2.6859   -2.0870 C   0  0  0  1  0  0  0  0  0  0  0  0
    3.1081    3.4925   -1.0871 N   0  0  0  1  0  0  0  0  0  0  0  0
    2.5060    4.6810   -0.9947 C   0  0  0  1  0  0  0  0  0  0  0  0
    1.5751    5.0486   -1.9896 C   0  0  0  1  0  0  0  0  0  0  0  0
    1.3253    4.1537   -3.0258 C   0  0  0  1  0  0  0  0  0  0  0  0
    2.5687    5.7535   -0.0783 C   0  0  0  1  0  0  0  0  0  0  0  0
    1.7537    6.6899   -0.4736 N   0  0  0  1  0  0  0  0  0  0  0  0
    1.1157    6.2946   -1.6566 N   0  0  0  1  0  0  0  0  0  0  0  0
    0.1708    7.1473   -2.2954 C   0  0  0  1  0  0  0  0  0  0  0  0
   -1.1417    7.1641   -1.8625 C   0  0  0  1  0  0  0  0  0  0  0  0
   -2.0420    8.0620   -2.4146 C   0  0  0  1  0  0  0  0  0  0  0  0
   -1.6286    8.9367   -3.4017 C   0  0  0  1  0  0  0  0  0  0  0  0
   -0.3121    8.9197   -3.8357 C   0  0  0  1  0  0  0  0  0  0  0  0
    0.5856    8.0245   -3.2853 C   0  0  0  1  0  0  0  0  0  0  0  0
   -2.4583    9.8340   -3.9851 O   0  0  0  1  0  0  0  0  0  0  0  0
   -2.0002   10.4631   -5.1921 C   0  0  0  1  0  0  0  0  0  0  0  0
    3.4697    1.4800   -2.1481 N   0  0  0  1  0  0  0  0  0  0  0  0
    4.3987    1.0447   -1.1011 C   0  0  0  1  0  0  0  0  0  0  0  0
    5.2771   -0.1688   -1.5858 C   0  0  0  1  0  0  0  0  0  0  0  0
    6.4818   -0.0883   -0.5940 C   0  0  0  1  0  0  0  0  0  0  0  0
    6.6471    1.3855   -0.2172 C   0  0  0  1  0  0  0  0  0  0  0  0
    5.4501    2.1092   -0.8185 C   0  0  0  1  0  0  0  0  0  0  0  0
    6.2005   -0.8960    0.6169 N   0  0  0  1  0  0  0  0  0  0  0  0
    0.6460    4.3888   -3.7775 H   0  0  0  1  0  0  0  0  0  0  0  0
    3.1667    5.7899    0.7717 H   0  0  0  1  0  0  0  0  0  0  0  0
   -1.4538    6.5032   -1.1227 H   0  0  0  1  0  0  0  0  0  0  0  0
   -3.0286    8.0774   -2.0861 H   0  0  0  1  0  0  0  0  0  0  0  0
   -0.0000    9.5806   -4.5755 H   0  0  0  1  0  0  0  0  0  0  0  0
    1.5722    8.0091   -3.6137 H   0  0  0  1  0  0  0  0  0  0  0  0
   -1.5949    9.7224   -5.8493 H   0  0  0  1  0  0  0  0  0  0  0  0
   -1.2435   11.1813   -4.9546 H   0  0  0  1  0  0  0  0  0  0  0  0
   -2.8210   10.9544   -5.6716 H   0  0  0  1  0  0  0  0  0  0  0  0
    3.3002    0.8894   -2.9116 H   0  0  0  1  0  0  0  0  0  0  0  0
    3.8497    0.7973   -0.2167 H   0  0  0  1  0  0  0  0  0  0  0  0
    4.7517   -1.0959   -1.4896 H   0  0  0  1  0  0  0  0  0  0  0  0
    5.5951   -0.0420   -2.5996 H   0  0  0  1  0  0  0  0  0  0  0  0
    7.3717   -0.4497   -1.0656 H   0  0  0  1  0  0  0  0  0  0  0  0
    6.6536    1.4985    0.8468 H   0  0  0  1  0  0  0  0  0  0  0  0
    7.5581    1.7730   -0.6232 H   0  0  0  1  0  0  0  0  0  0  0  0
    5.7327    2.5997   -1.7265 H   0  0  0  1  0  0  0  0  0  0  0  0
    5.0687    2.8308   -0.1266 H   0  0  0  1  0  0  0  0  0  0  0  0
    5.3669   -0.5874    1.0295 H   0  0  0  1  0  0  0  0  0  0  0  0
    6.9374   -0.7951    1.2550 H   0  0  0  1  0  0  0  0  0  0  0  0
  1  2  4  0  0  0  0
  1  6  4  0  0  0  0
  2  3  4  0  0  0  0
  2 18  1  0  0  0  0
  3  4  4  0  0  0  0
  4  5  4  0  0  0  0
  4  7  4  0  0  0  0
  5  6  4  0  0  0  0
  5  9  4  0  0  0  0
  6 25  1  0  0  0  0
  7  8  4  0  0  0  0
  7 26  1  0  0  0  0
  8  9  4  0  0  0  0
  9 10  1  0  0  0  0
 10 11  4  0  0  0  0
 10 15  4  0  0  0  0
 11 12  4  0  0  0  0
 11 27  1  0  0  0  0
 12 13  4  0  0  0  0
 12 28  1  0  0  0  0
 13 14  4  0  0  0  0
 13 16  1  0  0  0  0
 14 15  4  0  0  0  0
 14 29  1  0  0  0  0
 15 30  1  0  0  0  0
 16 17  1  0  0  0  0
 17 31  1  0  0  0  0
 17 32  1  0  0  0  0
 17 33  1  0  0  0  0
 18 19  1  0  0  0  0
 18 34  1  0  0  0  0
 19 20  1  0  0  0  0
 19 23  1  0  0  0  0
 19 35  1  0  0  0  0
 20 21  1  0  0  0  0
 20 36  1  0  0  0  0
 20 37  1  0  0  0  0
 21 22  1  0  0  0  0
 21 24  1  0  0  0  0
 21 38  1  0  0  0  0
 22 23  1  0  0  0  0
 22 39  1  0  0  0  0
 22 40  1  0  0  0  0
 23 41  1  0  0  0  0
 23 42  1  0  0  0  0
 24 43  1  0  0  0  0
 24 44  1  0  0  0  0
M  END
> <ConfClashScore>
0 

> <ConfOneFourInteractionScore>
-0.991168 

> <ConfScore>
-0.0198169 

> <ConfScorePBest>
0.00280687 

> <ConfTolerance>
0.424768 

$$$$
c13.sdf
 OpenBabel04162418043D

 44 47  0  0  0  0  0  0  0  0999 V2000
    2.6661    1.7239   -4.4596 N   0  0  0  1  0  0  0  0  0  0  0  0
    2.8908    1.2670   -3.2393 C   0  0  0  1  0  0  0  0  0  0  0  0
    2.0222    0.5226   -2.5941 N   0  0  0  1  0  0  0  0  0  0  0  0
    0.8587    0.1964   -3.1629 C   0  0  0  1  0  0  0  0  0  0  0  0
    0.5852    0.6665   -4.4650 C   0  0  0  1  0  0  0  0  0  0  0  0
    1.5427    1.4517   -5.1004 C   0  0  0  1  0  0  0  0  0  0  0  0
   -0.2615   -0.5629   -2.7596 C   0  0  0  1  0  0  0  0  0  0  0  0
   -1.1387   -0.5589   -3.7228 N   0  0  0  1  0  0  0  0  0  0  0  0
   -0.6545    0.1927   -4.8015 N   0  0  0  1  0  0  0  0  0  0  0  0
   -1.4298    0.3521   -5.9854 C   0  0  0  1  0  0  0  0  0  0  0  0
   -1.8076    1.6155   -6.3990 C   0  0  0  1  0  0  0  0  0  0  0  0
   -2.5577    1.7710   -7.5542 C   0  0  0  1  0  0  0  0  0  0  0  0
   -2.9323    0.6623   -8.2896 C   0  0  0  1  0  0  0  0  0  0  0  0
   -2.5532   -0.6048   -7.8747 C   0  0  0  1  0  0  0  0  0  0  0  0
   -1.8053   -0.7600   -6.7228 C   0  0  0  1  0  0  0  0  0  0  0  0
   -3.6624    0.6893   -9.4215 O   0  0  0  1  0  0  0  0  0  0  0  0
   -4.1311    1.9996   -9.8166 C   0  0  0  1  0  0  0  0  0  0  0  0
    4.0521    1.5756   -2.6347 N   0  0  0  1  0  0  0  0  0  0  0  0
    4.4485    1.0668   -1.3176 C   0  0  0  1  0  0  0  0  0  0  0  0
    5.3131   -0.1864   -1.4734 C   0  0  0  1  0  0  0  0  0  0  0  0
    6.4429   -0.0382   -0.4515 C   0  0  0  1  0  0  0  0  0  0  0  0
    6.7016    1.4683   -0.4765 C   0  0  0  1  0  0  0  0  0  0  0  0
    5.3113    2.1036   -0.5870 C   0  0  0  1  0  0  0  0  0  0  0  0
    6.0103   -0.4915    0.9042 N   0  0  0  1  0  0  0  0  0  0  0  0
    1.3775    1.8168   -6.0601 H   0  0  0  1  0  0  0  0  0  0  0  0
   -0.3685   -1.0457   -1.8447 H   0  0  0  1  0  0  0  0  0  0  0  0
   -1.5292    2.4495   -5.8435 H   0  0  0  1  0  0  0  0  0  0  0  0
   -2.8387    2.7220   -7.8677 H   0  0  0  1  0  0  0  0  0  0  0  0
   -2.8316   -1.4388   -8.4301 H   0  0  0  1  0  0  0  0  0  0  0  0
   -1.5243   -1.7110   -6.4093 H   0  0  0  1  0  0  0  0  0  0  0  0
   -4.3249    2.0073  -10.8689 H   0  0  0  1  0  0  0  0  0  0  0  0
   -3.3835    2.7298   -9.5866 H   0  0  0  1  0  0  0  0  0  0  0  0
   -5.0313    2.2309   -9.2866 H   0  0  0  1  0  0  0  0  0  0  0  0
    4.6699    2.1758   -3.1021 H   0  0  0  1  0  0  0  0  0  0  0  0
    3.5740    0.8432   -0.7431 H   0  0  0  1  0  0  0  0  0  0  0  0
    4.7374   -1.0648   -1.2686 H   0  0  0  1  0  0  0  0  0  0  0  0
    5.7118   -0.2438   -2.4648 H   0  0  0  1  0  0  0  0  0  0  0  0
    7.3117   -0.5864   -0.7510 H   0  0  0  1  0  0  0  0  0  0  0  0
    7.3048    1.7329   -1.3197 H   0  0  0  1  0  0  0  0  0  0  0  0
    7.1885    1.7818    0.4233 H   0  0  0  1  0  0  0  0  0  0  0  0
    5.3588    3.0135   -1.1481 H   0  0  0  1  0  0  0  0  0  0  0  0
    4.9127    2.3041    0.3855 H   0  0  0  1  0  0  0  0  0  0  0  0
    6.7781   -0.4811    1.5131 H   0  0  0  1  0  0  0  0  0  0  0  0
    5.6527   -1.4020    0.8453 H   0  0  0  1  0  0  0  0  0  0  0  0
  1  2  4  0  0  0  0
  1  6  4  0  0  0  0
  2  3  4  0  0  0  0
  2 18  1  0  0  0  0
  3  4  4  0  0  0  0
  4  5  4  0  0  0  0
  4  7  4  0  0  0  0
  5  6  4  0  0  0  0
  5  9  4  0  0  0  0
  6 25  1  0  0  0  0
  7  8  4  0  0  0  0
  7 26  1  0  0  0  0
  8  9  4  0  0  0  0
  9 10  1  0  0  0  0
 10 11  4  0  0  0  0
 10 15  4  0  0  0  0
 11 12  4  0  0  0  0
 11 27  1  0  0  0  0
 12 13  4  0  0  0  0
 12 28  1  0  0  0  0
 13 14  4  0  0  0  0
 13 16  1  0  0  0  0
 14 15  4  0  0  0  0
 14 29  1  0  0  0  0
 15 30  1  0  0  0  0
 16 17  1  0  0  0  0
 17 31  1  0  0  0  0
 17 32  1  0  0  0  0
 17 33  1  0  0  0  0
 18 19  1  0  0  0  0
 18 34  1  0  0  0  0
 19 20  1  0  0  0  0
 19 23  1  0  0  0  0
 19 35  1  0  0  0  0
 20 21  1  0  0  0  0
 20 36  1  0  0  0  0
 20 37  1  0  0  0  0
 21 22  1  0  0  0  0
 21 24  1  0  0  0  0
 21 38  1  0  0  0  0
 22 23  1  0  0  0  0
 22 39  1  0  0  0  0
 22 40  1  0  0  0  0
 23 41  1  0  0  0  0
 23 42  1  0  0  0  0
 24 43  1  0  0  0  0
 24 44  1  0  0  0  0
M  END
> <ConfClashScore>
0 

> <ConfOneFourInteractionScore>
-0.984337 

> <ConfScore>
-0.0194706 

> <ConfScorePBest>
0.00279354 

> <ConfTolerance>
0.415858 

$$$$
c13.sdf
 OpenBabel04162418043D

 44 47  0  0  0  0  0  0  0  0999 V2000
    1.5215    1.7850   -3.3472 N   0  0  0  1  0  0  0  0  0  0  0  0
    2.2029    1.2805   -2.3326 C   0  0  0  1  0  0  0  0  0  0  0  0
    1.6212    0.6621   -1.3305 N   0  0  0  1  0  0  0  0  0  0  0  0
    0.2936    0.5202   -1.3041 C   0  0  0  1  0  0  0  0  0  0  0  0
   -0.4658    1.0464   -2.3708 C   0  0  0  1  0  0  0  0  0  0  0  0
    0.2044    1.6918   -3.4058 C   0  0  0  1  0  0  0  0  0  0  0  0
   -0.6207   -0.0719   -0.4055 C   0  0  0  1  0  0  0  0  0  0  0  0
   -1.8264    0.0770   -0.8763 N   0  0  0  1  0  0  0  0  0  0  0  0
   -1.7773    0.7661   -2.0952 N   0  0  0  1  0  0  0  0  0  0  0  0
   -2.9771    1.0313   -2.7720 C   0  0  0  1  0  0  0  0  0  0  0  0
   -3.9002    1.7832   -2.0701 C   0  0  0  1  0  0  0  0  0  0  0  0
   -5.1167    2.1057   -2.6511 C   0  0  0  1  0  0  0  0  0  0  0  0
   -5.4087    1.6710   -3.9302 C   0  0  0  1  0  0  0  0  0  0  0  0
   -4.4826    0.9169   -4.6340 C   0  0  0  1  0  0  0  0  0  0  0  0
   -3.2697    0.5952   -4.0548 C   0  0  0  1  0  0  0  0  0  0  0  0
   -6.6462    1.8494   -4.4984 O   0  0  0  1  0  0  0  0  0  0  0  0
   -7.5254    2.6609   -3.6854 C   0  0  0  1  0  0  0  0  0  0  0  0
    3.5424    1.4045   -2.3251 N   0  0  0  1  0  0  0  0  0  0  0  0
    4.3887    1.0806   -1.1681 C   0  0  0  1  0  0  0  0  0  0  0  0
    5.2836   -0.1250   -1.4557 C   0  0  0  1  0  0  0  0  0  0  0  0
    6.4423   -0.0002   -0.4602 C   0  0  0  1  0  0  0  0  0  0  0  0
    6.5807    1.5026   -0.1853 C   0  0  0  1  0  0  0  0  0  0  0  0
    5.4144    2.1854   -0.9037 C   0  0  0  1  0  0  0  0  0  0  0  0
    6.1315   -0.7303    0.7920 N   0  0  0  1  0  0  0  0  0  0  0  0
   -0.3205    2.0926   -4.2091 H   0  0  0  1  0  0  0  0  0  0  0  0
   -0.3726   -0.5482    0.4851 H   0  0  0  1  0  0  0  0  0  0  0  0
   -3.6822    2.1069   -1.1061 H   0  0  0  1  0  0  0  0  0  0  0  0
   -5.8098    2.6749   -2.1245 H   0  0  0  1  0  0  0  0  0  0  0  0
   -4.7006    0.5931   -5.5980 H   0  0  0  1  0  0  0  0  0  0  0  0
   -2.5766    0.0260   -4.5814 H   0  0  0  1  0  0  0  0  0  0  0  0
   -8.4056    2.9032   -4.2435 H   0  0  0  1  0  0  0  0  0  0  0  0
   -7.0213    3.5623   -3.4057 H   0  0  0  1  0  0  0  0  0  0  0  0
   -7.7998    2.1174   -2.8054 H   0  0  0  1  0  0  0  0  0  0  0  0
    3.9797    1.7302   -3.1394 H   0  0  0  1  0  0  0  0  0  0  0  0
    3.7716    0.9104   -0.3107 H   0  0  0  1  0  0  0  0  0  0  0  0
    5.6464   -0.0933   -2.4618 H   0  0  0  1  0  0  0  0  0  0  0  0
    4.7481   -1.0378   -1.2977 H   0  0  0  1  0  0  0  0  0  0  0  0
    7.3445   -0.3878   -0.8852 H   0  0  0  1  0  0  0  0  0  0  0  0
    7.5125    1.8638   -0.5676 H   0  0  0  1  0  0  0  0  0  0  0  0
    6.5286    1.6921    0.8665 H   0  0  0  1  0  0  0  0  0  0  0  0
    5.7449    2.6163   -1.8257 H   0  0  0  1  0  0  0  0  0  0  0  0
    4.9902    2.9482   -0.2848 H   0  0  0  1  0  0  0  0  0  0  0  0
    6.9435   -0.8089    1.3350 H   0  0  0  1  0  0  0  0  0  0  0  0
    5.7968   -1.6251    0.5737 H   0  0  0  1  0  0  0  0  0  0  0  0
  1  2  4  0  0  0  0
  1  6  4  0  0  0  0
  2  3  4  0  0  0  0
  2 18  1  0  0  0  0
  3  4  4  0  0  0  0
  4  5  4  0  0  0  0
  4  7  4  0  0  0  0
  5  6  4  0  0  0  0
  5  9  4  0  0  0  0
  6 25  1  0  0  0  0
  7  8  4  0  0  0  0
  7 26  1  0  0  0  0
  8  9  4  0  0  0  0
  9 10  1  0  0  0  0
 10 11  4  0  0  0  0
 10 15  4  0  0  0  0
 11 12  4  0  0  0  0
 11 27  1  0  0  0  0
 12 13  4  0  0  0  0
 12 28  1  0  0  0  0
 13 14  4  0  0  0  0
 13 16  1  0  0  0  0
 14 15  4  0  0  0  0
 14 29  1  0  0  0  0
 15 30  1  0  0  0  0
 16 17  1  0  0  0  0
 17 31  1  0  0  0  0
 17 32  1  0  0  0  0
 17 33  1  0  0  0  0
 18 19  1  0  0  0  0
 18 34  1  0  0  0  0
 19 20  1  0  0  0  0
 19 23  1  0  0  0  0
 19 35  1  0  0  0  0
 20 21  1  0  0  0  0
 20 36  1  0  0  0  0
 20 37  1  0  0  0  0
 21 22  1  0  0  0  0
 21 24  1  0  0  0  0
 21 38  1  0  0  0  0
 22 23  1  0  0  0  0
 22 39  1  0  0  0  0
 22 40  1  0  0  0  0
 23 41  1  0  0  0  0
 23 42  1  0  0  0  0
 24 43  1  0  0  0  0
 24 44  1  0  0  0  0
M  END
> <ConfClashScore>
0 

> <ConfOneFourInteractionScore>
-0.984337 

> <ConfScore>
-0.0187694 

> <ConfScorePBest>
0.00278021 

> <ConfTolerance>
0.48104 

$$$$
c13.sdf
 OpenBabel04162418043D

 44 47  0  0  0  0  0  0  0  0999 V2000
    4.3381    0.8315   -5.2099 N   0  0  0  1  0  0  0  0  0  0  0  0
    4.1153    0.6046   -3.9264 C   0  0  0  1  0  0  0  0  0  0  0  0
    3.2870   -0.3249   -3.5082 N   0  0  0  1  0  0  0  0  0  0  0  0
    2.6290   -1.0871   -4.3856 C   0  0  0  1  0  0  0  0  0  0  0  0
    2.8425   -0.8727   -5.7639 C   0  0  0  1  0  0  0  0  0  0  0  0
    3.7317    0.1264   -6.1488 C   0  0  0  1  0  0  0  0  0  0  0  0
    1.6959   -2.1413   -4.2763 C   0  0  0  1  0  0  0  0  0  0  0  0
    1.3682   -2.5360   -5.4739 N   0  0  0  1  0  0  0  0  0  0  0  0
    2.0565   -1.7756   -6.4283 N   0  0  0  1  0  0  0  0  0  0  0  0
    1.9086   -1.9705   -7.8165 C   0  0  0  1  0  0  0  0  0  0  0  0
    2.9773   -2.2710   -8.6398 C   0  0  0  1  0  0  0  0  0  0  0  0
    2.7743   -2.4579   -9.9982 C   0  0  0  1  0  0  0  0  0  0  0  0
    1.5043   -2.3385  -10.5303 C   0  0  0  1  0  0  0  0  0  0  0  0
    0.4326   -2.0370   -9.7044 C   0  0  0  1  0  0  0  0  0  0  0  0
    0.6348   -1.8507   -8.3499 C   0  0  0  1  0  0  0  0  0  0  0  0
    1.3080   -2.5150  -11.8514 O   0  0  0  1  0  0  0  0  0  0  0  0
   -0.0113   -2.1603  -12.3269 C   0  0  0  1  0  0  0  0  0  0  0  0
    4.7695    1.3637   -3.0008 N   0  0  0  1  0  0  0  0  0  0  0  0
    4.5190    1.2123   -1.5645 C   0  0  0  1  0  0  0  0  0  0  0  0
    4.9405   -0.1828   -1.0905 C   0  0  0  1  0  0  0  0  0  0  0  0
    6.3968   -0.0245   -0.6532 C   0  0  0  1  0  0  0  0  0  0  0  0
    6.3781    1.3429    0.0344 C   0  0  0  1  0  0  0  0  0  0  0  0
    5.3849    2.1920   -0.7623 C   0  0  0  1  0  0  0  0  0  0  0  0
    6.7915   -1.0877    0.2837 N   0  0  0  1  0  0  0  0  0  0  0  0
    3.9152    0.3143   -7.1551 H   0  0  0  1  0  0  0  0  0  0  0  0
    1.3305   -2.5372   -3.3867 H   0  0  0  1  0  0  0  0  0  0  0  0
    3.9336   -2.3569   -8.2402 H   0  0  0  1  0  0  0  0  0  0  0  0
    3.5778   -2.6880  -10.6172 H   0  0  0  1  0  0  0  0  0  0  0  0
   -0.5238   -1.9511  -10.1040 H   0  0  0  1  0  0  0  0  0  0  0  0
   -0.1687   -1.6206   -7.7309 H   0  0  0  1  0  0  0  0  0  0  0  0
   -0.4172   -1.3860  -11.7099 H   0  0  0  1  0  0  0  0  0  0  0  0
   -0.6479   -3.0193  -12.2858 H   0  0  0  1  0  0  0  0  0  0  0  0
    0.0553   -1.8131  -13.3369 H   0  0  0  1  0  0  0  0  0  0  0  0
    5.4239    2.0272   -3.3040 H   0  0  0  1  0  0  0  0  0  0  0  0
    3.4813    1.3785   -1.3635 H   0  0  0  1  0  0  0  0  0  0  0  0
    4.8618   -0.8914   -1.8884 H   0  0  0  1  0  0  0  0  0  0  0  0
    4.3331   -0.5010   -0.2691 H   0  0  0  1  0  0  0  0  0  0  0  0
    7.0574   -0.0268   -1.4949 H   0  0  0  1  0  0  0  0  0  0  0  0
    7.3517    1.7862    0.0100 H   0  0  0  1  0  0  0  0  0  0  0  0
    6.0554    1.2456    1.0499 H   0  0  0  1  0  0  0  0  0  0  0  0
    4.7738    2.7665   -0.0979 H   0  0  0  1  0  0  0  0  0  0  0  0
    5.9087    2.8495   -1.4243 H   0  0  0  1  0  0  0  0  0  0  0  0
    6.1339   -1.1461    1.0079 H   0  0  0  1  0  0  0  0  0  0  0  0
    7.6730   -0.8814    0.6589 H   0  0  0  1  0  0  0  0  0  0  0  0
  1  2  4  0  0  0  0
  1  6  4  0  0  0  0
  2  3  4  0  0  0  0
  2 18  1  0  0  0  0
  3  4  4  0  0  0  0
  4  5  4  0  0  0  0
  4  7  4  0  0  0  0
  5  6  4  0  0  0  0
  5  9  4  0  0  0  0
  6 25  1  0  0  0  0
  7  8  4  0  0  0  0
  7 26  1  0  0  0  0
  8  9  4  0  0  0  0
  9 10  1  0  0  0  0
 10 11  4  0  0  0  0
 10 15  4  0  0  0  0
 11 12  4  0  0  0  0
 11 27  1  0  0  0  0
 12 13  4  0  0  0  0
 12 28  1  0  0  0  0
 13 14  4  0  0  0  0
 13 16  1  0  0  0  0
 14 15  4  0  0  0  0
 14 29  1  0  0  0  0
 15 30  1  0  0  0  0
 16 17  1  0  0  0  0
 17 31  1  0  0  0  0
 17 32  1  0  0  0  0
 17 33  1  0  0  0  0
 18 19  1  0  0  0  0
 18 34  1  0  0  0  0
 19 20  1  0  0  0  0
 19 23  1  0  0  0  0
 19 35  1  0  0  0  0
 20 21  1  0  0  0  0
 20 36  1  0  0  0  0
 20 37  1  0  0  0  0
 21 22  1  0  0  0  0
 21 24  1  0  0  0  0
 21 38  1  0  0  0  0
 22 23  1  0  0  0  0
 22 39  1  0  0  0  0
 22 40  1  0  0  0  0
 23 41  1  0  0  0  0
 23 42  1  0  0  0  0
 24 43  1  0  0  0  0
 24 44  1  0  0  0  0
M  END
> <ConfClashScore>
0 

> <ConfOneFourInteractionScore>
-0.981848 

> <ConfScore>
-0.0177409 

> <ConfScorePBest>
0.00276689 

> <ConfTolerance>
0.317505 

$$$$
c13.sdf
 OpenBabel04162418043D

 44 47  0  0  0  0  0  0  0  0999 V2000
    2.7810   -0.6301   -2.5252 N   0  0  0  1  0  0  0  0  0  0  0  0
    2.9239    0.5747   -3.0509 C   0  0  0  1  0  0  0  0  0  0  0  0
    2.2829    0.9523   -4.1334 N   0  0  0  1  0  0  0  0  0  0  0  0
    1.4481    0.1124   -4.7509 C   0  0  0  1  0  0  0  0  0  0  0  0
    1.2710   -1.1820   -4.2175 C   0  0  0  1  0  0  0  0  0  0  0  0
    1.9763   -1.5269   -3.0683 C   0  0  0  1  0  0  0  0  0  0  0  0
    0.6286    0.1967   -5.8978 C   0  0  0  1  0  0  0  0  0  0  0  0
    0.0079   -0.9381   -6.0531 N   0  0  0  1  0  0  0  0  0  0  0  0
    0.3771   -1.8237   -5.0321 N   0  0  0  1  0  0  0  0  0  0  0  0
   -0.2449   -3.0903   -4.9343 C   0  0  0  1  0  0  0  0  0  0  0  0
   -1.5253   -3.2709   -5.4223 C   0  0  0  1  0  0  0  0  0  0  0  0
   -2.1327   -4.5135   -5.3312 C   0  0  0  1  0  0  0  0  0  0  0  0
   -1.4601   -5.5706   -4.7477 C   0  0  0  1  0  0  0  0  0  0  0  0
   -0.1759   -5.3893   -4.2582 C   0  0  0  1  0  0  0  0  0  0  0  0
    0.4299   -4.1503   -4.3490 C   0  0  0  1  0  0  0  0  0  0  0  0
   -2.1550   -6.7323   -4.7104 O   0  0  0  1  0  0  0  0  0  0  0  0
   -1.4575   -7.8996   -4.2485 C   0  0  0  1  0  0  0  0  0  0  0  0
    3.7567    1.4476   -2.4558 N   0  0  0  1  0  0  0  0  0  0  0  0
    4.4282    1.1938   -1.1930 C   0  0  0  1  0  0  0  0  0  0  0  0
    5.1407   -0.1602   -1.2301 C   0  0  0  1  0  0  0  0  0  0  0  0
    6.5061    0.0473   -0.5624 C   0  0  0  1  0  0  0  0  0  0  0  0
    6.4801    1.4820   -0.0241 C   0  0  0  1  0  0  0  0  0  0  0  0
    5.5271    2.2323   -0.9547 C   0  0  0  1  0  0  0  0  0  0  0  0
    6.6954   -0.9266    0.5541 N   0  0  0  1  0  0  0  0  0  0  0  0
    1.8723   -2.4714   -2.6455 H   0  0  0  1  0  0  0  0  0  0  0  0
    0.5359    1.0276   -6.5164 H   0  0  0  1  0  0  0  0  0  0  0  0
   -2.0330   -2.4745   -5.8578 H   0  0  0  1  0  0  0  0  0  0  0  0
   -3.0946   -4.6505   -5.7021 H   0  0  0  1  0  0  0  0  0  0  0  0
    0.3318   -6.1857   -3.8227 H   0  0  0  1  0  0  0  0  0  0  0  0
    1.3918   -4.0133   -3.9781 H   0  0  0  1  0  0  0  0  0  0  0  0
   -2.1568   -8.5882   -3.8221 H   0  0  0  1  0  0  0  0  0  0  0  0
   -0.7396   -7.6160   -3.5076 H   0  0  0  1  0  0  0  0  0  0  0  0
   -0.9565   -8.3645   -5.0718 H   0  0  0  1  0  0  0  0  0  0  0  0
    3.9200    2.3054   -2.9006 H   0  0  0  1  0  0  0  0  0  0  0  0
    3.7133    1.2176   -0.3973 H   0  0  0  1  0  0  0  0  0  0  0  0
    5.2696   -0.4823   -2.2423 H   0  0  0  1  0  0  0  0  0  0  0  0
    4.5737   -0.8909   -0.6922 H   0  0  0  1  0  0  0  0  0  0  0  0
    7.2940   -0.0705   -1.2766 H   0  0  0  1  0  0  0  0  0  0  0  0
    6.1162    1.5003    0.9820 H   0  0  0  1  0  0  0  0  0  0  0  0
    7.4581    1.9148   -0.0581 H   0  0  0  1  0  0  0  0  0  0  0  0
    6.0109    2.5027   -1.8700 H   0  0  0  1  0  0  0  0  0  0  0  0
    5.1361    3.1103   -0.4844 H   0  0  0  1  0  0  0  0  0  0  0  0
    6.7843   -1.8311    0.1876 H   0  0  0  1  0  0  0  0  0  0  0  0
    5.9202   -0.8916    1.1527 H   0  0  0  1  0  0  0  0  0  0  0  0
  1  2  4  0  0  0  0
  1  6  4  0  0  0  0
  2  3  4  0  0  0  0
  2 18  1  0  0  0  0
  3  4  4  0  0  0  0
  4  5  4  0  0  0  0
  4  7  4  0  0  0  0
  5  6  4  0  0  0  0
  5  9  4  0  0  0  0
  6 25  1  0  0  0  0
  7  8  4  0  0  0  0
  7 26  1  0  0  0  0
  8  9  4  0  0  0  0
  9 10  1  0  0  0  0
 10 11  4  0  0  0  0
 10 15  4  0  0  0  0
 11 12  4  0  0  0  0
 11 27  1  0  0  0  0
 12 13  4  0  0  0  0
 12 28  1  0  0  0  0
 13 14  4  0  0  0  0
 13 16  1  0  0  0  0
 14 15  4  0  0  0  0
 14 29  1  0  0  0  0
 15 30  1  0  0  0  0
 16 17  1  0  0  0  0
 17 31  1  0  0  0  0
 17 32  1  0  0  0  0
 17 33  1  0  0  0  0
 18 19  1  0  0  0  0
 18 34  1  0  0  0  0
 19 20  1  0  0  0  0
 19 23  1  0  0  0  0
 19 35  1  0  0  0  0
 20 21  1  0  0  0  0
 20 36  1  0  0  0  0
 20 37  1  0  0  0  0
 21 22  1  0  0  0  0
 21 24  1  0  0  0  0
 21 38  1  0  0  0  0
 22 23  1  0  0  0  0
 22 39  1  0  0  0  0
 22 40  1  0  0  0  0
 23 41  1  0  0  0  0
 23 42  1  0  0  0  0
 24 43  1  0  0  0  0
 24 44  1  0  0  0  0
M  END
> <ConfClashScore>
0 

> <ConfOneFourInteractionScore>
-0.985399 

> <ConfScore>
-0.0160863 

> <ConfScorePBest>
0.00275356 

> <ConfTolerance>
0.295062 

$$$$
c13.sdf
 OpenBabel04162418043D

 44 47  0  0  0  0  0  0  0  0999 V2000
    2.0321    1.4080   -4.1146 N   0  0  0  1  0  0  0  0  0  0  0  0
    2.5199    1.1927   -2.9046 C   0  0  0  1  0  0  0  0  0  0  0  0
    1.7719    0.7844   -1.9052 N   0  0  0  1  0  0  0  0  0  0  0  0
    0.4660    0.5691   -2.0836 C   0  0  0  1  0  0  0  0  0  0  0  0
   -0.0889    0.7887   -3.3623 C   0  0  0  1  0  0  0  0  0  0  0  0
    0.7517    1.2213   -4.3837 C   0  0  0  1  0  0  0  0  0  0  0  0
   -0.5896    0.1417   -1.2486 C   0  0  0  1  0  0  0  0  0  0  0  0
   -1.6876    0.1029   -1.9488 N   0  0  0  1  0  0  0  0  0  0  0  0
   -1.4232    0.4968   -3.2670 N   0  0  0  1  0  0  0  0  0  0  0  0
   -2.4089    0.3556   -4.2840 C   0  0  0  1  0  0  0  0  0  0  0  0
   -2.6881   -0.8929   -4.8069 C   0  0  0  1  0  0  0  0  0  0  0  0
   -3.6519   -1.0312   -5.7936 C   0  0  0  1  0  0  0  0  0  0  0  0
   -4.3299    0.0800   -6.2582 C   0  0  0  1  0  0  0  0  0  0  0  0
   -4.0497    1.3322   -5.7336 C   0  0  0  1  0  0  0  0  0  0  0  0
   -3.0887    1.4702   -4.7498 C   0  0  0  1  0  0  0  0  0  0  0  0
   -5.2796    0.0694   -7.2136 O   0  0  0  1  0  0  0  0  0  0  0  0
   -5.4708   -1.2041   -7.8725 C   0  0  0  1  0  0  0  0  0  0  0  0
    3.8265    1.3812   -2.6216 N   0  0  0  1  0  0  0  0  0  0  0  0
    4.4043    1.1949   -1.3020 C   0  0  0  1  0  0  0  0  0  0  0  0
    5.0688   -0.1800   -1.1995 C   0  0  0  1  0  0  0  0  0  0  0  0
    6.3940    0.0305   -0.4562 C   0  0  0  1  0  0  0  0  0  0  0  0
    6.3843    1.4993   -0.0186 C   0  0  0  1  0  0  0  0  0  0  0  0
    5.5218    2.2125   -1.0600 C   0  0  0  1  0  0  0  0  0  0  0  0
    6.4743   -0.8639    0.7269 N   0  0  0  1  0  0  0  0  0  0  0  0
    0.3798    1.3940   -5.3394 H   0  0  0  1  0  0  0  0  0  0  0  0
   -0.5046   -0.1018   -0.2411 H   0  0  0  1  0  0  0  0  0  0  0  0
   -2.1752   -1.7286   -4.4602 H   0  0  0  1  0  0  0  0  0  0  0  0
   -3.8649   -1.9712   -6.1842 H   0  0  0  1  0  0  0  0  0  0  0  0
   -4.5626    2.1678   -6.0803 H   0  0  0  1  0  0  0  0  0  0  0  0
   -2.8757    2.4102   -4.3591 H   0  0  0  1  0  0  0  0  0  0  0  0
   -6.3423   -1.6832   -7.4778 H   0  0  0  1  0  0  0  0  0  0  0  0
   -4.6156   -1.8247   -7.7038 H   0  0  0  1  0  0  0  0  0  0  0  0
   -5.5959   -1.0465   -8.9234 H   0  0  0  1  0  0  0  0  0  0  0  0
    4.4203    1.6602   -3.3496 H   0  0  0  1  0  0  0  0  0  0  0  0
    3.6402    1.2963   -0.5599 H   0  0  0  1  0  0  0  0  0  0  0  0
    4.4419   -0.8535   -0.6534 H   0  0  0  1  0  0  0  0  0  0  0  0
    5.2521   -0.5755   -2.1767 H   0  0  0  1  0  0  0  0  0  0  0  0
    7.2223   -0.1612   -1.1058 H   0  0  0  1  0  0  0  0  0  0  0  0
    7.3773    1.8978   -0.0152 H   0  0  0  1  0  0  0  0  0  0  0  0
    5.9561    1.5988    0.9570 H   0  0  0  1  0  0  0  0  0  0  0  0
    5.1326    3.1329   -0.6774 H   0  0  0  1  0  0  0  0  0  0  0  0
    6.0739    2.4034   -1.9565 H   0  0  0  1  0  0  0  0  0  0  0  0
    7.3815   -0.8368    1.0965 H   0  0  0  1  0  0  0  0  0  0  0  0
    6.2587   -1.7813    0.4578 H   0  0  0  1  0  0  0  0  0  0  0  0
  1  2  4  0  0  0  0
  1  6  4  0  0  0  0
  2  3  4  0  0  0  0
  2 18  1  0  0  0  0
  3  4  4  0  0  0  0
  4  5  4  0  0  0  0
  4  7  4  0  0  0  0
  5  6  4  0  0  0  0
  5  9  4  0  0  0  0
  6 25  1  0  0  0  0
  7  8  4  0  0  0  0
  7 26  1  0  0  0  0
  8  9  4  0  0  0  0
  9 10  1  0  0  0  0
 10 11  4  0  0  0  0
 10 15  4  0  0  0  0
 11 12  4  0  0  0  0
 11 27  1  0  0  0  0
 12 13  4  0  0  0  0
 12 28  1  0  0  0  0
 13 14  4  0  0  0  0
 13 16  1  0  0  0  0
 14 15  4  0  0  0  0
 14 29  1  0  0  0  0
 15 30  1  0  0  0  0
 16 17  1  0  0  0  0
 17 31  1  0  0  0  0
 17 32  1  0  0  0  0
 17 33  1  0  0  0  0
 18 19  1  0  0  0  0
 18 34  1  0  0  0  0
 19 20  1  0  0  0  0
 19 23  1  0  0  0  0
 19 35  1  0  0  0  0
 20 21  1  0  0  0  0
 20 36  1  0  0  0  0
 20 37  1  0  0  0  0
 21 22  1  0  0  0  0
 21 24  1  0  0  0  0
 21 38  1  0  0  0  0
 22 23  1  0  0  0  0
 22 39  1  0  0  0  0
 22 40  1  0  0  0  0
 23 41  1  0  0  0  0
 23 42  1  0  0  0  0
 24 43  1  0  0  0  0
 24 44  1  0  0  0  0
M  END
> <ConfClashScore>
0 

> <ConfOneFourInteractionScore>
-0.984337 

> <ConfScore>
-0.0159646 

> <ConfScorePBest>
0.00274023 

> <ConfTolerance>
0.500445 

$$$$
c13.sdf
 OpenBabel04162418043D

 44 47  0  0  0  0  0  0  0  0999 V2000
    2.9650    2.2807   -4.3096 N   0  0  0  1  0  0  0  0  0  0  0  0
    3.8935    1.9119   -3.4435 C   0  0  0  1  0  0  0  0  0  0  0  0
    5.1767    1.9711   -3.7175 N   0  0  0  1  0  0  0  0  0  0  0  0
    5.5932    2.4156   -4.9059 C   0  0  0  1  0  0  0  0  0  0  0  0
    4.6296    2.8179   -5.8551 C   0  0  0  1  0  0  0  0  0  0  0  0
    3.2841    2.7333   -5.5097 C   0  0  0  1  0  0  0  0  0  0  0  0
    6.8584    2.6012   -5.5050 C   0  0  0  1  0  0  0  0  0  0  0  0
    6.6871    3.0726   -6.7074 N   0  0  0  1  0  0  0  0  0  0  0  0
    5.3185    3.2228   -6.9669 N   0  0  0  1  0  0  0  0  0  0  0  0
    4.9104    3.7279   -8.2344 C   0  0  0  1  0  0  0  0  0  0  0  0
    5.1529    2.9951   -9.3808 C   0  0  0  1  0  0  0  0  0  0  0  0
    4.7509    3.4844  -10.6139 C   0  0  0  1  0  0  0  0  0  0  0  0
    4.1123    4.7073  -10.6976 C   0  0  0  1  0  0  0  0  0  0  0  0
    3.8691    5.4421   -9.5476 C   0  0  0  1  0  0  0  0  0  0  0  0
    4.2699    4.9544   -8.3180 C   0  0  0  1  0  0  0  0  0  0  0  0
    3.6799    5.2876  -11.8422 O   0  0  0  1  0  0  0  0  0  0  0  0
    3.7885    4.5179  -13.0498 C   0  0  0  1  0  0  0  0  0  0  0  0
    3.5110    1.4587   -2.2361 N   0  0  0  1  0  0  0  0  0  0  0  0
    4.3945    1.0476   -1.1402 C   0  0  0  1  0  0  0  0  0  0  0  0
    5.2705   -0.1369   -1.5485 C   0  0  0  1  0  0  0  0  0  0  0  0
    6.4651   -0.0907   -0.5894 C   0  0  0  1  0  0  0  0  0  0  0  0
    6.6232    1.3870   -0.2095 C   0  0  0  1  0  0  0  0  0  0  0  0
    5.4364    2.1257   -0.8324 C   0  0  0  1  0  0  0  0  0  0  0  0
    6.1916   -0.9204    0.6306 N   0  0  0  1  0  0  0  0  0  0  0  0
    2.5447    3.0204   -6.1823 H   0  0  0  1  0  0  0  0  0  0  0  0
    7.7756    2.3955   -5.0599 H   0  0  0  1  0  0  0  0  0  0  0  0
    5.6371    2.0768   -9.3184 H   0  0  0  1  0  0  0  0  0  0  0  0
    4.9298    2.9312  -11.4762 H   0  0  0  1  0  0  0  0  0  0  0  0
    3.3849    6.3604   -9.6100 H   0  0  0  1  0  0  0  0  0  0  0  0
    4.0910    5.5076   -7.4557 H   0  0  0  1  0  0  0  0  0  0  0  0
    3.6077    5.1502  -13.8938 H   0  0  0  1  0  0  0  0  0  0  0  0
    3.0668    3.7281  -13.0351 H   0  0  0  1  0  0  0  0  0  0  0  0
    4.7718    4.1020  -13.1201 H   0  0  0  1  0  0  0  0  0  0  0  0
    2.5467    1.3973   -2.0727 H   0  0  0  1  0  0  0  0  0  0  0  0
    3.8076    0.8167   -0.2758 H   0  0  0  1  0  0  0  0  0  0  0  0
    4.7351   -1.0568   -1.4390 H   0  0  0  1  0  0  0  0  0  0  0  0
    5.5970   -0.0321   -2.5621 H   0  0  0  1  0  0  0  0  0  0  0  0
    7.3489   -0.4493   -1.0745 H   0  0  0  1  0  0  0  0  0  0  0  0
    7.5430    1.7719   -0.5978 H   0  0  0  1  0  0  0  0  0  0  0  0
    6.6104    1.4982    0.8547 H   0  0  0  1  0  0  0  0  0  0  0  0
    5.0397    2.8422   -0.1437 H   0  0  0  1  0  0  0  0  0  0  0  0
    5.7362    2.6224   -1.7314 H   0  0  0  1  0  0  0  0  0  0  0  0
    5.4902   -0.4938    1.1658 H   0  0  0  1  0  0  0  0  0  0  0  0
    7.0099   -0.9950    1.1647 H   0  0  0  1  0  0  0  0  0  0  0  0
  1  2  4  0  0  0  0
  1  6  4  0  0  0  0
  2  3  4  0  0  0  0
  2 18  1  0  0  0  0
  3  4  4  0  0  0  0
  4  5  4  0  0  0  0
  4  7  4  0  0  0  0
  5  6  4  0  0  0  0
  5  9  4  0  0  0  0
  6 25  1  0  0  0  0
  7  8  4  0  0  0  0
  7 26  1  0  0  0  0
  8  9  4  0  0  0  0
  9 10  1  0  0  0  0
 10 11  4  0  0  0  0
 10 15  4  0  0  0  0
 11 12  4  0  0  0  0
 11 27  1  0  0  0  0
 12 13  4  0  0  0  0
 12 28  1  0  0  0  0
 13 14  4  0  0  0  0
 13 16  1  0  0  0  0
 14 15  4  0  0  0  0
 14 29  1  0  0  0  0
 15 30  1  0  0  0  0
 16 17  1  0  0  0  0
 17 31  1  0  0  0  0
 17 32  1  0  0  0  0
 17 33  1  0  0  0  0
 18 19  1  0  0  0  0
 18 34  1  0  0  0  0
 19 20  1  0  0  0  0
 19 23  1  0  0  0  0
 19 35  1  0  0  0  0
 20 21  1  0  0  0  0
 20 36  1  0  0  0  0
 20 37  1  0  0  0  0
 21 22  1  0  0  0  0
 21 24  1  0  0  0  0
 21 38  1  0  0  0  0
 22 23  1  0  0  0  0
 22 39  1  0  0  0  0
 22 40  1  0  0  0  0
 23 41  1  0  0  0  0
 23 42  1  0  0  0  0
 24 43  1  0  0  0  0
 24 44  1  0  0  0  0
M  END
> <ConfClashScore>
0 

> <ConfOneFourInteractionScore>
-0.980204 

> <ConfScore>
-0.0150347 

> <ConfScorePBest>
0.0027269 

> <ConfTolerance>
0.251294 

$$$$
c13.sdf
 OpenBabel04162418043D

 44 47  0  0  0  0  0  0  0  0999 V2000
    4.7039    0.7798   -5.2216 N   0  0  0  1  0  0  0  0  0  0  0  0
    4.3724    0.5183   -3.9686 C   0  0  0  1  0  0  0  0  0  0  0  0
    3.6307   -0.5133   -3.6361 N   0  0  0  1  0  0  0  0  0  0  0  0
    3.1779   -1.3493   -4.5740 C   0  0  0  1  0  0  0  0  0  0  0  0
    3.5122   -1.1009   -5.9222 C   0  0  0  1  0  0  0  0  0  0  0  0
    4.3012    0.0074   -6.2156 C   0  0  0  1  0  0  0  0  0  0  0  0
    2.3831   -2.5164   -4.5590 C   0  0  0  1  0  0  0  0  0  0  0  0
    2.2433   -2.9433   -5.7819 N   0  0  0  1  0  0  0  0  0  0  0  0
    2.9280   -2.0944   -6.6613 N   0  0  0  1  0  0  0  0  0  0  0  0
    2.9607   -2.3003   -8.0672 C   0  0  0  1  0  0  0  0  0  0  0  0
    2.8382   -3.5768   -8.5826 C   0  0  0  1  0  0  0  0  0  0  0  0
    2.9577   -3.7874   -9.9474 C   0  0  0  1  0  0  0  0  0  0  0  0
    3.2046   -2.7218  -10.7923 C   0  0  0  1  0  0  0  0  0  0  0  0
    3.3275   -1.4415  -10.2752 C   0  0  0  1  0  0  0  0  0  0  0  0
    3.2084   -1.2314   -8.9143 C   0  0  0  1  0  0  0  0  0  0  0  0
    3.3265   -2.9284  -12.1251 O   0  0  0  1  0  0  0  0  0  0  0  0
    3.4234   -1.7662  -12.9631 C   0  0  0  1  0  0  0  0  0  0  0  0
    4.8105    1.3389   -2.9969 N   0  0  0  1  0  0  0  0  0  0  0  0
    4.5215    1.2259   -1.5727 C   0  0  0  1  0  0  0  0  0  0  0  0
    4.8711   -0.2101   -1.0654 C   0  0  0  1  0  0  0  0  0  0  0  0
    6.3775   -0.0288   -0.6446 C   0  0  0  1  0  0  0  0  0  0  0  0
    6.3619    1.3398    0.0224 C   0  0  0  1  0  0  0  0  0  0  0  0
    5.3948    2.2002   -0.7793 C   0  0  0  1  0  0  0  0  0  0  0  0
    6.8045   -1.0941    0.3138 N   0  0  0  1  0  0  0  0  0  0  0  0
    4.5685    0.2235   -7.1971 H   0  0  0  1  0  0  0  0  0  0  0  0
    1.9765   -2.9617   -3.7117 H   0  0  0  1  0  0  0  0  0  0  0  0
    2.6564   -4.3793   -7.9465 H   0  0  0  1  0  0  0  0  0  0  0  0
    2.8615   -4.7474  -10.3358 H   0  0  0  1  0  0  0  0  0  0  0  0
    3.5093   -0.6391  -10.9113 H   0  0  0  1  0  0  0  0  0  0  0  0
    3.3045   -0.2715   -8.5259 H   0  0  0  1  0  0  0  0  0  0  0  0
    4.0322   -1.0291  -12.4825 H   0  0  0  1  0  0  0  0  0  0  0  0
    2.4456   -1.3659  -13.1319 H   0  0  0  1  0  0  0  0  0  0  0  0
    3.8648   -2.0376  -13.8993 H   0  0  0  1  0  0  0  0  0  0  0  0
    5.3803    2.0865   -3.2739 H   0  0  0  1  0  0  0  0  0  0  0  0
    3.4864    1.4353   -1.4005 H   0  0  0  1  0  0  0  0  0  0  0  0
    4.7665   -0.9368   -1.8437 H   0  0  0  1  0  0  0  0  0  0  0  0
    4.2623   -0.4900   -0.2312 H   0  0  0  1  0  0  0  0  0  0  0  0
    7.0224   -0.0370   -1.4983 H   0  0  0  1  0  0  0  0  0  0  0  0
    7.3412    1.7705    0.0051 H   0  0  0  1  0  0  0  0  0  0  0  0
    6.0274    1.2536    1.0351 H   0  0  0  1  0  0  0  0  0  0  0  0
    5.9328    2.8430   -1.4443 H   0  0  0  1  0  0  0  0  0  0  0  0
    4.7906    2.7907   -0.1227 H   0  0  0  1  0  0  0  0  0  0  0  0
    6.2823   -1.0195    1.1398 H   0  0  0  1  0  0  0  0  0  0  0  0
    7.7567   -0.9861    0.5188 H   0  0  0  1  0  0  0  0  0  0  0  0
  1  2  4  0  0  0  0
  1  6  4  0  0  0  0
  2  3  4  0  0  0  0
  2 18  1  0  0  0  0
  3  4  4  0  0  0  0
  4  5  4  0  0  0  0
  4  7  4  0  0  0  0
  5  6  4  0  0  0  0
  5  9  4  0  0  0  0
  6 25  1  0  0  0  0
  7  8  4  0  0  0  0
  7 26  1  0  0  0  0
  8  9  4  0  0  0  0
  9 10  1  0  0  0  0
 10 11  4  0  0  0  0
 10 15  4  0  0  0  0
 11 12  4  0  0  0  0
 11 27  1  0  0  0  0
 12 13  4  0  0  0  0
 12 28  1  0  0  0  0
 13 14  4  0  0  0  0
 13 16  1  0  0  0  0
 14 15  4  0  0  0  0
 14 29  1  0  0  0  0
 15 30  1  0  0  0  0
 16 17  1  0  0  0  0
 17 31  1  0  0  0  0
 17 32  1  0  0  0  0
 17 33  1  0  0  0  0
 18 19  1  0  0  0  0
 18 34  1  0  0  0  0
 19 20  1  0  0  0  0
 19 23  1  0  0  0  0
 19 35  1  0  0  0  0
 20 21  1  0  0  0  0
 20 36  1  0  0  0  0
 20 37  1  0  0  0  0
 21 22  1  0  0  0  0
 21 24  1  0  0  0  0
 21 38  1  0  0  0  0
 22 23  1  0  0  0  0
 22 39  1  0  0  0  0
 22 40  1  0  0  0  0
 23 41  1  0  0  0  0
 23 42  1  0  0  0  0
 24 43  1  0  0  0  0
 24 44  1  0  0  0  0
M  END
> <ConfClashScore>
0 

> <ConfOneFourInteractionScore>
-0.985399 

> <ConfScore>
-0.0130838 

> <ConfScorePBest>
0.00271357 

> <ConfTolerance>
0.256512 

$$$$
c13.sdf
 OpenBabel04162418043D

 44 47  0  0  0  0  0  0  0  0999 V2000
    3.6647    3.6457   -2.3087 N   0  0  0  1  0  0  0  0  0  0  0  0
    3.6919    2.6852   -3.2170 C   0  0  0  1  0  0  0  0  0  0  0  0
    3.3877    2.8973   -4.4769 N   0  0  0  1  0  0  0  0  0  0  0  0
    3.0333    4.1170   -4.8895 C   0  0  0  1  0  0  0  0  0  0  0  0
    2.9934    5.1666   -3.9472 C   0  0  0  1  0  0  0  0  0  0  0  0
    3.3260    4.8832   -2.6258 C   0  0  0  1  0  0  0  0  0  0  0  0
    2.6568    4.6705   -6.1329 C   0  0  0  1  0  0  0  0  0  0  0  0
    2.4095    5.9391   -5.9687 N   0  0  0  1  0  0  0  0  0  0  0  0
    2.6058    6.2903   -4.6267 N   0  0  0  1  0  0  0  0  0  0  0  0
    2.2609    7.5893   -4.1608 C   0  0  0  1  0  0  0  0  0  0  0  0
    0.9783    7.8451   -3.7142 C   0  0  0  1  0  0  0  0  0  0  0  0
    0.6437    9.1096   -3.2552 C   0  0  0  1  0  0  0  0  0  0  0  0
    1.5912   10.1158   -3.2490 C   0  0  0  1  0  0  0  0  0  0  0  0
    2.8776    9.8590   -3.6970 C   0  0  0  1  0  0  0  0  0  0  0  0
    3.2114    8.5983   -4.1547 C   0  0  0  1  0  0  0  0  0  0  0  0
    1.2882   11.3170   -2.7196 O   0  0  0  1  0  0  0  0  0  0  0  0
    2.3333   12.3120   -2.8213 C   0  0  0  1  0  0  0  0  0  0  0  0
    4.0535    1.4495   -2.7859 N   0  0  0  1  0  0  0  0  0  0  0  0
    4.4409    1.2020   -1.3933 C   0  0  0  1  0  0  0  0  0  0  0  0
    5.0456   -0.1860   -1.2514 C   0  0  0  1  0  0  0  0  0  0  0  0
    6.4219   -0.0385   -0.5822 C   0  0  0  1  0  0  0  0  0  0  0  0
    6.3688    1.3564    0.0160 C   0  0  0  1  0  0  0  0  0  0  0  0
    5.5419    2.1889   -0.9602 C   0  0  0  1  0  0  0  0  0  0  0  0
    6.6124   -1.0624    0.4729 N   0  0  0  1  0  0  0  0  0  0  0  0
    3.3083    5.6302   -1.9024 H   0  0  0  1  0  0  0  0  0  0  0  0
    2.5882    4.1512   -7.0314 H   0  0  0  1  0  0  0  0  0  0  0  0
    0.2642    7.0891   -3.7225 H   0  0  0  1  0  0  0  0  0  0  0  0
   -0.3204    9.3011   -2.9153 H   0  0  0  1  0  0  0  0  0  0  0  0
    3.5917   10.6151   -3.6887 H   0  0  0  1  0  0  0  0  0  0  0  0
    4.1754    8.4067   -4.4945 H   0  0  0  1  0  0  0  0  0  0  0  0
    2.5712   12.4761   -3.8515 H   0  0  0  1  0  0  0  0  0  0  0  0
    3.2048   11.9676   -2.3047 H   0  0  0  1  0  0  0  0  0  0  0  0
    1.9970   13.2283   -2.3828 H   0  0  0  1  0  0  0  0  0  0  0  0
    4.0556    0.7038   -3.4218 H   0  0  0  1  0  0  0  0  0  0  0  0
    3.5834    1.3006   -0.7610 H   0  0  0  1  0  0  0  0  0  0  0  0
    4.4110   -0.7982   -0.6453 H   0  0  0  1  0  0  0  0  0  0  0  0
    5.1575   -0.6336   -2.2169 H   0  0  0  1  0  0  0  0  0  0  0  0
    7.2092   -0.1172   -1.3026 H   0  0  0  1  0  0  0  0  0  0  0  0
    5.8998    1.3330    0.9775 H   0  0  0  1  0  0  0  0  0  0  0  0
    7.3551    1.7606    0.1095 H   0  0  0  1  0  0  0  0  0  0  0  0
    5.1233    3.0472   -0.4775 H   0  0  0  1  0  0  0  0  0  0  0  0
    6.1313    2.5015   -1.7967 H   0  0  0  1  0  0  0  0  0  0  0  0
    5.9442   -0.9336    1.1781 H   0  0  0  1  0  0  0  0  0  0  0  0
    7.5108   -0.9747    0.8545 H   0  0  0  1  0  0  0  0  0  0  0  0
  1  2  4  0  0  0  0
  1  6  4  0  0  0  0
  2  3  4  0  0  0  0
  2 18  1  0  0  0  0
  3  4  4  0  0  0  0
  4  5  4  0  0  0  0
  4  7  4  0  0  0  0
  5  6  4  0  0  0  0
  5  9  4  0  0  0  0
  6 25  1  0  0  0  0
  7  8  4  0  0  0  0
  7 26  1  0  0  0  0
  8  9  4  0  0  0  0
  9 10  1  0  0  0  0
 10 11  4  0  0  0  0
 10 15  4  0  0  0  0
 11 12  4  0  0  0  0
 11 27  1  0  0  0  0
 12 13  4  0  0  0  0
 12 28  1  0  0  0  0
 13 14  4  0  0  0  0
 13 16  1  0  0  0  0
 14 15  4  0  0  0  0
 14 29  1  0  0  0  0
 15 30  1  0  0  0  0
 16 17  1  0  0  0  0
 17 31  1  0  0  0  0
 17 32  1  0  0  0  0
 17 33  1  0  0  0  0
 18 19  1  0  0  0  0
 18 34  1  0  0  0  0
 19 20  1  0  0  0  0
 19 23  1  0  0  0  0
 19 35  1  0  0  0  0
 20 21  1  0  0  0  0
 20 36  1  0  0  0  0
 20 37  1  0  0  0  0
 21 22  1  0  0  0  0
 21 24  1  0  0  0  0
 21 38  1  0  0  0  0
 22 23  1  0  0  0  0
 22 39  1  0  0  0  0
 22 40  1  0  0  0  0
 23 41  1  0  0  0  0
 23 42  1  0  0  0  0
 24 43  1  0  0  0  0
 24 44  1  0  0  0  0
M  END
> <ConfClashScore>
0 

> <ConfOneFourInteractionScore>
-0.991168 

> <ConfScore>
-0.0123006 

> <ConfScorePBest>
0.00270024 

> <ConfTolerance>
0.38886 

$$$$
c13.sdf
 OpenBabel04162418043D

 44 47  0  0  0  0  0  0  0  0999 V2000
    4.2779    1.9569   -5.0569 N   0  0  0  1  0  0  0  0  0  0  0  0
    4.1563    2.0982   -3.7478 C   0  0  0  1  0  0  0  0  0  0  0  0
    3.6233    3.1666   -3.2004 N   0  0  0  1  0  0  0  0  0  0  0  0
    3.1776    4.1661   -3.9658 C   0  0  0  1  0  0  0  0  0  0  0  0
    3.2912    4.0493   -5.3675 C   0  0  0  1  0  0  0  0  0  0  0  0
    3.8645    2.8945   -5.8916 C   0  0  0  1  0  0  0  0  0  0  0  0
    2.5705    5.4148   -3.7083 C   0  0  0  1  0  0  0  0  0  0  0  0
    2.3342    6.0075   -4.8441 N   0  0  0  1  0  0  0  0  0  0  0  0
    2.7657    5.1955   -5.9011 N   0  0  0  1  0  0  0  0  0  0  0  0
    2.5176    5.5339   -7.2397 C   0  0  0  1  0  0  0  0  0  0  0  0
    1.6849    4.6698   -7.9252 C   0  0  0  1  0  0  0  0  0  0  0  0
    1.3716    4.9167   -9.2528 C   0  0  0  1  0  0  0  0  0  0  0  0
    1.8962    6.0239   -9.8924 C   0  0  0  1  0  0  0  0  0  0  0  0
    2.7315    6.8904   -9.2047 C   0  0  0  1  0  0  0  0  0  0  0  0
    3.0439    6.6444   -7.8810 C   0  0  0  1  0  0  0  0  0  0  0  0
    1.6665    6.3640  -11.1829 O   0  0  0  1  0  0  0  0  0  0  0  0
    0.8948    5.4482  -11.9756 C   0  0  0  1  0  0  0  0  0  0  0  0
    4.5848    1.1285   -2.9086 N   0  0  0  1  0  0  0  0  0  0  0  0
    4.4837    1.2080   -1.4505 C   0  0  0  1  0  0  0  0  0  0  0  0
    4.8720   -0.1629   -0.8092 C   0  0  0  1  0  0  0  0  0  0  0  0
    6.4236    0.0184   -0.6127 C   0  0  0  1  0  0  0  0  0  0  0  0
    6.5200    1.4605   -0.1337 C   0  0  0  1  0  0  0  0  0  0  0  0
    5.4709    2.2447   -0.9101 C   0  0  0  1  0  0  0  0  0  0  0  0
    6.9546   -0.9303    0.4138 N   0  0  0  1  0  0  0  0  0  0  0  0
    3.9656    2.7718   -6.9194 H   0  0  0  1  0  0  0  0  0  0  0  0
    2.3486    5.7979   -2.7672 H   0  0  0  1  0  0  0  0  0  0  0  0
    1.2933    3.8344   -7.4452 H   0  0  0  1  0  0  0  0  0  0  0  0
    0.7418    4.2687   -9.7676 H   0  0  0  1  0  0  0  0  0  0  0  0
    3.1231    7.7258   -9.6847 H   0  0  0  1  0  0  0  0  0  0  0  0
    3.6737    7.2924   -7.3662 H   0  0  0  1  0  0  0  0  0  0  0  0
    0.3021    4.8313  -11.3329 H   0  0  0  1  0  0  0  0  0  0  0  0
    1.5537    4.8329  -12.5519 H   0  0  0  1  0  0  0  0  0  0  0  0
    0.2537    5.9980  -12.6324 H   0  0  0  1  0  0  0  0  0  0  0  0
    4.9869    0.3250   -3.2997 H   0  0  0  1  0  0  0  0  0  0  0  0
    3.4842    1.4731   -1.1757 H   0  0  0  1  0  0  0  0  0  0  0  0
    4.3736   -0.3133    0.1256 H   0  0  0  1  0  0  0  0  0  0  0  0
    4.6530   -0.9788   -1.4660 H   0  0  0  1  0  0  0  0  0  0  0  0
    6.9501   -0.1205   -1.5337 H   0  0  0  1  0  0  0  0  0  0  0  0
    7.4959    1.8516   -0.3328 H   0  0  0  1  0  0  0  0  0  0  0  0
    6.3205    1.5154    0.9161 H   0  0  0  1  0  0  0  0  0  0  0  0
    4.9689    2.9343   -0.2640 H   0  0  0  1  0  0  0  0  0  0  0  0
    5.9277    2.7788   -1.7169 H   0  0  0  1  0  0  0  0  0  0  0  0
    6.9138   -1.8455    0.0656 H   0  0  0  1  0  0  0  0  0  0  0  0
    6.4133   -0.8666    1.2283 H   0  0  0  1  0  0  0  0  0  0  0  0
  1  2  4  0  0  0  0
  1  6  4  0  0  0  0
  2  3  4  0  0  0  0
  2 18  1  0  0  0  0
  3  4  4  0  0  0  0
  4  5  4  0  0  0  0
  4  7  4  0  0  0  0
  5  6  4  0  0  0  0
  5  9  4  0  0  0  0
  6 25  1  0  0  0  0
  7  8  4  0  0  0  0
  7 26  1  0  0  0  0
  8  9  4  0  0  0  0
  9 10  1  0  0  0  0
 10 11  4  0  0  0  0
 10 15  4  0  0  0  0
 11 12  4  0  0  0  0
 11 27  1  0  0  0  0
 12 13  4  0  0  0  0
 12 28  1  0  0  0  0
 13 14  4  0  0  0  0
 13 16  1  0  0  0  0
 14 15  4  0  0  0  0
 14 29  1  0  0  0  0
 15 30  1  0  0  0  0
 16 17  1  0  0  0  0
 17 31  1  0  0  0  0
 17 32  1  0  0  0  0
 17 33  1  0  0  0  0
 18 19  1  0  0  0  0
 18 34  1  0  0  0  0
 19 20  1  0  0  0  0
 19 23  1  0  0  0  0
 19 35  1  0  0  0  0
 20 21  1  0  0  0  0
 20 36  1  0  0  0  0
 20 37  1  0  0  0  0
 21 22  1  0  0  0  0
 21 24  1  0  0  0  0
 21 38  1  0  0  0  0
 22 23  1  0  0  0  0
 22 39  1  0  0  0  0
 22 40  1  0  0  0  0
 23 41  1  0  0  0  0
 23 42  1  0  0  0  0
 24 43  1  0  0  0  0
 24 44  1  0  0  0  0
M  END
> <ConfClashScore>
0 

> <ConfOneFourInteractionScore>
-0.984337 

> <ConfScore>
-0.011753 

> <ConfScorePBest>
0.00268692 

> <ConfTolerance>
0.362496 

$$$$
c13.sdf
 OpenBabel04162418043D

 44 47  0  0  0  0  0  0  0  0999 V2000
    5.0264    2.3505   -5.0316 N   0  0  0  1  0  0  0  0  0  0  0  0
    4.8119    2.4110   -3.7283 C   0  0  0  1  0  0  0  0  0  0  0  0
    4.6496    3.5488   -3.0925 N   0  0  0  1  0  0  0  0  0  0  0  0
    4.6974    4.7061   -3.7571 C   0  0  0  1  0  0  0  0  0  0  0  0
    4.9245    4.6794   -5.1496 C   0  0  0  1  0  0  0  0  0  0  0  0
    5.0894    3.4447   -5.7702 C   0  0  0  1  0  0  0  0  0  0  0  0
    4.5674    6.0637   -3.3908 C   0  0  0  1  0  0  0  0  0  0  0  0
    4.7021    6.7997   -4.4573 N   0  0  0  1  0  0  0  0  0  0  0  0
    4.9255    5.9816   -5.5725 N   0  0  0  1  0  0  0  0  0  0  0  0
    5.1092    6.4891   -6.8673 C   0  0  0  1  0  0  0  0  0  0  0  0
    6.2188    7.2956   -7.0363 C   0  0  0  1  0  0  0  0  0  0  0  0
    6.4942    7.8436   -8.2794 C   0  0  0  1  0  0  0  0  0  0  0  0
    5.6564    7.5880   -9.3485 C   0  0  0  1  0  0  0  0  0  0  0  0
    4.5436    6.7791   -9.1789 C   0  0  0  1  0  0  0  0  0  0  0  0
    4.2688    6.2326   -7.9394 C   0  0  0  1  0  0  0  0  0  0  0  0
    6.0232    8.1808  -10.5095 O   0  0  0  1  0  0  0  0  0  0  0  0
    5.3110    7.7969  -11.6960 C   0  0  0  1  0  0  0  0  0  0  0  0
    4.7575    1.2651   -3.0259 N   0  0  0  1  0  0  0  0  0  0  0  0
    4.5245    1.2032   -1.5803 C   0  0  0  1  0  0  0  0  0  0  0  0
    4.9047   -0.1775   -1.0343 C   0  0  0  1  0  0  0  0  0  0  0  0
    6.3723   -0.0468   -0.6266 C   0  0  0  1  0  0  0  0  0  0  0  0
    6.4118    1.3566   -0.0169 C   0  0  0  1  0  0  0  0  0  0  0  0
    5.4363    2.1947   -0.8465 C   0  0  0  1  0  0  0  0  0  0  0  0
    6.7499   -1.0845    0.3778 N   0  0  0  1  0  0  0  0  0  0  0  0
    5.2587    3.3842   -6.7945 H   0  0  0  1  0  0  0  0  0  0  0  0
    4.3930    6.4175   -2.4286 H   0  0  0  1  0  0  0  0  0  0  0  0
    6.8470    7.4913   -6.2309 H   0  0  0  1  0  0  0  0  0  0  0  0
    7.3313    8.4472   -8.4076 H   0  0  0  1  0  0  0  0  0  0  0  0
    3.9153    6.5834   -9.9842 H   0  0  0  1  0  0  0  0  0  0  0  0
    3.4317    5.6289   -7.8112 H   0  0  0  1  0  0  0  0  0  0  0  0
    4.3401    7.4354  -11.4285 H   0  0  0  1  0  0  0  0  0  0  0  0
    5.8518    7.0248  -12.2022 H   0  0  0  1  0  0  0  0  0  0  0  0
    5.2104    8.6445  -12.3413 H   0  0  0  1  0  0  0  0  0  0  0  0
    4.8811    0.4217   -3.5095 H   0  0  0  1  0  0  0  0  0  0  0  0
    3.4964    1.4170   -1.3748 H   0  0  0  1  0  0  0  0  0  0  0  0
    4.2996   -0.4275   -0.1880 H   0  0  0  1  0  0  0  0  0  0  0  0
    4.7890   -0.9262   -1.7898 H   0  0  0  1  0  0  0  0  0  0  0  0
    7.0192   -0.1196   -1.4758 H   0  0  0  1  0  0  0  0  0  0  0  0
    6.1018    1.3276    1.0068 H   0  0  0  1  0  0  0  0  0  0  0  0
    7.3997    1.7630   -0.0796 H   0  0  0  1  0  0  0  0  0  0  0  0
    4.8560    2.8267   -0.2072 H   0  0  0  1  0  0  0  0  0  0  0  0
    5.9721    2.7952   -1.5516 H   0  0  0  1  0  0  0  0  0  0  0  0
    6.0873   -1.0974    1.0997 H   0  0  0  1  0  0  0  0  0  0  0  0
    7.6324   -0.8742    0.7484 H   0  0  0  1  0  0  0  0  0  0  0  0
  1  2  4  0  0  0  0
  1  6  4  0  0  0  0
  2  3  4  0  0  0  0
  2 18  1  0  0  0  0
  3  4  4  0  0  0  0
  4  5  4  0  0  0  0
  4  7  4  0  0  0  0
  5  6  4  0  0  0  0
  5  9  4  0  0  0  0
  6 25  1  0  0  0  0
  7  8  4  0  0  0  0
  7 26  1  0  0  0  0
  8  9  4  0  0  0  0
  9 10  1  0  0  0  0
 10 11  4  0  0  0  0
 10 15  4  0  0  0  0
 11 12  4  0  0  0  0
 11 27  1  0  0  0  0
 12 13  4  0  0  0  0
 12 28  1  0  0  0  0
 13 14  4  0  0  0  0
 13 16  1  0  0  0  0
 14 15  4  0  0  0  0
 14 29  1  0  0  0  0
 15 30  1  0  0  0  0
 16 17  1  0  0  0  0
 17 31  1  0  0  0  0
 17 32  1  0  0  0  0
 17 33  1  0  0  0  0
 18 19  1  0  0  0  0
 18 34  1  0  0  0  0
 19 20  1  0  0  0  0
 19 23  1  0  0  0  0
 19 35  1  0  0  0  0
 20 21  1  0  0  0  0
 20 36  1  0  0  0  0
 20 37  1  0  0  0  0
 21 22  1  0  0  0  0
 21 24  1  0  0  0  0
 21 38  1  0  0  0  0
 22 23  1  0  0  0  0
 22 39  1  0  0  0  0
 22 40  1  0  0  0  0
 23 41  1  0  0  0  0
 23 42  1  0  0  0  0
 24 43  1  0  0  0  0
 24 44  1  0  0  0  0
M  END
> <ConfClashScore>
0 

> <ConfOneFourInteractionScore>
-0.985399 

> <ConfScore>
-0.00817082 

> <ConfScorePBest>
0.00267359 

> <ConfTolerance>
0.484931 

$$$$
c13.sdf
 OpenBabel04162418043D

 44 47  0  0  0  0  0  0  0  0999 V2000
    4.5119    0.5061   -5.1650 N   0  0  0  1  0  0  0  0  0  0  0  0
    4.2037    0.3266   -3.8917 C   0  0  0  1  0  0  0  0  0  0  0  0
    3.4907   -0.6951   -3.4760 N   0  0  0  1  0  0  0  0  0  0  0  0
    3.0444   -1.6050   -4.3457 C   0  0  0  1  0  0  0  0  0  0  0  0
    3.3544   -1.4453   -5.7131 C   0  0  0  1  0  0  0  0  0  0  0  0
    4.1135   -0.3434   -6.0958 C   0  0  0  1  0  0  0  0  0  0  0  0
    2.2770   -2.7854   -4.2365 C   0  0  0  1  0  0  0  0  0  0  0  0
    2.1303   -3.3007   -5.4240 N   0  0  0  1  0  0  0  0  0  0  0  0
    2.7831   -2.5012   -6.3714 N   0  0  0  1  0  0  0  0  0  0  0  0
    2.7716   -2.8478   -7.7427 C   0  0  0  1  0  0  0  0  0  0  0  0
    2.9422   -4.1653   -8.1238 C   0  0  0  1  0  0  0  0  0  0  0  0
    2.9255   -4.5056   -9.4675 C   0  0  0  1  0  0  0  0  0  0  0  0
    2.7437   -3.5269  -10.4263 C   0  0  0  1  0  0  0  0  0  0  0  0
    2.5726   -2.2055  -10.0438 C   0  0  0  1  0  0  0  0  0  0  0  0
    2.5892   -1.8660   -8.7041 C   0  0  0  1  0  0  0  0  0  0  0  0
    2.7428   -3.9200  -11.7053 O   0  0  0  1  0  0  0  0  0  0  0  0
    2.8132   -5.3380  -12.0760 C   0  0  0  1  0  0  0  0  0  0  0  0
    4.6361    1.2233   -2.9870 N   0  0  0  1  0  0  0  0  0  0  0  0
    4.4843    1.2029   -1.5284 C   0  0  0  1  0  0  0  0  0  0  0  0
    4.8696   -0.1706   -0.9681 C   0  0  0  1  0  0  0  0  0  0  0  0
    6.3601   -0.0586   -0.6473 C   0  0  0  1  0  0  0  0  0  0  0  0
    6.4598    1.3589   -0.0783 C   0  0  0  1  0  0  0  0  0  0  0  0
    5.4542    2.1946   -0.8737 C   0  0  0  1  0  0  0  0  0  0  0  0
    6.7773   -1.0829    0.3668 N   0  0  0  1  0  0  0  0  0  0  0  0
    4.3622   -0.1914   -7.0941 H   0  0  0  1  0  0  0  0  0  0  0  0
    1.8925   -3.1785   -3.3537 H   0  0  0  1  0  0  0  0  0  0  0  0
    3.0830   -4.9012   -7.4026 H   0  0  0  1  0  0  0  0  0  0  0  0
    3.0499   -5.4976   -9.7541 H   0  0  0  1  0  0  0  0  0  0  0  0
    2.4317   -1.4695  -10.7650 H   0  0  0  1  0  0  0  0  0  0  0  0
    2.4648   -0.8740   -8.4174 H   0  0  0  1  0  0  0  0  0  0  0  0
    3.1186   -5.4253  -13.0977 H   0  0  0  1  0  0  0  0  0  0  0  0
    1.8499   -5.7869  -11.9523 H   0  0  0  1  0  0  0  0  0  0  0  0
    3.5225   -5.8357  -11.4482 H   0  0  0  1  0  0  0  0  0  0  0  0
    5.1179    1.9947   -3.3520 H   0  0  0  1  0  0  0  0  0  0  0  0
    3.4736    1.4422   -1.2711 H   0  0  0  1  0  0  0  0  0  0  0  0
    4.3090   -0.3870   -0.0828 H   0  0  0  1  0  0  0  0  0  0  0  0
    4.6976   -0.9360   -1.6958 H   0  0  0  1  0  0  0  0  0  0  0  0
    6.9563   -0.1657   -1.5293 H   0  0  0  1  0  0  0  0  0  0  0  0
    7.4498    1.7440   -0.2072 H   0  0  0  1  0  0  0  0  0  0  0  0
    6.2079    1.3621    0.9616 H   0  0  0  1  0  0  0  0  0  0  0  0
    5.9601    2.7663   -1.6235 H   0  0  0  1  0  0  0  0  0  0  0  0
    4.9228    2.8541   -0.2198 H   0  0  0  1  0  0  0  0  0  0  0  0
    6.1289   -1.0989    1.1015 H   0  0  0  1  0  0  0  0  0  0  0  0
    7.6629   -0.8528    0.7180 H   0  0  0  1  0  0  0  0  0  0  0  0
  1  2  4  0  0  0  0
  1  6  4  0  0  0  0
  2  3  4  0  0  0  0
  2 18  1  0  0  0  0
  3  4  4  0  0  0  0
  4  5  4  0  0  0  0
  4  7  4  0  0  0  0
  5  6  4  0  0  0  0
  5  9  4  0  0  0  0
  6 25  1  0  0  0  0
  7  8  4  0  0  0  0
  7 26  1  0  0  0  0
  8  9  4  0  0  0  0
  9 10  1  0  0  0  0
 10 11  4  0  0  0  0
 10 15  4  0  0  0  0
 11 12  4  0  0  0  0
 11 27  1  0  0  0  0
 12 13  4  0  0  0  0
 12 28  1  0  0  0  0
 13 14  4  0  0  0  0
 13 16  1  0  0  0  0
 14 15  4  0  0  0  0
 14 29  1  0  0  0  0
 15 30  1  0  0  0  0
 16 17  1  0  0  0  0
 17 31  1  0  0  0  0
 17 32  1  0  0  0  0
 17 33  1  0  0  0  0
 18 19  1  0  0  0  0
 18 34  1  0  0  0  0
 19 20  1  0  0  0  0
 19 23  1  0  0  0  0
 19 35  1  0  0  0  0
 20 21  1  0  0  0  0
 20 36  1  0  0  0  0
 20 37  1  0  0  0  0
 21 22  1  0  0  0  0
 21 24  1  0  0  0  0
 21 38  1  0  0  0  0
 22 23  1  0  0  0  0
 22 39  1  0  0  0  0
 22 40  1  0  0  0  0
 23 41  1  0  0  0  0
 23 42  1  0  0  0  0
 24 43  1  0  0  0  0
 24 44  1  0  0  0  0
M  END
> <ConfClashScore>
0 

> <ConfOneFourInteractionScore>
-0.985399 

> <ConfScore>
-0.00769316 

> <ConfScorePBest>
0.00266026 

> <ConfTolerance>
0.420622 

$$$$
c13.sdf
 OpenBabel04162418043D

 44 47  0  0  0  0  0  0  0  0999 V2000
    3.0081    2.5992   -4.4876 N   0  0  0  1  0  0  0  0  0  0  0  0
    3.3786    2.5268   -3.2204 C   0  0  0  1  0  0  0  0  0  0  0  0
    3.2290    3.5280   -2.3837 N   0  0  0  1  0  0  0  0  0  0  0  0
    2.6858    4.6764   -2.7956 C   0  0  0  1  0  0  0  0  0  0  0  0
    2.2786    4.7893   -4.1420 C   0  0  0  1  0  0  0  0  0  0  0  0
    2.4617    3.6958   -4.9832 C   0  0  0  1  0  0  0  0  0  0  0  0
    2.3903    5.9100   -2.1752 C   0  0  0  1  0  0  0  0  0  0  0  0
    1.8529    6.7041   -3.0572 N   0  0  0  1  0  0  0  0  0  0  0  0
    1.7643    6.0492   -4.2926 N   0  0  0  1  0  0  0  0  0  0  0  0
    1.1177    6.6842   -5.3912 C   0  0  0  1  0  0  0  0  0  0  0  0
    0.0260    7.5026   -5.1712 C   0  0  0  1  0  0  0  0  0  0  0  0
   -0.6001    8.1249   -6.2400 C   0  0  0  1  0  0  0  0  0  0  0  0
   -0.1360    7.9227   -7.5261 C   0  0  0  1  0  0  0  0  0  0  0  0
    0.9590    7.1017   -7.7465 C   0  0  0  1  0  0  0  0  0  0  0  0
    1.5833    6.4812   -6.6809 C   0  0  0  1  0  0  0  0  0  0  0  0
   -0.8295    8.5772   -8.4876 O   0  0  0  1  0  0  0  0  0  0  0  0
   -0.4593    8.3232   -9.8517 C   0  0  0  1  0  0  0  0  0  0  0  0
    3.9302    1.4087   -2.7356 N   0  0  0  1  0  0  0  0  0  0  0  0
    4.4102    1.1996   -1.3752 C   0  0  0  1  0  0  0  0  0  0  0  0
    5.0990   -0.1682   -1.2379 C   0  0  0  1  0  0  0  0  0  0  0  0
    6.3790    0.0283   -0.4408 C   0  0  0  1  0  0  0  0  0  0  0  0
    6.3567    1.4917    0.0405 C   0  0  0  1  0  0  0  0  0  0  0  0
    5.5169    2.1811   -1.0315 C   0  0  0  1  0  0  0  0  0  0  0  0
    6.4110   -0.8946    0.7178 N   0  0  0  1  0  0  0  0  0  0  0  0
    2.1743    3.7407   -5.9817 H   0  0  0  1  0  0  0  0  0  0  0  0
    2.5718    6.1458   -1.1786 H   0  0  0  1  0  0  0  0  0  0  0  0
   -0.3258    7.6517   -4.2039 H   0  0  0  1  0  0  0  0  0  0  0  0
   -1.4191    8.7440   -6.0741 H   0  0  0  1  0  0  0  0  0  0  0  0
    1.3108    6.9527   -8.7138 H   0  0  0  1  0  0  0  0  0  0  0  0
    2.4024    5.8621   -6.8467 H   0  0  0  1  0  0  0  0  0  0  0  0
   -0.6956    9.1775  -10.4510 H   0  0  0  1  0  0  0  0  0  0  0  0
   -0.9981    7.4730  -10.2149 H   0  0  0  1  0  0  0  0  0  0  0  0
    0.5917    8.1297   -9.9057 H   0  0  0  1  0  0  0  0  0  0  0  0
    4.0205    0.6557   -3.3563 H   0  0  0  1  0  0  0  0  0  0  0  0
    3.5928    1.2879   -0.6905 H   0  0  0  1  0  0  0  0  0  0  0  0
    4.4531   -0.8500   -0.7252 H   0  0  0  1  0  0  0  0  0  0  0  0
    5.3312   -0.5566   -2.2075 H   0  0  0  1  0  0  0  0  0  0  0  0
    7.2336   -0.1465   -1.0604 H   0  0  0  1  0  0  0  0  0  0  0  0
    5.8975    1.5746    1.0035 H   0  0  0  1  0  0  0  0  0  0  0  0
    7.3447    1.9006    0.0795 H   0  0  0  1  0  0  0  0  0  0  0  0
    5.1036    3.0927   -0.6534 H   0  0  0  1  0  0  0  0  0  0  0  0
    6.1125    2.3902   -1.8955 H   0  0  0  1  0  0  0  0  0  0  0  0
    7.2158   -0.7234    1.2503 H   0  0  0  1  0  0  0  0  0  0  0  0
    6.4225   -1.8206    0.3973 H   0  0  0  1  0  0  0  0  0  0  0  0
  1  2  4  0  0  0  0
  1  6  4  0  0  0  0
  2  3  4  0  0  0  0
  2 18  1  0  0  0  0
  3  4  4  0  0  0  0
  4  5  4  0  0  0  0
  4  7  4  0  0  0  0
  5  6  4  0  0  0  0
  5  9  4  0  0  0  0
  6 25  1  0  0  0  0
  7  8  4  0  0  0  0
  7 26  1  0  0  0  0
  8  9  4  0  0  0  0
  9 10  1  0  0  0  0
 10 11  4  0  0  0  0
 10 15  4  0  0  0  0
 11 12  4  0  0  0  0
 11 27  1  0  0  0  0
 12 13  4  0  0  0  0
 12 28  1  0  0  0  0
 13 14  4  0  0  0  0
 13 16  1  0  0  0  0
 14 15  4  0  0  0  0
 14 29  1  0  0  0  0
 15 30  1  0  0  0  0
 16 17  1  0  0  0  0
 17 31  1  0  0  0  0
 17 32  1  0  0  0  0
 17 33  1  0  0  0  0
 18 19  1  0  0  0  0
 18 34  1  0  0  0  0
 19 20  1  0  0  0  0
 19 23  1  0  0  0  0
 19 35  1  0  0  0  0
 20 21  1  0  0  0  0
 20 36  1  0  0  0  0
 20 37  1  0  0  0  0
 21 22  1  0  0  0  0
 21 24  1  0  0  0  0
 21 38  1  0  0  0  0
 22 23  1  0  0  0  0
 22 39  1  0  0  0  0
 22 40  1  0  0  0  0
 23 41  1  0  0  0  0
 23 42  1  0  0  0  0
 24 43  1  0  0  0  0
 24 44  1  0  0  0  0
M  END
> <ConfClashScore>
0 

> <ConfOneFourInteractionScore>
-0.985399 

> <ConfScore>
-0.00721476 

> <ConfScorePBest>
0.00264693 

> <ConfTolerance>
0.395098 

$$$$
c13.sdf
 OpenBabel04162418043D

 44 47  0  0  0  0  0  0  0  0999 V2000
    2.8140    0.6259   -3.8057 N   0  0  0  1  0  0  0  0  0  0  0  0
    4.0347    1.0601   -4.0698 C   0  0  0  1  0  0  0  0  0  0  0  0
    4.4460    1.3075   -5.2924 N   0  0  0  1  0  0  0  0  0  0  0  0
    3.6259    1.1242   -6.3304 C   0  0  0  1  0  0  0  0  0  0  0  0
    2.3154    0.6617   -6.0857 C   0  0  0  1  0  0  0  0  0  0  0  0
    1.9346    0.4161   -4.7698 C   0  0  0  1  0  0  0  0  0  0  0  0
    3.7462    1.2893   -7.7276 C   0  0  0  1  0  0  0  0  0  0  0  0
    2.6167    0.9594   -8.2868 N   0  0  0  1  0  0  0  0  0  0  0  0
    1.6995    0.5632   -7.3046 N   0  0  0  1  0  0  0  0  0  0  0  0
    0.4618    0.0347   -7.7001 C   0  0  0  1  0  0  0  0  0  0  0  0
    0.1497    0.1925   -9.0372 C   0  0  0  1  0  0  0  0  0  0  0  0
   -1.0484   -0.2990   -9.5318 C   0  0  0  1  0  0  0  0  0  0  0  0
   -1.9331   -0.9421   -8.6868 C   0  0  0  1  0  0  0  0  0  0  0  0
   -1.6198   -1.1003   -7.3457 C   0  0  0  1  0  0  0  0  0  0  0  0
   -0.4253   -0.6103   -6.8525 C   0  0  0  1  0  0  0  0  0  0  0  0
   -3.0998   -1.4152   -9.1664 O   0  0  0  1  0  0  0  0  0  0  0  0
   -3.3750   -1.0804  -10.5465 C   0  0  0  1  0  0  0  0  0  0  0  0
    4.8482    1.2401   -3.0212 N   0  0  0  1  0  0  0  0  0  0  0  0
    4.5272    1.1967   -1.5938 C   0  0  0  1  0  0  0  0  0  0  0  0
    4.9240   -0.1574   -0.9956 C   0  0  0  1  0  0  0  0  0  0  0  0
    6.3569    0.0382   -0.5000 C   0  0  0  1  0  0  0  0  0  0  0  0
    6.3049    1.4534    0.0807 C   0  0  0  1  0  0  0  0  0  0  0  0
    5.3527    2.2368   -0.8259 C   0  0  0  1  0  0  0  0  0  0  0  0
    6.7094   -0.9653    0.5486 N   0  0  0  1  0  0  0  0  0  0  0  0
    0.9774    0.0745   -4.5495 H   0  0  0  1  0  0  0  0  0  0  0  0
    4.5961    1.6197   -8.2278 H   0  0  0  1  0  0  0  0  0  0  0  0
    0.8135    0.6800   -9.6723 H   0  0  0  1  0  0  0  0  0  0  0  0
   -1.2816   -0.1838  -10.5387 H   0  0  0  1  0  0  0  0  0  0  0  0
   -2.2837   -1.5878   -6.7107 H   0  0  0  1  0  0  0  0  0  0  0  0
   -0.1921   -0.7254   -5.8456 H   0  0  0  1  0  0  0  0  0  0  0  0
   -2.9647   -0.1176  -10.7692 H   0  0  0  1  0  0  0  0  0  0  0  0
   -4.4331   -1.0622  -10.7047 H   0  0  0  1  0  0  0  0  0  0  0  0
   -2.9308   -1.8138  -11.1866 H   0  0  0  1  0  0  0  0  0  0  0  0
    5.7854    1.4261   -3.2391 H   0  0  0  1  0  0  0  0  0  0  0  0
    3.4809    1.3742   -1.4574 H   0  0  0  1  0  0  0  0  0  0  0  0
    4.8846   -0.9244   -1.7407 H   0  0  0  1  0  0  0  0  0  0  0  0
    4.2765   -0.4147   -0.1836 H   0  0  0  1  0  0  0  0  0  0  0  0
    7.0585   -0.0254   -1.3055 H   0  0  0  1  0  0  0  0  0  0  0  0
    5.9321    1.4318    1.0835 H   0  0  0  1  0  0  0  0  0  0  0  0
    7.2786    1.8968    0.0711 H   0  0  0  1  0  0  0  0  0  0  0  0
    5.9090    2.8443   -1.5089 H   0  0  0  1  0  0  0  0  0  0  0  0
    4.7097    2.8578   -0.2378 H   0  0  0  1  0  0  0  0  0  0  0  0
    7.6322   -0.8189    0.8444 H   0  0  0  1  0  0  0  0  0  0  0  0
    6.6250   -1.8684    0.1776 H   0  0  0  1  0  0  0  0  0  0  0  0
  1  2  4  0  0  0  0
  1  6  4  0  0  0  0
  2  3  4  0  0  0  0
  2 18  1  0  0  0  0
  3  4  4  0  0  0  0
  4  5  4  0  0  0  0
  4  7  4  0  0  0  0
  5  6  4  0  0  0  0
  5  9  4  0  0  0  0
  6 25  1  0  0  0  0
  7  8  4  0  0  0  0
  7 26  1  0  0  0  0
  8  9  4  0  0  0  0
  9 10  1  0  0  0  0
 10 11  4  0  0  0  0
 10 15  4  0  0  0  0
 11 12  4  0  0  0  0
 11 27  1  0  0  0  0
 12 13  4  0  0  0  0
 12 28  1  0  0  0  0
 13 14  4  0  0  0  0
 13 16  1  0  0  0  0
 14 15  4  0  0  0  0
 14 29  1  0  0  0  0
 15 30  1  0  0  0  0
 16 17  1  0  0  0  0
 17 31  1  0  0  0  0
 17 32  1  0  0  0  0
 17 33  1  0  0  0  0
 18 19  1  0  0  0  0
 18 34  1  0  0  0  0
 19 20  1  0  0  0  0
 19 23  1  0  0  0  0
 19 35  1  0  0  0  0
 20 21  1  0  0  0  0
 20 36  1  0  0  0  0
 20 37  1  0  0  0  0
 21 22  1  0  0  0  0
 21 24  1  0  0  0  0
 21 38  1  0  0  0  0
 22 23  1  0  0  0  0
 22 39  1  0  0  0  0
 22 40  1  0  0  0  0
 23 41  1  0  0  0  0
 23 42  1  0  0  0  0
 24 43  1  0  0  0  0
 24 44  1  0  0  0  0
M  END
> <ConfClashScore>
0 

> <ConfOneFourInteractionScore>
-0.984337 

> <ConfScore>
-0.00686551 

> <ConfScorePBest>
0.0026336 

> <ConfTolerance>
0.52169 

$$$$
c13.sdf
 OpenBabel04162418043D

 44 47  0  0  0  0  0  0  0  0999 V2000
    2.7615    2.3092   -3.3456 N   0  0  0  1  0  0  0  0  0  0  0  0
    4.0287    2.2116   -3.7101 C   0  0  0  1  0  0  0  0  0  0  0  0
    4.4632    2.6415   -4.8726 N   0  0  0  1  0  0  0  0  0  0  0  0
    3.6199    3.2032   -5.7426 C   0  0  0  1  0  0  0  0  0  0  0  0
    2.2596    3.3238   -5.3869 C   0  0  0  1  0  0  0  0  0  0  0  0
    1.8562    2.8507   -4.1418 C   0  0  0  1  0  0  0  0  0  0  0  0
    3.7537    3.7533   -7.0363 C   0  0  0  1  0  0  0  0  0  0  0  0
    2.5864    4.1717   -7.4360 N   0  0  0  1  0  0  0  0  0  0  0  0
    1.6292    3.9250   -6.4432 N   0  0  0  1  0  0  0  0  0  0  0  0
    0.2759    4.2889   -6.6357 C   0  0  0  1  0  0  0  0  0  0  0  0
   -0.1070    5.2669   -7.5341 C   0  0  0  1  0  0  0  0  0  0  0  0
   -1.4485    5.5804   -7.6870 C   0  0  0  1  0  0  0  0  0  0  0  0
   -2.4028    4.9190   -6.9372 C   0  0  0  1  0  0  0  0  0  0  0  0
   -2.0186    3.9381   -6.0362 C   0  0  0  1  0  0  0  0  0  0  0  0
   -0.6810    3.6254   -5.8837 C   0  0  0  1  0  0  0  0  0  0  0  0
   -3.7213    5.1395   -6.9955 O   0  0  0  1  0  0  0  0  0  0  0  0
   -4.2795    6.2896   -7.7154 C   0  0  0  1  0  0  0  0  0  0  0  0
    4.9071    1.6512   -2.8593 N   0  0  0  1  0  0  0  0  0  0  0  0
    4.5574    1.1805   -1.5182 C   0  0  0  1  0  0  0  0  0  0  0  0
    5.0577   -0.2512   -1.2993 C   0  0  0  1  0  0  0  0  0  0  0  0
    6.4211   -0.1285   -0.6058 C   0  0  0  1  0  0  0  0  0  0  0  0
    6.6726    1.3752   -0.4634 C   0  0  0  1  0  0  0  0  0  0  0  0
    5.2734    2.0005   -0.4576 C   0  0  0  1  0  0  0  0  0  0  0  0
    6.3844   -0.7818    0.7386 N   0  0  0  1  0  0  0  0  0  0  0  0
    0.8623    2.9218   -3.8439 H   0  0  0  1  0  0  0  0  0  0  0  0
    4.6381    3.8144   -7.5801 H   0  0  0  1  0  0  0  0  0  0  0  0
    0.6113    5.7675   -8.0954 H   0  0  0  1  0  0  0  0  0  0  0  0
   -1.7370    6.3135   -8.3659 H   0  0  0  1  0  0  0  0  0  0  0  0
   -2.7369    3.4375   -5.4749 H   0  0  0  1  0  0  0  0  0  0  0  0
   -0.3924    2.8923   -5.2047 H   0  0  0  1  0  0  0  0  0  0  0  0
   -5.2989    6.0899   -7.9720 H   0  0  0  1  0  0  0  0  0  0  0  0
   -3.7142    6.4601   -8.6078 H   0  0  0  1  0  0  0  0  0  0  0  0
   -4.2325    7.1577   -7.0916 H   0  0  0  1  0  0  0  0  0  0  0  0
    5.8362    1.5522   -3.1549 H   0  0  0  1  0  0  0  0  0  0  0  0
    3.4970    1.2348   -1.3859 H   0  0  0  1  0  0  0  0  0  0  0  0
    4.3738   -0.7920   -0.6790 H   0  0  0  1  0  0  0  0  0  0  0  0
    5.1633   -0.7544   -2.2377 H   0  0  0  1  0  0  0  0  0  0  0  0
    7.1860   -0.5808   -1.2019 H   0  0  0  1  0  0  0  0  0  0  0  0
    7.2470    1.7421   -1.2883 H   0  0  0  1  0  0  0  0  0  0  0  0
    7.1853    1.5877    0.4514 H   0  0  0  1  0  0  0  0  0  0  0  0
    5.3092    3.0359   -0.7252 H   0  0  0  1  0  0  0  0  0  0  0  0
    4.8042    1.8946    0.4981 H   0  0  0  1  0  0  0  0  0  0  0  0
    5.5858   -0.4867    1.2240 H   0  0  0  1  0  0  0  0  0  0  0  0
    7.1852   -0.5318    1.2451 H   0  0  0  1  0  0  0  0  0  0  0  0
  1  2  4  0  0  0  0
  1  6  4  0  0  0  0
  2  3  4  0  0  0  0
  2 18  1  0  0  0  0
  3  4  4  0  0  0  0
  4  5  4  0  0  0  0
  4  7  4  0  0  0  0
  5  6  4  0  0  0  0
  5  9  4  0  0  0  0
  6 25  1  0  0  0  0
  7  8  4  0  0  0  0
  7 26  1  0  0  0  0
  8  9  4  0  0  0  0
  9 10  1  0  0  0  0
 10 11  4  0  0  0  0
 10 15  4  0  0  0  0
 11 12  4  0  0  0  0
 11 27  1  0  0  0  0
 12 13  4  0  0  0  0
 12 28  1  0  0  0  0
 13 14  4  0  0  0  0
 13 16  1  0  0  0  0
 14 15  4  0  0  0  0
 14 29  1  0  0  0  0
 15 30  1  0  0  0  0
 16 17  1  0  0  0  0
 17 31  1  0  0  0  0
 17 32  1  0  0  0  0
 17 33  1  0  0  0  0
 18 19  1  0  0  0  0
 18 34  1  0  0  0  0
 19 20  1  0  0  0  0
 19 23  1  0  0  0  0
 19 35  1  0  0  0  0
 20 21  1  0  0  0  0
 20 36  1  0  0  0  0
 20 37  1  0  0  0  0
 21 22  1  0  0  0  0
 21 24  1  0  0  0  0
 21 38  1  0  0  0  0
 22 23  1  0  0  0  0
 22 39  1  0  0  0  0
 22 40  1  0  0  0  0
 23 41  1  0  0  0  0
 23 42  1  0  0  0  0
 24 43  1  0  0  0  0
 24 44  1  0  0  0  0
M  END
> <ConfClashScore>
0 

> <ConfOneFourInteractionScore>
-0.984337 

> <ConfScore>
-0.0061304 

> <ConfScorePBest>
0.00262028 

> <ConfTolerance>
0.526533 

$$$$
c13.sdf
 OpenBabel04162418043D

 44 47  0  0  0  0  0  0  0  0999 V2000
    3.6478    1.5771   -5.0266 N   0  0  0  1  0  0  0  0  0  0  0  0
    3.5381    1.6155   -3.7095 C   0  0  0  1  0  0  0  0  0  0  0  0
    2.4321    1.9840   -3.1046 N   0  0  0  1  0  0  0  0  0  0  0  0
    1.3597    2.3396   -3.8166 C   0  0  0  1  0  0  0  0  0  0  0  0
    1.4408    2.3106   -5.2251 C   0  0  0  1  0  0  0  0  0  0  0  0
    2.6384    1.9116   -5.8113 C   0  0  0  1  0  0  0  0  0  0  0  0
    0.0557    2.7737   -3.4919 C   0  0  0  1  0  0  0  0  0  0  0  0
   -0.6005    2.9902   -4.5963 N   0  0  0  1  0  0  0  0  0  0  0  0
    0.2212    2.7155   -5.6974 N   0  0  0  1  0  0  0  0  0  0  0  0
   -0.2639    2.8749   -7.0268 C   0  0  0  1  0  0  0  0  0  0  0  0
   -0.3072    1.7894   -7.8813 C   0  0  0  1  0  0  0  0  0  0  0  0
   -0.7843    1.9435   -9.1736 C   0  0  0  1  0  0  0  0  0  0  0  0
   -1.2117    3.1836   -9.6094 C   0  0  0  1  0  0  0  0  0  0  0  0
   -1.1681    4.2721   -8.7522 C   0  0  0  1  0  0  0  0  0  0  0  0
   -0.6924    4.1186   -7.4636 C   0  0  0  1  0  0  0  0  0  0  0  0
   -1.7055    3.4642  -10.8839 O   0  0  0  1  0  0  0  0  0  0  0  0
   -1.8097    2.3661  -11.8037 C   0  0  0  1  0  0  0  0  0  0  0  0
    4.5646    1.2753   -2.9010 N   0  0  0  1  0  0  0  0  0  0  0  0
    4.4690    1.2156   -1.4478 C   0  0  0  1  0  0  0  0  0  0  0  0
    4.9308   -0.1888   -0.9316 C   0  0  0  1  0  0  0  0  0  0  0  0
    6.4548    0.0253   -0.6402 C   0  0  0  1  0  0  0  0  0  0  0  0
    6.5164    1.4541   -0.0664 C   0  0  0  1  0  0  0  0  0  0  0  0
    5.4280    2.2553   -0.8023 C   0  0  0  1  0  0  0  0  0  0  0  0
    6.9479   -0.9618    0.3461 N   0  0  0  1  0  0  0  0  0  0  0  0
    2.7369    1.8774   -6.8461 H   0  0  0  1  0  0  0  0  0  0  0  0
   -0.3189    2.8997   -2.5299 H   0  0  0  1  0  0  0  0  0  0  0  0
    0.0181    0.8572   -7.5547 H   0  0  0  1  0  0  0  0  0  0  0  0
   -0.8207    1.1259   -9.8153 H   0  0  0  1  0  0  0  0  0  0  0  0
   -1.4935    5.2044   -9.0788 H   0  0  0  1  0  0  0  0  0  0  0  0
   -0.6560    4.9362   -6.8219 H   0  0  0  1  0  0  0  0  0  0  0  0
   -1.9009    2.7430  -12.8009 H   0  0  0  1  0  0  0  0  0  0  0  0
   -2.6726    1.7807  -11.5636 H   0  0  0  1  0  0  0  0  0  0  0  0
   -0.9333    1.7565  -11.7317 H   0  0  0  1  0  0  0  0  0  0  0  0
    5.4248    1.0556   -3.3158 H   0  0  0  1  0  0  0  0  0  0  0  0
    3.4597    1.4068   -1.1481 H   0  0  0  1  0  0  0  0  0  0  0  0
    4.7843   -0.9401   -1.6792 H   0  0  0  1  0  0  0  0  0  0  0  0
    4.4042   -0.4632   -0.0414 H   0  0  0  1  0  0  0  0  0  0  0  0
    7.0299   -0.0503   -1.5393 H   0  0  0  1  0  0  0  0  0  0  0  0
    7.4794    1.8849   -0.2449 H   0  0  0  1  0  0  0  0  0  0  0  0
    6.3205    1.4407    0.9855 H   0  0  0  1  0  0  0  0  0  0  0  0
    5.8701    2.8689   -1.5592 H   0  0  0  1  0  0  0  0  0  0  0  0
    4.8924    2.8714   -0.1106 H   0  0  0  1  0  0  0  0  0  0  0  0
    6.7745   -1.8683    0.0165 H   0  0  0  1  0  0  0  0  0  0  0  0
    6.4839   -0.8305    1.1993 H   0  0  0  1  0  0  0  0  0  0  0  0
  1  2  4  0  0  0  0
  1  6  4  0  0  0  0
  2  3  4  0  0  0  0
  2 18  1  0  0  0  0
  3  4  4  0  0  0  0
  4  5  4  0  0  0  0
  4  7  4  0  0  0  0
  5  6  4  0  0  0  0
  5  9  4  0  0  0  0
  6 25  1  0  0  0  0
  7  8  4  0  0  0  0
  7 26  1  0  0  0  0
  8  9  4  0  0  0  0
  9 10  1  0  0  0  0
 10 11  4  0  0  0  0
 10 15  4  0  0  0  0
 11 12  4  0  0  0  0
 11 27  1  0  0  0  0
 12 13  4  0  0  0  0
 12 28  1  0  0  0  0
 13 14  4  0  0  0  0
 13 16  1  0  0  0  0
 14 15  4  0  0  0  0
 14 29  1  0  0  0  0
 15 30  1  0  0  0  0
 16 17  1  0  0  0  0
 17 31  1  0  0  0  0
 17 32  1  0  0  0  0
 17 33  1  0  0  0  0
 18 19  1  0  0  0  0
 18 34  1  0  0  0  0
 19 20  1  0  0  0  0
 19 23  1  0  0  0  0
 19 35  1  0  0  0  0
 20 21  1  0  0  0  0
 20 36  1  0  0  0  0
 20 37  1  0  0  0  0
 21 22  1  0  0  0  0
 21 24  1  0  0  0  0
 21 38  1  0  0  0  0
 22 23  1  0  0  0  0
 22 39  1  0  0  0  0
 22 40  1  0  0  0  0
 23 41  1  0  0  0  0
 23 42  1  0  0  0  0
 24 43  1  0  0  0  0
 24 44  1  0  0  0  0
M  END
> <ConfClashScore>
0 

> <ConfOneFourInteractionScore>
-0.984337 

> <ConfScore>
-0.0053752 

> <ConfScorePBest>
0.00260695 

> <ConfTolerance>
0.558439 

$$$$
c13.sdf
 OpenBabel04162418043D

 44 47  0  0  0  0  0  0  0  0999 V2000
    1.8343    0.5667   -2.0081 N   0  0  0  1  0  0  0  0  0  0  0  0
    2.6276    1.0391   -2.9546 C   0  0  0  1  0  0  0  0  0  0  0  0
    2.2237    1.2111   -4.1924 N   0  0  0  1  0  0  0  0  0  0  0  0
    0.9710    0.9074   -4.5419 C   0  0  0  1  0  0  0  0  0  0  0  0
    0.0963    0.4007   -3.5573 C   0  0  0  1  0  0  0  0  0  0  0  0
    0.5792    0.2394   -2.2621 C   0  0  0  1  0  0  0  0  0  0  0  0
    0.2372    0.9694   -5.7468 C   0  0  0  1  0  0  0  0  0  0  0  0
   -0.9727    0.5414   -5.5225 N   0  0  0  1  0  0  0  0  0  0  0  0
   -1.1046    0.1776   -4.1759 N   0  0  0  1  0  0  0  0  0  0  0  0
   -2.3493   -0.3166   -3.7208 C   0  0  0  1  0  0  0  0  0  0  0  0
   -3.1879    0.4973   -2.9830 C   0  0  0  1  0  0  0  0  0  0  0  0
   -4.4100    0.0146   -2.5415 C   0  0  0  1  0  0  0  0  0  0  0  0
   -4.7878   -1.2822   -2.8347 C   0  0  0  1  0  0  0  0  0  0  0  0
   -3.9465   -2.0984   -3.5747 C   0  0  0  1  0  0  0  0  0  0  0  0
   -2.7279   -1.6173   -4.0149 C   0  0  0  1  0  0  0  0  0  0  0  0
   -5.9364   -1.8566   -2.4592 O   0  0  0  1  0  0  0  0  0  0  0  0
   -6.9120   -1.1525   -1.6193 C   0  0  0  1  0  0  0  0  0  0  0  0
    3.9143    1.3604   -2.6347 N   0  0  0  1  0  0  0  0  0  0  0  0
    4.4267    1.2166   -1.2712 C   0  0  0  1  0  0  0  0  0  0  0  0
    5.0360   -0.1768   -1.0708 C   0  0  0  1  0  0  0  0  0  0  0  0
    6.4657    0.0416   -0.5700 C   0  0  0  1  0  0  0  0  0  0  0  0
    6.5048    1.4795   -0.0470 C   0  0  0  1  0  0  0  0  0  0  0  0
    5.5752    2.2006   -1.0232 C   0  0  0  1  0  0  0  0  0  0  0  0
    6.7861   -0.9205    0.5266 N   0  0  0  1  0  0  0  0  0  0  0  0
   -0.0351   -0.1313   -1.5092 H   0  0  0  1  0  0  0  0  0  0  0  0
    0.6022    1.3019   -6.6621 H   0  0  0  1  0  0  0  0  0  0  0  0
   -2.9020    1.4718   -2.7589 H   0  0  0  1  0  0  0  0  0  0  0  0
   -5.0428    0.6284   -1.9897 H   0  0  0  1  0  0  0  0  0  0  0  0
   -4.2324   -3.0729   -3.7988 H   0  0  0  1  0  0  0  0  0  0  0  0
   -2.0951   -2.2310   -4.5667 H   0  0  0  1  0  0  0  0  0  0  0  0
   -7.9026   -1.4308   -1.9126 H   0  0  0  1  0  0  0  0  0  0  0  0
   -6.7885   -0.0964   -1.7385 H   0  0  0  1  0  0  0  0  0  0  0  0
   -6.7563   -1.4168   -0.5942 H   0  0  0  1  0  0  0  0  0  0  0  0
    4.5109    1.6961   -3.3360 H   0  0  0  1  0  0  0  0  0  0  0  0
    3.6337    1.3826   -0.5723 H   0  0  0  1  0  0  0  0  0  0  0  0
    4.4710   -0.7265   -0.3472 H   0  0  0  1  0  0  0  0  0  0  0  0
    5.0468   -0.7121   -1.9972 H   0  0  0  1  0  0  0  0  0  0  0  0
    7.1646   -0.0835   -1.3705 H   0  0  0  1  0  0  0  0  0  0  0  0
    6.1359    1.5381    0.9557 H   0  0  0  1  0  0  0  0  0  0  0  0
    7.4961    1.8803   -0.0869 H   0  0  0  1  0  0  0  0  0  0  0  0
    5.2071    3.1081   -0.5920 H   0  0  0  1  0  0  0  0  0  0  0  0
    6.0863    2.4209   -1.9370 H   0  0  0  1  0  0  0  0  0  0  0  0
    6.6876   -1.8378    0.1961 H   0  0  0  1  0  0  0  0  0  0  0  0
    6.1726   -0.7762    1.2770 H   0  0  0  1  0  0  0  0  0  0  0  0
  1  2  4  0  0  0  0
  1  6  4  0  0  0  0
  2  3  4  0  0  0  0
  2 18  1  0  0  0  0
  3  4  4  0  0  0  0
  4  5  4  0  0  0  0
  4  7  4  0  0  0  0
  5  6  4  0  0  0  0
  5  9  4  0  0  0  0
  6 25  1  0  0  0  0
  7  8  4  0  0  0  0
  7 26  1  0  0  0  0
  8  9  4  0  0  0  0
  9 10  1  0  0  0  0
 10 11  4  0  0  0  0
 10 15  4  0  0  0  0
 11 12  4  0  0  0  0
 11 27  1  0  0  0  0
 12 13  4  0  0  0  0
 12 28  1  0  0  0  0
 13 14  4  0  0  0  0
 13 16  1  0  0  0  0
 14 15  4  0  0  0  0
 14 29  1  0  0  0  0
 15 30  1  0  0  0  0
 16 17  1  0  0  0  0
 17 31  1  0  0  0  0
 17 32  1  0  0  0  0
 17 33  1  0  0  0  0
 18 19  1  0  0  0  0
 18 34  1  0  0  0  0
 19 20  1  0  0  0  0
 19 23  1  0  0  0  0
 19 35  1  0  0  0  0
 20 21  1  0  0  0  0
 20 36  1  0  0  0  0
 20 37  1  0  0  0  0
 21 22  1  0  0  0  0
 21 24  1  0  0  0  0
 21 38  1  0  0  0  0
 22 23  1  0  0  0  0
 22 39  1  0  0  0  0
 22 40  1  0  0  0  0
 23 41  1  0  0  0  0
 23 42  1  0  0  0  0
 24 43  1  0  0  0  0
 24 44  1  0  0  0  0
M  END
> <ConfClashScore>
0 

> <ConfOneFourInteractionScore>
-0.984337 

> <ConfScore>
-0.00193619 

> <ConfScorePBest>
0.00259362 

> <ConfTolerance>
0.392933 

$$$$
c13.sdf
 OpenBabel04162418043D

 44 47  0  0  0  0  0  0  0  0999 V2000
    3.1706   -0.6468   -3.0956 N   0  0  0  1  0  0  0  0  0  0  0  0
    3.9084    0.2737   -3.6929 C   0  0  0  1  0  0  0  0  0  0  0  0
    4.0247    0.3458   -4.9991 N   0  0  0  1  0  0  0  0  0  0  0  0
    3.3873   -0.5279   -5.7827 C   0  0  0  1  0  0  0  0  0  0  0  0
    2.5906   -1.5242   -5.1793 C   0  0  0  1  0  0  0  0  0  0  0  0
    2.5044   -1.5522   -3.7905 C   0  0  0  1  0  0  0  0  0  0  0  0
    3.3000   -0.7252   -7.1782 C   0  0  0  1  0  0  0  0  0  0  0  0
    2.5234   -1.7456   -7.4088 N   0  0  0  1  0  0  0  0  0  0  0  0
    2.0606   -2.2725   -6.1960 N   0  0  0  1  0  0  0  0  0  0  0  0
    1.1898   -3.3969   -6.1213 C   0  0  0  1  0  0  0  0  0  0  0  0
    1.2331   -4.2325   -5.0213 C   0  0  0  1  0  0  0  0  0  0  0  0
    0.3817   -5.3238   -4.9462 C   0  0  0  1  0  0  0  0  0  0  0  0
   -0.5067   -5.5795   -5.9737 C   0  0  0  1  0  0  0  0  0  0  0  0
   -0.5499   -4.7413   -7.0769 C   0  0  0  1  0  0  0  0  0  0  0  0
    0.2989   -3.6531   -7.1519 C   0  0  0  1  0  0  0  0  0  0  0  0
   -1.2825   -6.6744   -5.7918 O   0  0  0  1  0  0  0  0  0  0  0  0
   -2.1664   -7.0377   -6.8639 C   0  0  0  1  0  0  0  0  0  0  0  0
    4.5423    1.1432   -2.8981 N   0  0  0  1  0  0  0  0  0  0  0  0
    4.4751    1.1940   -1.4429 C   0  0  0  1  0  0  0  0  0  0  0  0
    4.8856   -0.1658   -0.8482 C   0  0  0  1  0  0  0  0  0  0  0  0
    6.4280    0.0002   -0.6372 C   0  0  0  1  0  0  0  0  0  0  0  0
    6.5324    1.4489   -0.1450 C   0  0  0  1  0  0  0  0  0  0  0  0
    5.4836    2.2633   -0.8957 C   0  0  0  1  0  0  0  0  0  0  0  0
    6.9430   -0.9626    0.3920 N   0  0  0  1  0  0  0  0  0  0  0  0
    1.9273   -2.2713   -3.3093 H   0  0  0  1  0  0  0  0  0  0  0  0
    3.7768   -0.1508   -7.9023 H   0  0  0  1  0  0  0  0  0  0  0  0
    1.9043   -4.0424   -4.2499 H   0  0  0  1  0  0  0  0  0  0  0  0
    0.4115   -5.9503   -4.1166 H   0  0  0  1  0  0  0  0  0  0  0  0
   -1.2211   -4.9313   -7.8483 H   0  0  0  1  0  0  0  0  0  0  0  0
    0.2692   -3.0266   -7.9815 H   0  0  0  1  0  0  0  0  0  0  0  0
   -3.0936   -6.5150   -6.7550 H   0  0  0  1  0  0  0  0  0  0  0  0
   -2.3462   -8.0921   -6.8357 H   0  0  0  1  0  0  0  0  0  0  0  0
   -1.7178   -6.7767   -7.7996 H   0  0  0  1  0  0  0  0  0  0  0  0
    5.1077    1.8121   -3.3377 H   0  0  0  1  0  0  0  0  0  0  0  0
    3.4790    1.4409   -1.1398 H   0  0  0  1  0  0  0  0  0  0  0  0
    4.3867   -0.3465    0.0809 H   0  0  0  1  0  0  0  0  0  0  0  0
    4.6733   -0.9638   -1.5287 H   0  0  0  1  0  0  0  0  0  0  0  0
    6.9621   -0.1375   -1.5541 H   0  0  0  1  0  0  0  0  0  0  0  0
    7.5094    1.8346   -0.3489 H   0  0  0  1  0  0  0  0  0  0  0  0
    6.3439    1.4918    0.9074 H   0  0  0  1  0  0  0  0  0  0  0  0
    4.9903    2.9453   -0.2350 H   0  0  0  1  0  0  0  0  0  0  0  0
    5.9320    2.8071   -1.7007 H   0  0  0  1  0  0  0  0  0  0  0  0
    6.6631   -1.8722    0.1582 H   0  0  0  1  0  0  0  0  0  0  0  0
    6.5808   -0.7254    1.2712 H   0  0  0  1  0  0  0  0  0  0  0  0
  1  2  4  0  0  0  0
  1  6  4  0  0  0  0
  2  3  4  0  0  0  0
  2 18  1  0  0  0  0
  3  4  4  0  0  0  0
  4  5  4  0  0  0  0
  4  7  4  0  0  0  0
  5  6  4  0  0  0  0
  5  9  4  0  0  0  0
  6 25  1  0  0  0  0
  7  8  4  0  0  0  0
  7 26  1  0  0  0  0
  8  9  4  0  0  0  0
  9 10  1  0  0  0  0
 10 11  4  0  0  0  0
 10 15  4  0  0  0  0
 11 12  4  0  0  0  0
 11 27  1  0  0  0  0
 12 13  4  0  0  0  0
 12 28  1  0  0  0  0
 13 14  4  0  0  0  0
 13 16  1  0  0  0  0
 14 15  4  0  0  0  0
 14 29  1  0  0  0  0
 15 30  1  0  0  0  0
 16 17  1  0  0  0  0
 17 31  1  0  0  0  0
 17 32  1  0  0  0  0
 17 33  1  0  0  0  0
 18 19  1  0  0  0  0
 18 34  1  0  0  0  0
 19 20  1  0  0  0  0
 19 23  1  0  0  0  0
 19 35  1  0  0  0  0
 20 21  1  0  0  0  0
 20 36  1  0  0  0  0
 20 37  1  0  0  0  0
 21 22  1  0  0  0  0
 21 24  1  0  0  0  0
 21 38  1  0  0  0  0
 22 23  1  0  0  0  0
 22 39  1  0  0  0  0
 22 40  1  0  0  0  0
 23 41  1  0  0  0  0
 23 42  1  0  0  0  0
 24 43  1  0  0  0  0
 24 44  1  0  0  0  0
M  END
> <ConfClashScore>
0 

> <ConfOneFourInteractionScore>
-0.985399 

> <ConfScore>
-0.00137552 

> <ConfScorePBest>
0.00258029 

> <ConfTolerance>
0.445724 

$$$$
c13.sdf
 OpenBabel04162418043D

 44 47  0  0  0  0  0  0  0  0999 V2000
    3.0069    1.6404   -4.5498 N   0  0  0  1  0  0  0  0  0  0  0  0
    3.3858    0.9900   -3.4627 C   0  0  0  1  0  0  0  0  0  0  0  0
    3.2091   -0.3033   -3.3172 N   0  0  0  1  0  0  0  0  0  0  0  0
    2.6280   -1.0180   -4.2841 C   0  0  0  1  0  0  0  0  0  0  0  0
    2.2108   -0.3566   -5.4588 C   0  0  0  1  0  0  0  0  0  0  0  0
    2.4238    1.0152   -5.5577 C   0  0  0  1  0  0  0  0  0  0  0  0
    2.2970   -2.3815   -4.4441 C   0  0  0  1  0  0  0  0  0  0  0  0
    1.7306   -2.5411   -5.6065 N   0  0  0  1  0  0  0  0  0  0  0  0
    1.6564   -1.3097   -6.2705 N   0  0  0  1  0  0  0  0  0  0  0  0
    1.0798   -1.2152   -7.5587 C   0  0  0  1  0  0  0  0  0  0  0  0
    1.8747   -1.5401   -8.6416 C   0  0  0  1  0  0  0  0  0  0  0  0
    1.3583   -1.4701   -9.9261 C   0  0  0  1  0  0  0  0  0  0  0  0
    0.0502   -1.0703  -10.1243 C   0  0  0  1  0  0  0  0  0  0  0  0
   -0.7470   -0.7445   -9.0380 C   0  0  0  1  0  0  0  0  0  0  0  0
   -0.2322   -0.8143   -7.7573 C   0  0  0  1  0  0  0  0  0  0  0  0
   -0.5100   -0.9766  -11.3459 O   0  0  0  1  0  0  0  0  0  0  0  0
    0.3431   -1.3780  -12.4430 C   0  0  0  1  0  0  0  0  0  0  0  0
    3.9829    1.6872   -2.4536 N   0  0  0  1  0  0  0  0  0  0  0  0
    4.4416    1.0325   -1.2411 C   0  0  0  1  0  0  0  0  0  0  0  0
    5.3216   -0.1701   -1.5904 C   0  0  0  1  0  0  0  0  0  0  0  0
    6.4923   -0.1250   -0.6054 C   0  0  0  1  0  0  0  0  0  0  0  0
    6.7217    1.3784   -0.4494 C   0  0  0  1  0  0  0  0  0  0  0  0
    5.3163    1.9892   -0.4210 C   0  0  0  1  0  0  0  0  0  0  0  0
    6.1330   -0.7471    0.6806 N   0  0  0  1  0  0  0  0  0  0  0  0
    2.1302    1.5377   -6.4076 H   0  0  0  1  0  0  0  0  0  0  0  0
    2.4759   -3.1339   -3.7488 H   0  0  0  1  0  0  0  0  0  0  0  0
    2.8603   -1.8370   -8.4928 H   0  0  0  1  0  0  0  0  0  0  0  0
    1.9552   -1.7184  -10.7407 H   0  0  0  1  0  0  0  0  0  0  0  0
   -1.7326   -0.4476   -9.1868 H   0  0  0  1  0  0  0  0  0  0  0  0
   -0.8291   -0.5660   -6.9426 H   0  0  0  1  0  0  0  0  0  0  0  0
   -0.0944   -1.0661  -13.3683 H   0  0  0  1  0  0  0  0  0  0  0  0
    0.4499   -2.4427  -12.4403 H   0  0  0  1  0  0  0  0  0  0  0  0
    1.3048   -0.9223  -12.3319 H   0  0  0  1  0  0  0  0  0  0  0  0
    4.1055    2.6548   -2.5492 H   0  0  0  1  0  0  0  0  0  0  0  0
    3.5975    0.7173   -0.6641 H   0  0  0  1  0  0  0  0  0  0  0  0
    5.6772   -0.0925   -2.5966 H   0  0  0  1  0  0  0  0  0  0  0  0
    4.7718   -1.0808   -1.4752 H   0  0  0  1  0  0  0  0  0  0  0  0
    7.3570   -0.6101   -1.0076 H   0  0  0  1  0  0  0  0  0  0  0  0
    7.2822    1.7616   -1.2764 H   0  0  0  1  0  0  0  0  0  0  0  0
    7.2417    1.5875    0.4620 H   0  0  0  1  0  0  0  0  0  0  0  0
    4.9572    2.0559    0.5848 H   0  0  0  1  0  0  0  0  0  0  0  0
    5.3223    2.9634   -0.8634 H   0  0  0  1  0  0  0  0  0  0  0  0
    5.3247   -0.3215    1.0354 H   0  0  0  1  0  0  0  0  0  0  0  0
    6.8694   -0.6304    1.3167 H   0  0  0  1  0  0  0  0  0  0  0  0
  1  2  4  0  0  0  0
  1  6  4  0  0  0  0
  2  3  4  0  0  0  0
  2 18  1  0  0  0  0
  3  4  4  0  0  0  0
  4  5  4  0  0  0  0
  4  7  4  0  0  0  0
  5  6  4  0  0  0  0
  5  9  4  0  0  0  0
  6 25  1  0  0  0  0
  7  8  4  0  0  0  0
  7 26  1  0  0  0  0
  8  9  4  0  0  0  0
  9 10  1  0  0  0  0
 10 11  4  0  0  0  0
 10 15  4  0  0  0  0
 11 12  4  0  0  0  0
 11 27  1  0  0  0  0
 12 13  4  0  0  0  0
 12 28  1  0  0  0  0
 13 14  4  0  0  0  0
 13 16  1  0  0  0  0
 14 15  4  0  0  0  0
 14 29  1  0  0  0  0
 15 30  1  0  0  0  0
 16 17  1  0  0  0  0
 17 31  1  0  0  0  0
 17 32  1  0  0  0  0
 17 33  1  0  0  0  0
 18 19  1  0  0  0  0
 18 34  1  0  0  0  0
 19 20  1  0  0  0  0
 19 23  1  0  0  0  0
 19 35  1  0  0  0  0
 20 21  1  0  0  0  0
 20 36  1  0  0  0  0
 20 37  1  0  0  0  0
 21 22  1  0  0  0  0
 21 24  1  0  0  0  0
 21 38  1  0  0  0  0
 22 23  1  0  0  0  0
 22 39  1  0  0  0  0
 22 40  1  0  0  0  0
 23 41  1  0  0  0  0
 23 42  1  0  0  0  0
 24 43  1  0  0  0  0
 24 44  1  0  0  0  0
M  END
> <ConfClashScore>
0 

> <ConfOneFourInteractionScore>
-0.991168 

> <ConfScore>
-0.000987539 

> <ConfScorePBest>
0.00256696 

> <ConfTolerance>
0.432989 

$$$$
c13.sdf
 OpenBabel04162418043D

 44 47  0  0  0  0  0  0  0  0999 V2000
    2.0481    0.8653   -4.0692 N   0  0  0  1  0  0  0  0  0  0  0  0
    2.7973    0.5151   -3.0375 C   0  0  0  1  0  0  0  0  0  0  0  0
    2.8663   -0.7228   -2.6041 N   0  0  0  1  0  0  0  0  0  0  0  0
    2.1663   -1.6883   -3.2051 C   0  0  0  1  0  0  0  0  0  0  0  0
    1.3557   -1.3507   -4.3098 C   0  0  0  1  0  0  0  0  0  0  0  0
    1.3216   -0.0228   -4.7250 C   0  0  0  1  0  0  0  0  0  0  0  0
    2.0182   -3.0775   -2.9997 C   0  0  0  1  0  0  0  0  0  0  0  0
    1.1950   -3.5473   -3.8935 N   0  0  0  1  0  0  0  0  0  0  0  0
    0.7589   -2.5098   -4.7279 N   0  0  0  1  0  0  0  0  0  0  0  0
   -0.0364   -2.7564   -5.8570 C   0  0  0  1  0  0  0  0  0  0  0  0
    0.1981   -2.2276   -7.1122 C   0  0  0  1  0  0  0  0  0  0  0  0
   -0.6482   -2.5395   -8.1647 C   0  0  0  1  0  0  0  0  0  0  0  0
   -1.7296   -3.3751   -7.9579 C   0  0  0  1  0  0  0  0  0  0  0  0
   -1.9647   -3.9054   -6.6989 C   0  0  0  1  0  0  0  0  0  0  0  0
   -1.1209   -3.5944   -5.6493 C   0  0  0  1  0  0  0  0  0  0  0  0
   -2.4853   -3.6026   -9.0543 O   0  0  0  1  0  0  0  0  0  0  0  0
   -3.7631   -4.2424   -8.9121 C   0  0  0  1  0  0  0  0  0  0  0  0
    3.5423    1.4164   -2.3623 N   0  0  0  1  0  0  0  0  0  0  0  0
    4.3868    1.0788   -1.1859 C   0  0  0  1  0  0  0  0  0  0  0  0
    5.2834   -0.1255   -1.4740 C   0  0  0  1  0  0  0  0  0  0  0  0
    6.4324   -0.0096   -0.4664 C   0  0  0  1  0  0  0  0  0  0  0  0
    6.5696    1.4909   -0.1786 C   0  0  0  1  0  0  0  0  0  0  0  0
    5.4111    2.1804   -0.9030 C   0  0  0  1  0  0  0  0  0  0  0  0
    6.1059   -0.7553    0.7878 N   0  0  0  1  0  0  0  0  0  0  0  0
    0.7362    0.2648   -5.5350 H   0  0  0  1  0  0  0  0  0  0  0  0
    2.4885   -3.6337   -2.2574 H   0  0  0  1  0  0  0  0  0  0  0  0
    1.0095   -1.5957   -7.2670 H   0  0  0  1  0  0  0  0  0  0  0  0
   -0.4695   -2.1449   -9.1102 H   0  0  0  1  0  0  0  0  0  0  0  0
   -2.7761   -4.5373   -6.5441 H   0  0  0  1  0  0  0  0  0  0  0  0
   -1.2996   -3.9891   -4.7039 H   0  0  0  1  0  0  0  0  0  0  0  0
   -3.6480   -5.2998   -9.0284 H   0  0  0  1  0  0  0  0  0  0  0  0
   -4.4323   -3.8723   -9.6605 H   0  0  0  1  0  0  0  0  0  0  0  0
   -4.1611   -4.0319   -7.9414 H   0  0  0  1  0  0  0  0  0  0  0  0
    3.5254    2.3481   -2.6655 H   0  0  0  1  0  0  0  0  0  0  0  0
    3.7613    0.9026   -0.3359 H   0  0  0  1  0  0  0  0  0  0  0  0
    5.6560   -0.0865   -2.4762 H   0  0  0  1  0  0  0  0  0  0  0  0
    4.7454   -1.0389   -1.3283 H   0  0  0  1  0  0  0  0  0  0  0  0
    7.3384   -0.3949   -0.8855 H   0  0  0  1  0  0  0  0  0  0  0  0
    6.5074    1.6724    0.8740 H   0  0  0  1  0  0  0  0  0  0  0  0
    7.5054    1.8540   -0.5491 H   0  0  0  1  0  0  0  0  0  0  0  0
    5.7509    2.6180   -1.8184 H   0  0  0  1  0  0  0  0  0  0  0  0
    4.9815    2.9389   -0.2824 H   0  0  0  1  0  0  0  0  0  0  0  0
    6.8312   -0.6381    1.4363 H   0  0  0  1  0  0  0  0  0  0  0  0
    6.0016   -1.7080    0.5834 H   0  0  0  1  0  0  0  0  0  0  0  0
  1  2  4  0  0  0  0
  1  6  4  0  0  0  0
  2  3  4  0  0  0  0
  2 18  1  0  0  0  0
  3  4  4  0  0  0  0
  4  5  4  0  0  0  0
  4  7  4  0  0  0  0
  5  6  4  0  0  0  0
  5  9  4  0  0  0  0
  6 25  1  0  0  0  0
  7  8  4  0  0  0  0
  7 26  1  0  0  0  0
  8  9  4  0  0  0  0
  9 10  1  0  0  0  0
 10 11  4  0  0  0  0
 10 15  4  0  0  0  0
 11 12  4  0  0  0  0
 11 27  1  0  0  0  0
 12 13  4  0  0  0  0
 12 28  1  0  0  0  0
 13 14  4  0  0  0  0
 13 16  1  0  0  0  0
 14 15  4  0  0  0  0
 14 29  1  0  0  0  0
 15 30  1  0  0  0  0
 16 17  1  0  0  0  0
 17 31  1  0  0  0  0
 17 32  1  0  0  0  0
 17 33  1  0  0  0  0
 18 19  1  0  0  0  0
 18 34  1  0  0  0  0
 19 20  1  0  0  0  0
 19 23  1  0  0  0  0
 19 35  1  0  0  0  0
 20 21  1  0  0  0  0
 20 36  1  0  0  0  0
 20 37  1  0  0  0  0
 21 22  1  0  0  0  0
 21 24  1  0  0  0  0
 21 38  1  0  0  0  0
 22 23  1  0  0  0  0
 22 39  1  0  0  0  0
 22 40  1  0  0  0  0
 23 41  1  0  0  0  0
 23 42  1  0  0  0  0
 24 43  1  0  0  0  0
 24 44  1  0  0  0  0
M  END
> <ConfClashScore>
0 

> <ConfOneFourInteractionScore>
-0.985399 

> <ConfScore>
-2.77716e-05 

> <ConfScorePBest>
0.00255363 

> <ConfTolerance>
0.446487 

$$$$
c13.sdf
 OpenBabel04162418043D

 44 47  0  0  0  0  0  0  0  0999 V2000
    2.7996   -0.7196   -2.5510 N   0  0  0  1  0  0  0  0  0  0  0  0
    2.7285    0.5579   -2.8847 C   0  0  0  1  0  0  0  0  0  0  0  0
    1.9261    0.9969   -3.8272 N   0  0  0  1  0  0  0  0  0  0  0  0
    1.1392    0.1479   -4.4932 C   0  0  0  1  0  0  0  0  0  0  0  0
    1.1887   -1.2233   -4.1634 C   0  0  0  1  0  0  0  0  0  0  0  0
    2.0581   -1.6311   -3.1559 C   0  0  0  1  0  0  0  0  0  0  0  0
    0.1905    0.2841   -5.5302 C   0  0  0  1  0  0  0  0  0  0  0  0
   -0.2956   -0.8919   -5.8099 N   0  0  0  1  0  0  0  0  0  0  0  0
    0.2961   -1.8576   -4.9852 N   0  0  0  1  0  0  0  0  0  0  0  0
   -0.0308   -3.2390   -5.0540 C   0  0  0  1  0  0  0  0  0  0  0  0
    0.8735   -4.1372   -5.5884 C   0  0  0  1  0  0  0  0  0  0  0  0
    0.5568   -5.4853   -5.6506 C   0  0  0  1  0  0  0  0  0  0  0  0
   -0.6653   -5.9305   -5.1831 C   0  0  0  1  0  0  0  0  0  0  0  0
   -1.5722   -5.0295   -4.6471 C   0  0  0  1  0  0  0  0  0  0  0  0
   -1.2565   -3.6853   -4.5851 C   0  0  0  1  0  0  0  0  0  0  0  0
   -1.0864   -7.2175   -5.1961 O   0  0  0  1  0  0  0  0  0  0  0  0
   -0.1833   -8.1981   -5.7303 C   0  0  0  1  0  0  0  0  0  0  0  0
    3.5177    1.4548   -2.2261 N   0  0  0  1  0  0  0  0  0  0  0  0
    4.3965    1.0468   -1.1381 C   0  0  0  1  0  0  0  0  0  0  0  0
    5.2708   -0.1391   -1.5462 C   0  0  0  1  0  0  0  0  0  0  0  0
    6.4668   -0.0929   -0.5890 C   0  0  0  1  0  0  0  0  0  0  0  0
    6.6270    1.3851   -0.2111 C   0  0  0  1  0  0  0  0  0  0  0  0
    5.4400    2.1243   -0.8332 C   0  0  0  1  0  0  0  0  0  0  0  0
    6.1955   -0.9168    0.6268 N   0  0  0  1  0  0  0  0  0  0  0  0
    2.1229   -2.6330   -2.8846 H   0  0  0  1  0  0  0  0  0  0  0  0
   -0.0761    1.1758   -5.9942 H   0  0  0  1  0  0  0  0  0  0  0  0
    1.7915   -3.8017   -5.9438 H   0  0  0  1  0  0  0  0  0  0  0  0
    1.2389   -6.1617   -6.0490 H   0  0  0  1  0  0  0  0  0  0  0  0
   -2.4902   -5.3650   -4.2917 H   0  0  0  1  0  0  0  0  0  0  0  0
   -1.9386   -3.0088   -4.1866 H   0  0  0  1  0  0  0  0  0  0  0  0
    0.8223   -7.8432   -5.6420 H   0  0  0  1  0  0  0  0  0  0  0  0
   -0.4117   -8.3686   -6.7616 H   0  0  0  1  0  0  0  0  0  0  0  0
   -0.2875   -9.1130   -5.1854 H   0  0  0  1  0  0  0  0  0  0  0  0
    3.4929    2.3978   -2.4916 H   0  0  0  1  0  0  0  0  0  0  0  0
    3.8107    0.8177   -0.2726 H   0  0  0  1  0  0  0  0  0  0  0  0
    4.7345   -1.0583   -1.4347 H   0  0  0  1  0  0  0  0  0  0  0  0
    5.5959   -0.0360   -2.5604 H   0  0  0  1  0  0  0  0  0  0  0  0
    7.3495   -0.4531   -1.0748 H   0  0  0  1  0  0  0  0  0  0  0  0
    7.5466    1.7686   -0.6013 H   0  0  0  1  0  0  0  0  0  0  0  0
    6.6159    1.4978    0.8529 H   0  0  0  1  0  0  0  0  0  0  0  0
    5.7390    2.6195   -1.7334 H   0  0  0  1  0  0  0  0  0  0  0  0
    5.0451    2.8421   -0.1449 H   0  0  0  1  0  0  0  0  0  0  0  0
    5.4593   -0.5170    1.1354 H   0  0  0  1  0  0  0  0  0  0  0  0
    6.9996   -0.9479    1.1862 H   0  0  0  1  0  0  0  0  0  0  0  0
  1  2  4  0  0  0  0
  1  6  4  0  0  0  0
  2  3  4  0  0  0  0
  2 18  1  0  0  0  0
  3  4  4  0  0  0  0
  4  5  4  0  0  0  0
  4  7  4  0  0  0  0
  5  6  4  0  0  0  0
  5  9  4  0  0  0  0
  6 25  1  0  0  0  0
  7  8  4  0  0  0  0
  7 26  1  0  0  0  0
  8  9  4  0  0  0  0
  9 10  1  0  0  0  0
 10 11  4  0  0  0  0
 10 15  4  0  0  0  0
 11 12  4  0  0  0  0
 11 27  1  0  0  0  0
 12 13  4  0  0  0  0
 12 28  1  0  0  0  0
 13 14  4  0  0  0  0
 13 16  1  0  0  0  0
 14 15  4  0  0  0  0
 14 29  1  0  0  0  0
 15 30  1  0  0  0  0
 16 17  1  0  0  0  0
 17 31  1  0  0  0  0
 17 32  1  0  0  0  0
 17 33  1  0  0  0  0
 18 19  1  0  0  0  0
 18 34  1  0  0  0  0
 19 20  1  0  0  0  0
 19 23  1  0  0  0  0
 19 35  1  0  0  0  0
 20 21  1  0  0  0  0
 20 36  1  0  0  0  0
 20 37  1  0  0  0  0
 21 22  1  0  0  0  0
 21 24  1  0  0  0  0
 21 38  1  0  0  0  0
 22 23  1  0  0  0  0
 22 39  1  0  0  0  0
 22 40  1  0  0  0  0
 23 41  1  0  0  0  0
 23 42  1  0  0  0  0
 24 43  1  0  0  0  0
 24 44  1  0  0  0  0
M  END
> <ConfClashScore>
0 

> <ConfOneFourInteractionScore>
-0.985399 

> <ConfScore>
0.000168025 

> <ConfScorePBest>
0.00254031 

> <ConfTolerance>
0.274681 

$$$$
c13.sdf
 OpenBabel04162418043D

 44 47  0  0  0  0  0  0  0  0999 V2000
    2.5647    1.7564   -4.4630 N   0  0  0  1  0  0  0  0  0  0  0  0
    2.8345    1.5712   -3.1819 C   0  0  0  1  0  0  0  0  0  0  0  0
    1.8990    1.5487   -2.2603 N   0  0  0  1  0  0  0  0  0  0  0  0
    0.6171    1.7160   -2.5957 C   0  0  0  1  0  0  0  0  0  0  0  0
    0.2922    1.9162   -3.9542 C   0  0  0  1  0  0  0  0  0  0  0  0
    1.3250    1.9305   -4.8870 C   0  0  0  1  0  0  0  0  0  0  0  0
   -0.5980    1.7461   -1.8768 C   0  0  0  1  0  0  0  0  0  0  0  0
   -1.5753    1.9458   -2.7149 N   0  0  0  1  0  0  0  0  0  0  0  0
   -1.0682    2.0573   -4.0162 N   0  0  0  1  0  0  0  0  0  0  0  0
   -1.9668    2.1257   -5.1065 C   0  0  0  1  0  0  0  0  0  0  0  0
   -3.1792    1.4651   -5.0451 C   0  0  0  1  0  0  0  0  0  0  0  0
   -4.0620    1.5366   -6.1114 C   0  0  0  1  0  0  0  0  0  0  0  0
   -3.7277    2.2640   -7.2380 C   0  0  0  1  0  0  0  0  0  0  0  0
   -2.5116    2.9265   -7.2995 C   0  0  0  1  0  0  0  0  0  0  0  0
   -1.6312    2.8553   -6.2363 C   0  0  0  1  0  0  0  0  0  0  0  0
   -4.6651    2.2567   -8.2153 O   0  0  0  1  0  0  0  0  0  0  0  0
   -4.4058    3.0571   -9.3792 C   0  0  0  1  0  0  0  0  0  0  0  0
    4.0980    1.3926   -2.7408 N   0  0  0  1  0  0  0  0  0  0  0  0
    4.4537    1.2177   -1.3298 C   0  0  0  1  0  0  0  0  0  0  0  0
    5.0520   -0.1769   -1.1015 C   0  0  0  1  0  0  0  0  0  0  0  0
    6.4748    0.0680   -0.5914 C   0  0  0  1  0  0  0  0  0  0  0  0
    6.4199    1.4593    0.0489 C   0  0  0  1  0  0  0  0  0  0  0  0
    5.5397    2.2214   -0.9280 C   0  0  0  1  0  0  0  0  0  0  0  0
    6.8581   -0.9642    0.4202 N   0  0  0  1  0  0  0  0  0  0  0  0
    1.1254    2.0753   -5.8973 H   0  0  0  1  0  0  0  0  0  0  0  0
   -0.6965    1.6284   -0.8482 H   0  0  0  1  0  0  0  0  0  0  0  0
   -3.4291    0.9144   -4.1990 H   0  0  0  1  0  0  0  0  0  0  0  0
   -4.9761    1.0428   -6.0636 H   0  0  0  1  0  0  0  0  0  0  0  0
   -2.2616    3.4772   -8.1456 H   0  0  0  1  0  0  0  0  0  0  0  0
   -0.7172    3.3491   -6.2841 H   0  0  0  1  0  0  0  0  0  0  0  0
   -5.2773    3.6290   -9.6207 H   0  0  0  1  0  0  0  0  0  0  0  0
   -4.1584    2.4198  -10.2022 H   0  0  0  1  0  0  0  0  0  0  0  0
   -3.5886    3.7190   -9.1818 H   0  0  0  1  0  0  0  0  0  0  0  0
    4.8200    1.3792   -3.4033 H   0  0  0  1  0  0  0  0  0  0  0  0
    3.5828    1.3512   -0.7227 H   0  0  0  1  0  0  0  0  0  0  0  0
    5.0730   -0.7294   -2.0176 H   0  0  0  1  0  0  0  0  0  0  0  0
    4.4809   -0.7142   -0.3734 H   0  0  0  1  0  0  0  0  0  0  0  0
    7.1744    0.0519   -1.4009 H   0  0  0  1  0  0  0  0  0  0  0  0
    5.9780    1.4219    1.0227 H   0  0  0  1  0  0  0  0  0  0  0  0
    7.3947    1.8953    0.1156 H   0  0  0  1  0  0  0  0  0  0  0  0
    5.1064    3.0787   -0.4568 H   0  0  0  1  0  0  0  0  0  0  0  0
    6.1037    2.5306   -1.7831 H   0  0  0  1  0  0  0  0  0  0  0  0
    6.7081   -1.8584    0.0482 H   0  0  0  1  0  0  0  0  0  0  0  0
    6.3121   -0.8501    1.2260 H   0  0  0  1  0  0  0  0  0  0  0  0
  1  2  4  0  0  0  0
  1  6  4  0  0  0  0
  2  3  4  0  0  0  0
  2 18  1  0  0  0  0
  3  4  4  0  0  0  0
  4  5  4  0  0  0  0
  4  7  4  0  0  0  0
  5  6  4  0  0  0  0
  5  9  4  0  0  0  0
  6 25  1  0  0  0  0
  7  8  4  0  0  0  0
  7 26  1  0  0  0  0
  8  9  4  0  0  0  0
  9 10  1  0  0  0  0
 10 11  4  0  0  0  0
 10 15  4  0  0  0  0
 11 12  4  0  0  0  0
 11 27  1  0  0  0  0
 12 13  4  0  0  0  0
 12 28  1  0  0  0  0
 13 14  4  0  0  0  0
 13 16  1  0  0  0  0
 14 15  4  0  0  0  0
 14 29  1  0  0  0  0
 15 30  1  0  0  0  0
 16 17  1  0  0  0  0
 17 31  1  0  0  0  0
 17 32  1  0  0  0  0
 17 33  1  0  0  0  0
 18 19  1  0  0  0  0
 18 34  1  0  0  0  0
 19 20  1  0  0  0  0
 19 23  1  0  0  0  0
 19 35  1  0  0  0  0
 20 21  1  0  0  0  0
 20 36  1  0  0  0  0
 20 37  1  0  0  0  0
 21 22  1  0  0  0  0
 21 24  1  0  0  0  0
 21 38  1  0  0  0  0
 22 23  1  0  0  0  0
 22 39  1  0  0  0  0
 22 40  1  0  0  0  0
 23 41  1  0  0  0  0
 23 42  1  0  0  0  0
 24 43  1  0  0  0  0
 24 44  1  0  0  0  0
M  END
> <ConfClashScore>
0 

> <ConfOneFourInteractionScore>
-0.984337 

> <ConfScore>
0.000592295 

> <ConfScorePBest>
0.00252698 

> <ConfTolerance>
0.476755 

$$$$
c13.sdf
 OpenBabel04162418043D

 44 47  0  0  0  0  0  0  0  0999 V2000
    2.8684    1.8445   -4.2588 N   0  0  0  1  0  0  0  0  0  0  0  0
    3.8232    1.6421   -3.3667 C   0  0  0  1  0  0  0  0  0  0  0  0
    5.0975    1.6461   -3.6845 N   0  0  0  1  0  0  0  0  0  0  0  0
    5.4776    1.8595   -4.9468 C   0  0  0  1  0  0  0  0  0  0  0  0
    4.4853    2.0794   -5.9258 C   0  0  0  1  0  0  0  0  0  0  0  0
    3.1508    2.0639   -5.5311 C   0  0  0  1  0  0  0  0  0  0  0  0
    6.7241    1.9269   -5.6070 C   0  0  0  1  0  0  0  0  0  0  0  0
    6.5160    2.1654   -6.8708 N   0  0  0  1  0  0  0  0  0  0  0  0
    5.1399    2.2676   -7.1134 N   0  0  0  1  0  0  0  0  0  0  0  0
    4.6724    2.6224   -8.4004 C   0  0  0  1  0  0  0  0  0  0  0  0
    4.0149    3.8232   -8.5898 C   0  0  0  1  0  0  0  0  0  0  0  0
    3.5614    4.1733   -9.8521 C   0  0  0  1  0  0  0  0  0  0  0  0
    3.7620    3.3193  -10.9201 C   0  0  0  1  0  0  0  0  0  0  0  0
    4.4214    2.1149  -10.7299 C   0  0  0  1  0  0  0  0  0  0  0  0
    4.8736    1.7657   -9.4714 C   0  0  0  1  0  0  0  0  0  0  0  0
    3.3610    3.5503  -12.1928 O   0  0  0  1  0  0  0  0  0  0  0  0
    2.7877    4.8359  -12.4770 C   0  0  0  1  0  0  0  0  0  0  0  0
    3.4778    1.4237   -2.0851 N   0  0  0  1  0  0  0  0  0  0  0  0
    4.4310    1.0709   -1.0318 C   0  0  0  1  0  0  0  0  0  0  0  0
    5.2790   -0.1363   -1.4328 C   0  0  0  1  0  0  0  0  0  0  0  0
    6.5349   -0.0413   -0.5595 C   0  0  0  1  0  0  0  0  0  0  0  0
    6.7166    1.4544   -0.2717 C   0  0  0  1  0  0  0  0  0  0  0  0
    5.4901    2.1614   -0.8532 C   0  0  0  1  0  0  0  0  0  0  0  0
    6.3449   -0.8002    0.7148 N   0  0  0  1  0  0  0  0  0  0  0  0
    2.3910    2.2218   -6.2235 H   0  0  0  1  0  0  0  0  0  0  0  0
    7.6546    1.8060   -5.1585 H   0  0  0  1  0  0  0  0  0  0  0  0
    3.8604    4.4641   -7.7855 H   0  0  0  1  0  0  0  0  0  0  0  0
    3.0702    5.0787   -9.9955 H   0  0  0  1  0  0  0  0  0  0  0  0
    4.5760    1.4740  -11.5343 H   0  0  0  1  0  0  0  0  0  0  0  0
    5.3649    0.8603   -9.3280 H   0  0  0  1  0  0  0  0  0  0  0  0
    3.5155    5.5993  -12.2970 H   0  0  0  1  0  0  0  0  0  0  0  0
    1.9396    4.9957  -11.8444 H   0  0  0  1  0  0  0  0  0  0  0  0
    2.4807    4.8707  -13.5015 H   0  0  0  1  0  0  0  0  0  0  0  0
    2.5319    1.5057   -1.8422 H   0  0  0  1  0  0  0  0  0  0  0  0
    3.9034    0.8888   -0.1189 H   0  0  0  1  0  0  0  0  0  0  0  0
    5.5369   -0.0875   -2.4701 H   0  0  0  1  0  0  0  0  0  0  0  0
    4.7529   -1.0474   -1.2380 H   0  0  0  1  0  0  0  0  0  0  0  0
    7.3846   -0.4281   -1.0823 H   0  0  0  1  0  0  0  0  0  0  0  0
    7.6080    1.8152   -0.7409 H   0  0  0  1  0  0  0  0  0  0  0  0
    6.7748    1.6232    0.7833 H   0  0  0  1  0  0  0  0  0  0  0  0
    5.1396    2.9152   -0.1796 H   0  0  0  1  0  0  0  0  0  0  0  0
    5.7287    2.6078   -1.7959 H   0  0  0  1  0  0  0  0  0  0  0  0
    6.0052   -1.6972    0.5138 H   0  0  0  1  0  0  0  0  0  0  0  0
    5.7019   -0.3274    1.2835 H   0  0  0  1  0  0  0  0  0  0  0  0
  1  2  4  0  0  0  0
  1  6  4  0  0  0  0
  2  3  4  0  0  0  0
  2 18  1  0  0  0  0
  3  4  4  0  0  0  0
  4  5  4  0  0  0  0
  4  7  4  0  0  0  0
  5  6  4  0  0  0  0
  5  9  4  0  0  0  0
  6 25  1  0  0  0  0
  7  8  4  0  0  0  0
  7 26  1  0  0  0  0
  8  9  4  0  0  0  0
  9 10  1  0  0  0  0
 10 11  4  0  0  0  0
 10 15  4  0  0  0  0
 11 12  4  0  0  0  0
 11 27  1  0  0  0  0
 12 13  4  0  0  0  0
 12 28  1  0  0  0  0
 13 14  4  0  0  0  0
 13 16  1  0  0  0  0
 14 15  4  0  0  0  0
 14 29  1  0  0  0  0
 15 30  1  0  0  0  0
 16 17  1  0  0  0  0
 17 31  1  0  0  0  0
 17 32  1  0  0  0  0
 17 33  1  0  0  0  0
 18 19  1  0  0  0  0
 18 34  1  0  0  0  0
 19 20  1  0  0  0  0
 19 23  1  0  0  0  0
 19 35  1  0  0  0  0
 20 21  1  0  0  0  0
 20 36  1  0  0  0  0
 20 37  1  0  0  0  0
 21 22  1  0  0  0  0
 21 24  1  0  0  0  0
 21 38  1  0  0  0  0
 22 23  1  0  0  0  0
 22 39  1  0  0  0  0
 22 40  1  0  0  0  0
 23 41  1  0  0  0  0
 23 42  1  0  0  0  0
 24 43  1  0  0  0  0
 24 44  1  0  0  0  0
M  END
> <ConfClashScore>
0 

> <ConfOneFourInteractionScore>
-0.980204 

> <ConfScore>
0.00226638 

> <ConfScorePBest>
0.00251365 

> <ConfTolerance>
0.236863 

$$$$
c13.sdf
 OpenBabel04162418043D

 44 47  0  0  0  0  0  0  0  0999 V2000
    3.1514   -0.6816   -3.1194 N   0  0  0  1  0  0  0  0  0  0  0  0
    3.5832    0.4539   -3.6414 C   0  0  0  1  0  0  0  0  0  0  0  0
    3.4608    0.7345   -4.9186 N   0  0  0  1  0  0  0  0  0  0  0  0
    2.8834   -0.1378   -5.7489 C   0  0  0  1  0  0  0  0  0  0  0  0
    2.4105   -1.3603   -5.2262 C   0  0  0  1  0  0  0  0  0  0  0  0
    2.5674   -1.6035   -3.8649 C   0  0  0  1  0  0  0  0  0  0  0  0
    2.6018   -0.1494   -7.1326 C   0  0  0  1  0  0  0  0  0  0  0  0
    2.0122   -1.2724   -7.4303 N   0  0  0  1  0  0  0  0  0  0  0  0
    1.8730   -2.0550   -6.2766 N   0  0  0  1  0  0  0  0  0  0  0  0
    1.2559   -3.3180   -6.3812 C   0  0  0  1  0  0  0  0  0  0  0  0
    0.2505   -3.7239   -5.5242 C   0  0  0  1  0  0  0  0  0  0  0  0
   -0.3257   -4.9755   -5.6756 C   0  0  0  1  0  0  0  0  0  0  0  0
    0.1088   -5.8196   -6.6801 C   0  0  0  1  0  0  0  0  0  0  0  0
    1.1172   -5.4123   -7.5396 C   0  0  0  1  0  0  0  0  0  0  0  0
    1.6919   -4.1644   -7.3887 C   0  0  0  1  0  0  0  0  0  0  0  0
   -0.5234   -7.0162   -6.7268 O   0  0  0  1  0  0  0  0  0  0  0  0
    0.0273   -8.0157   -7.5987 C   0  0  0  1  0  0  0  0  0  0  0  0
    4.1841    1.4059   -2.8824 N   0  0  0  1  0  0  0  0  0  0  0  0
    4.4473    1.2003   -1.4545 C   0  0  0  1  0  0  0  0  0  0  0  0
    5.0736   -0.1796   -1.2172 C   0  0  0  1  0  0  0  0  0  0  0  0
    6.3772    0.0601   -0.4518 C   0  0  0  1  0  0  0  0  0  0  0  0
    6.2545    1.4653    0.1424 C   0  0  0  1  0  0  0  0  0  0  0  0
    5.4852    2.2087   -0.9496 C   0  0  0  1  0  0  0  0  0  0  0  0
    6.5361   -0.9450    0.6262 N   0  0  0  1  0  0  0  0  0  0  0  0
    2.2319   -2.4928   -3.4428 H   0  0  0  1  0  0  0  0  0  0  0  0
    2.8277    0.6126   -7.8032 H   0  0  0  1  0  0  0  0  0  0  0  0
   -0.0737   -3.0903   -4.7659 H   0  0  0  1  0  0  0  0  0  0  0  0
   -1.0851   -5.2794   -5.0333 H   0  0  0  1  0  0  0  0  0  0  0  0
    1.4415   -6.0458   -8.2980 H   0  0  0  1  0  0  0  0  0  0  0  0
    2.4512   -3.8604   -8.0311 H   0  0  0  1  0  0  0  0  0  0  0  0
    0.0554   -7.6399   -8.6001 H   0  0  0  1  0  0  0  0  0  0  0  0
   -0.5830   -8.8939   -7.5646 H   0  0  0  1  0  0  0  0  0  0  0  0
    1.0199   -8.2580   -7.2810 H   0  0  0  1  0  0  0  0  0  0  0  0
    4.4488    2.2522   -3.2996 H   0  0  0  1  0  0  0  0  0  0  0  0
    3.5338    1.2964   -0.9055 H   0  0  0  1  0  0  0  0  0  0  0  0
    5.2769   -0.6588   -2.1520 H   0  0  0  1  0  0  0  0  0  0  0  0
    4.4127   -0.7908   -0.6388 H   0  0  0  1  0  0  0  0  0  0  0  0
    7.2147    0.0075   -1.1156 H   0  0  0  1  0  0  0  0  0  0  0  0
    5.7076    1.4517    1.0620 H   0  0  0  1  0  0  0  0  0  0  0  0
    7.2171    1.9032    0.3059 H   0  0  0  1  0  0  0  0  0  0  0  0
    5.0036    3.0755   -0.5476 H   0  0  0  1  0  0  0  0  0  0  0  0
    6.1429    2.5006   -1.7415 H   0  0  0  1  0  0  0  0  0  0  0  0
    7.3612   -0.7641    1.1230 H   0  0  0  1  0  0  0  0  0  0  0  0
    6.5819   -1.8414    0.2326 H   0  0  0  1  0  0  0  0  0  0  0  0
  1  2  4  0  0  0  0
  1  6  4  0  0  0  0
  2  3  4  0  0  0  0
  2 18  1  0  0  0  0
  3  4  4  0  0  0  0
  4  5  4  0  0  0  0
  4  7  4  0  0  0  0
  5  6  4  0  0  0  0
  5  9  4  0  0  0  0
  6 25  1  0  0  0  0
  7  8  4  0  0  0  0
  7 26  1  0  0  0  0
  8  9  4  0  0  0  0
  9 10  1  0  0  0  0
 10 11  4  0  0  0  0
 10 15  4  0  0  0  0
 11 12  4  0  0  0  0
 11 27  1  0  0  0  0
 12 13  4  0  0  0  0
 12 28  1  0  0  0  0
 13 14  4  0  0  0  0
 13 16  1  0  0  0  0
 14 15  4  0  0  0  0
 14 29  1  0  0  0  0
 15 30  1  0  0  0  0
 16 17  1  0  0  0  0
 17 31  1  0  0  0  0
 17 32  1  0  0  0  0
 17 33  1  0  0  0  0
 18 19  1  0  0  0  0
 18 34  1  0  0  0  0
 19 20  1  0  0  0  0
 19 23  1  0  0  0  0
 19 35  1  0  0  0  0
 20 21  1  0  0  0  0
 20 36  1  0  0  0  0
 20 37  1  0  0  0  0
 21 22  1  0  0  0  0
 21 24  1  0  0  0  0
 21 38  1  0  0  0  0
 22 23  1  0  0  0  0
 22 39  1  0  0  0  0
 22 40  1  0  0  0  0
 23 41  1  0  0  0  0
 23 42  1  0  0  0  0
 24 43  1  0  0  0  0
 24 44  1  0  0  0  0
M  END
> <ConfClashScore>
0 

> <ConfOneFourInteractionScore>
-0.985399 

> <ConfScore>
0.00350631 

> <ConfScorePBest>
0.00250032 

> <ConfTolerance>
0.336127 

$$$$
c13.sdf
 OpenBabel04162418043D

 44 47  0  0  0  0  0  0  0  0999 V2000
    3.0949    1.9228   -4.4957 N   0  0  0  1  0  0  0  0  0  0  0  0
    3.9986    1.6843   -3.5604 C   0  0  0  1  0  0  0  0  0  0  0  0
    5.2890    1.7118   -3.8034 N   0  0  0  1  0  0  0  0  0  0  0  0
    5.7391    1.9876   -5.0301 C   0  0  0  1  0  0  0  0  0  0  0  0
    4.8027    2.2474   -6.0534 C   0  0  0  1  0  0  0  0  0  0  0  0
    3.4479    2.2044   -5.7378 C   0  0  0  1  0  0  0  0  0  0  0  0
    7.0208    2.0945   -5.6131 C   0  0  0  1  0  0  0  0  0  0  0  0
    6.8835    2.3917   -6.8742 N   0  0  0  1  0  0  0  0  0  0  0  0
    5.5228    2.4963   -7.1909 N   0  0  0  1  0  0  0  0  0  0  0  0
    5.1076    2.8122   -8.5057 C   0  0  0  1  0  0  0  0  0  0  0  0
    5.8069    3.7472   -9.2452 C   0  0  0  1  0  0  0  0  0  0  0  0
    5.4031    4.0528  -10.5356 C   0  0  0  1  0  0  0  0  0  0  0  0
    4.2982    3.4266  -11.0807 C   0  0  0  1  0  0  0  0  0  0  0  0
    3.5969    2.4888  -10.3388 C   0  0  0  1  0  0  0  0  0  0  0  0
    3.9994    2.1840   -9.0522 C   0  0  0  1  0  0  0  0  0  0  0  0
    3.9966    3.8093  -12.3442 O   0  0  0  1  0  0  0  0  0  0  0  0
    2.8552    3.1938  -12.9615 C   0  0  0  1  0  0  0  0  0  0  0  0
    3.5294    1.4050   -2.3173 N   0  0  0  1  0  0  0  0  0  0  0  0
    4.3861    1.0898   -1.1739 C   0  0  0  1  0  0  0  0  0  0  0  0
    5.2580   -0.1229   -1.4548 C   0  0  0  1  0  0  0  0  0  0  0  0
    6.4271    0.0089   -0.4730 C   0  0  0  1  0  0  0  0  0  0  0  0
    6.5341    1.5009   -0.1303 C   0  0  0  1  0  0  0  0  0  0  0  0
    5.4317    2.1862   -0.9425 C   0  0  0  1  0  0  0  0  0  0  0  0
    6.1577   -0.7882    0.7630 N   0  0  0  1  0  0  0  0  0  0  0  0
    2.7278    2.3902   -6.4648 H   0  0  0  1  0  0  0  0  0  0  0  0
    7.9250    1.9585   -5.1177 H   0  0  0  1  0  0  0  0  0  0  0  0
    6.6359    4.2214   -8.8337 H   0  0  0  1  0  0  0  0  0  0  0  0
    5.9317    4.7534  -11.0936 H   0  0  0  1  0  0  0  0  0  0  0  0
    2.7678    2.0146  -10.7504 H   0  0  0  1  0  0  0  0  0  0  0  0
    3.4708    1.4834   -8.4942 H   0  0  0  1  0  0  0  0  0  0  0  0
    2.5830    3.7441  -13.8379 H   0  0  0  1  0  0  0  0  0  0  0  0
    2.0359    3.1913  -12.2734 H   0  0  0  1  0  0  0  0  0  0  0  0
    3.0964    2.1874  -13.2332 H   0  0  0  1  0  0  0  0  0  0  0  0
    2.5594    1.4152   -2.1777 H   0  0  0  1  0  0  0  0  0  0  0  0
    3.7807    0.9403   -0.3044 H   0  0  0  1  0  0  0  0  0  0  0  0
    5.6096   -0.1098   -2.4653 H   0  0  0  1  0  0  0  0  0  0  0  0
    4.7154   -1.0279   -1.2772 H   0  0  0  1  0  0  0  0  0  0  0  0
    7.3333   -0.3327   -0.9280 H   0  0  0  1  0  0  0  0  0  0  0  0
    7.4949    1.8807   -0.4089 H   0  0  0  1  0  0  0  0  0  0  0  0
    6.3786    1.6562    0.9169 H   0  0  0  1  0  0  0  0  0  0  0  0
    5.8162    2.5445   -1.8746 H   0  0  0  1  0  0  0  0  0  0  0  0
    5.0091    3.0016   -0.3934 H   0  0  0  1  0  0  0  0  0  0  0  0
    6.9176   -0.7074    1.3765 H   0  0  0  1  0  0  0  0  0  0  0  0
    6.0308   -1.7299    0.5229 H   0  0  0  1  0  0  0  0  0  0  0  0
  1  2  4  0  0  0  0
  1  6  4  0  0  0  0
  2  3  4  0  0  0  0
  2 18  1  0  0  0  0
  3  4  4  0  0  0  0
  4  5  4  0  0  0  0
  4  7  4  0  0  0  0
  5  6  4  0  0  0  0
  5  9  4  0  0  0  0
  6 25  1  0  0  0  0
  7  8  4  0  0  0  0
  7 26  1  0  0  0  0
  8  9  4  0  0  0  0
  9 10  1  0  0  0  0
 10 11  4  0  0  0  0
 10 15  4  0  0  0  0
 11 12  4  0  0  0  0
 11 27  1  0  0  0  0
 12 13  4  0  0  0  0
 12 28  1  0  0  0  0
 13 14  4  0  0  0  0
 13 16  1  0  0  0  0
 14 15  4  0  0  0  0
 14 29  1  0  0  0  0
 15 30  1  0  0  0  0
 16 17  1  0  0  0  0
 17 31  1  0  0  0  0
 17 32  1  0  0  0  0
 17 33  1  0  0  0  0
 18 19  1  0  0  0  0
 18 34  1  0  0  0  0
 19 20  1  0  0  0  0
 19 23  1  0  0  0  0
 19 35  1  0  0  0  0
 20 21  1  0  0  0  0
 20 36  1  0  0  0  0
 20 37  1  0  0  0  0
 21 22  1  0  0  0  0
 21 24  1  0  0  0  0
 21 38  1  0  0  0  0
 22 23  1  0  0  0  0
 22 39  1  0  0  0  0
 22 40  1  0  0  0  0
 23 41  1  0  0  0  0
 23 42  1  0  0  0  0
 24 43  1  0  0  0  0
 24 44  1  0  0  0  0
M  END
> <ConfClashScore>
0 

> <ConfOneFourInteractionScore>
-0.980204 

> <ConfScore>
0.00398258 

> <ConfScorePBest>
0.00248699 

> <ConfTolerance>
0.203575 

$$$$
c13.sdf
 OpenBabel04162418043D

 44 47  0  0  0  0  0  0  0  0999 V2000
    5.2366    1.8580   -3.6866 N   0  0  0  1  0  0  0  0  0  0  0  0
    3.9360    1.7725   -3.4641 C   0  0  0  1  0  0  0  0  0  0  0  0
    3.0444    1.9795   -4.4060 N   0  0  0  1  0  0  0  0  0  0  0  0
    3.4319    2.2900   -5.6457 C   0  0  0  1  0  0  0  0  0  0  0  0
    4.8127    2.3898   -5.9195 C   0  0  0  1  0  0  0  0  0  0  0  0
    5.7118    2.1598   -4.8824 C   0  0  0  1  0  0  0  0  0  0  0  0
    2.7553    2.5669   -6.8538 C   0  0  0  1  0  0  0  0  0  0  0  0
    3.6373    2.8132   -7.7806 N   0  0  0  1  0  0  0  0  0  0  0  0
    4.9280    2.7144   -7.2446 N   0  0  0  1  0  0  0  0  0  0  0  0
    6.0565    2.8439   -8.0875 C   0  0  0  1  0  0  0  0  0  0  0  0
    7.2231    3.4016   -7.5994 C   0  0  0  1  0  0  0  0  0  0  0  0
    8.3306    3.5237   -8.4240 C   0  0  0  1  0  0  0  0  0  0  0  0
    8.2667    3.0927   -9.7357 C   0  0  0  1  0  0  0  0  0  0  0  0
    7.0966    2.5334  -10.2250 C   0  0  0  1  0  0  0  0  0  0  0  0
    5.9922    2.4116   -9.4030 C   0  0  0  1  0  0  0  0  0  0  0  0
    9.3101    3.1880  -10.5937 O   0  0  0  1  0  0  0  0  0  0  0  0
    9.0312    2.9918  -11.9938 C   0  0  0  1  0  0  0  0  0  0  0  0
    3.5086    1.4619   -2.2270 N   0  0  0  1  0  0  0  0  0  0  0  0
    4.3978    1.0468   -1.1334 C   0  0  0  1  0  0  0  0  0  0  0  0
    5.2726   -0.1363   -1.5483 C   0  0  0  1  0  0  0  0  0  0  0  0
    6.4706   -0.0927   -0.5934 C   0  0  0  1  0  0  0  0  0  0  0  0
    6.6298    1.3839   -0.2097 C   0  0  0  1  0  0  0  0  0  0  0  0
    5.4406    2.1242   -0.8261 C   0  0  0  1  0  0  0  0  0  0  0  0
    6.2025   -0.9231    0.6208 N   0  0  0  1  0  0  0  0  0  0  0  0
    6.7370    2.2242   -5.0450 H   0  0  0  1  0  0  0  0  0  0  0  0
    1.7234    2.5732   -6.9826 H   0  0  0  1  0  0  0  0  0  0  0  0
    7.2699    3.7296   -6.6136 H   0  0  0  1  0  0  0  0  0  0  0  0
    9.2097    3.9396   -8.0556 H   0  0  0  1  0  0  0  0  0  0  0  0
    7.0497    2.2054  -11.2108 H   0  0  0  1  0  0  0  0  0  0  0  0
    5.1130    1.9957   -9.7713 H   0  0  0  1  0  0  0  0  0  0  0  0
    8.6322    2.0105  -12.1445 H   0  0  0  1  0  0  0  0  0  0  0  0
    9.9354    3.0991  -12.5558 H   0  0  0  1  0  0  0  0  0  0  0  0
    8.3189    3.7203  -12.3208 H   0  0  0  1  0  0  0  0  0  0  0  0
    2.5473    1.5155   -2.0444 H   0  0  0  1  0  0  0  0  0  0  0  0
    3.8141    0.8133   -0.2675 H   0  0  0  1  0  0  0  0  0  0  0  0
    5.5954   -0.0285   -2.5627 H   0  0  0  1  0  0  0  0  0  0  0  0
    4.7376   -1.0566   -1.4396 H   0  0  0  1  0  0  0  0  0  0  0  0
    7.3527   -0.4498   -1.0827 H   0  0  0  1  0  0  0  0  0  0  0  0
    7.5481    1.7701   -0.6001 H   0  0  0  1  0  0  0  0  0  0  0  0
    6.6208    1.4920    0.8548 H   0  0  0  1  0  0  0  0  0  0  0  0
    5.0463    2.8386   -0.1339 H   0  0  0  1  0  0  0  0  0  0  0  0
    5.7371    2.6236   -1.7248 H   0  0  0  1  0  0  0  0  0  0  0  0
    5.4411   -0.5490    1.1113 H   0  0  0  1  0  0  0  0  0  0  0  0
    6.9946   -0.9227    1.1979 H   0  0  0  1  0  0  0  0  0  0  0  0
  1  2  4  0  0  0  0
  1  6  4  0  0  0  0
  2  3  4  0  0  0  0
  2 18  1  0  0  0  0
  3  4  4  0  0  0  0
  4  5  4  0  0  0  0
  4  7  4  0  0  0  0
  5  6  4  0  0  0  0
  5  9  4  0  0  0  0
  6 25  1  0  0  0  0
  7  8  4  0  0  0  0
  7 26  1  0  0  0  0
  8  9  4  0  0  0  0
  9 10  1  0  0  0  0
 10 11  4  0  0  0  0
 10 15  4  0  0  0  0
 11 12  4  0  0  0  0
 11 27  1  0  0  0  0
 12 13  4  0  0  0  0
 12 28  1  0  0  0  0
 13 14  4  0  0  0  0
 13 16  1  0  0  0  0
 14 15  4  0  0  0  0
 14 29  1  0  0  0  0
 15 30  1  0  0  0  0
 16 17  1  0  0  0  0
 17 31  1  0  0  0  0
 17 32  1  0  0  0  0
 17 33  1  0  0  0  0
 18 19  1  0  0  0  0
 18 34  1  0  0  0  0
 19 20  1  0  0  0  0
 19 23  1  0  0  0  0
 19 35  1  0  0  0  0
 20 21  1  0  0  0  0
 20 36  1  0  0  0  0
 20 37  1  0  0  0  0
 21 22  1  0  0  0  0
 21 24  1  0  0  0  0
 21 38  1  0  0  0  0
 22 23  1  0  0  0  0
 22 39  1  0  0  0  0
 22 40  1  0  0  0  0
 23 41  1  0  0  0  0
 23 42  1  0  0  0  0
 24 43  1  0  0  0  0
 24 44  1  0  0  0  0
M  END
> <ConfClashScore>
0 

> <ConfOneFourInteractionScore>
-0.980204 

> <ConfScore>
0.00433317 

> <ConfScorePBest>
0.00247367 

> <ConfTolerance>
0.210666 

$$$$
c13.sdf
 OpenBabel04162418043D

 44 47  0  0  0  0  0  0  0  0999 V2000
    3.2397   -0.3611   -3.3442 N   0  0  0  1  0  0  0  0  0  0  0  0
    3.2097    0.9607   -3.3601 C   0  0  0  1  0  0  0  0  0  0  0  0
    2.5894    1.6408   -4.2969 N   0  0  0  1  0  0  0  0  0  0  0  0
    1.9554    1.0044   -5.2852 C   0  0  0  1  0  0  0  0  0  0  0  0
    1.9665   -0.4066   -5.3000 C   0  0  0  1  0  0  0  0  0  0  0  0
    2.6399   -1.0743   -4.2814 C   0  0  0  1  0  0  0  0  0  0  0  0
    1.2143    1.4186   -6.4136 C   0  0  0  1  0  0  0  0  0  0  0  0
    0.8094    0.3619   -7.0593 N   0  0  0  1  0  0  0  0  0  0  0  0
    1.2538   -0.7935   -6.4032 N   0  0  0  1  0  0  0  0  0  0  0  0
    0.9417   -2.0865   -6.9119 C   0  0  0  1  0  0  0  0  0  0  0  0
   -0.2003   -2.2746   -7.6673 C   0  0  0  1  0  0  0  0  0  0  0  0
   -0.5013   -3.5321   -8.1670 C   0  0  0  1  0  0  0  0  0  0  0  0
    0.3377   -4.5988   -7.9054 C   0  0  0  1  0  0  0  0  0  0  0  0
    1.4831   -4.4100   -7.1477 C   0  0  0  1  0  0  0  0  0  0  0  0
    1.7833   -3.1562   -6.6494 C   0  0  0  1  0  0  0  0  0  0  0  0
    0.0986   -5.8521   -8.3591 O   0  0  0  1  0  0  0  0  0  0  0  0
    1.1122   -6.8411   -8.1199 C   0  0  0  1  0  0  0  0  0  0  0  0
    3.8401    1.6381   -2.3768 N   0  0  0  1  0  0  0  0  0  0  0  0
    4.4317    1.0030   -1.1982 C   0  0  0  1  0  0  0  0  0  0  0  0
    5.3442   -0.1538   -1.6149 C   0  0  0  1  0  0  0  0  0  0  0  0
    6.4924   -0.1230   -0.6002 C   0  0  0  1  0  0  0  0  0  0  0  0
    6.7391    1.3690   -0.4487 C   0  0  0  1  0  0  0  0  0  0  0  0
    5.3392    1.9922   -0.4546 C   0  0  0  1  0  0  0  0  0  0  0  0
    6.0901   -0.7348    0.6859 N   0  0  0  1  0  0  0  0  0  0  0  0
    2.6704   -2.1136   -4.2581 H   0  0  0  1  0  0  0  0  0  0  0  0
    1.0233    2.4043   -6.6846 H   0  0  0  1  0  0  0  0  0  0  0  0
   -0.8338   -1.4728   -7.8608 H   0  0  0  1  0  0  0  0  0  0  0  0
   -1.3585   -3.6728   -8.7388 H   0  0  0  1  0  0  0  0  0  0  0  0
    2.1166   -5.2118   -6.9542 H   0  0  0  1  0  0  0  0  0  0  0  0
    2.6405   -3.0154   -6.0776 H   0  0  0  1  0  0  0  0  0  0  0  0
    1.4469   -6.7714   -7.1060 H   0  0  0  1  0  0  0  0  0  0  0  0
    1.9373   -6.6727   -8.7800 H   0  0  0  1  0  0  0  0  0  0  0  0
    0.7075   -7.8159   -8.2954 H   0  0  0  1  0  0  0  0  0  0  0  0
    3.9054    2.6126   -2.4570 H   0  0  0  1  0  0  0  0  0  0  0  0
    3.6535    0.6519   -0.5532 H   0  0  0  1  0  0  0  0  0  0  0  0
    4.8203   -1.0854   -1.5645 H   0  0  0  1  0  0  0  0  0  0  0  0
    5.7135   -0.0050   -2.6080 H   0  0  0  1  0  0  0  0  0  0  0  0
    7.3590   -0.6238   -0.9784 H   0  0  0  1  0  0  0  0  0  0  0  0
    7.3218    1.7407   -1.2655 H   0  0  0  1  0  0  0  0  0  0  0  0
    7.2418    1.5774    0.4726 H   0  0  0  1  0  0  0  0  0  0  0  0
    4.9917    2.1323    0.5477 H   0  0  0  1  0  0  0  0  0  0  0  0
    5.3549    2.9341   -0.9621 H   0  0  0  1  0  0  0  0  0  0  0  0
    5.2713   -0.3052    1.0106 H   0  0  0  1  0  0  0  0  0  0  0  0
    6.8060   -0.6122    1.3438 H   0  0  0  1  0  0  0  0  0  0  0  0
  1  2  4  0  0  0  0
  1  6  4  0  0  0  0
  2  3  4  0  0  0  0
  2 18  1  0  0  0  0
  3  4  4  0  0  0  0
  4  5  4  0  0  0  0
  4  7  4  0  0  0  0
  5  6  4  0  0  0  0
  5  9  4  0  0  0  0
  6 25  1  0  0  0  0
  7  8  4  0  0  0  0
  7 26  1  0  0  0  0
  8  9  4  0  0  0  0
  9 10  1  0  0  0  0
 10 11  4  0  0  0  0
 10 15  4  0  0  0  0
 11 12  4  0  0  0  0
 11 27  1  0  0  0  0
 12 13  4  0  0  0  0
 12 28  1  0  0  0  0
 13 14  4  0  0  0  0
 13 16  1  0  0  0  0
 14 15  4  0  0  0  0
 14 29  1  0  0  0  0
 15 30  1  0  0  0  0
 16 17  1  0  0  0  0
 17 31  1  0  0  0  0
 17 32  1  0  0  0  0
 17 33  1  0  0  0  0
 18 19  1  0  0  0  0
 18 34  1  0  0  0  0
 19 20  1  0  0  0  0
 19 23  1  0  0  0  0
 19 35  1  0  0  0  0
 20 21  1  0  0  0  0
 20 36  1  0  0  0  0
 20 37  1  0  0  0  0
 21 22  1  0  0  0  0
 21 24  1  0  0  0  0
 21 38  1  0  0  0  0
 22 23  1  0  0  0  0
 22 39  1  0  0  0  0
 22 40  1  0  0  0  0
 23 41  1  0  0  0  0
 23 42  1  0  0  0  0
 24 43  1  0  0  0  0
 24 44  1  0  0  0  0
M  END
> <ConfClashScore>
0.000657631 

> <ConfOneFourInteractionScore>
-0.985399 

> <ConfScore>
0.00448459 

> <ConfScorePBest>
0.00246034 

> <ConfTolerance>
0.408958 

$$$$
c13.sdf
 OpenBabel04162418043D

 44 47  0  0  0  0  0  0  0  0999 V2000
    4.5319    3.4329   -3.2137 N   0  0  0  1  0  0  0  0  0  0  0  0
    4.7406    2.2632   -3.7939 C   0  0  0  1  0  0  0  0  0  0  0  0
    4.9276    2.1414   -5.0882 N   0  0  0  1  0  0  0  0  0  0  0  0
    4.9124    3.2192   -5.8766 C   0  0  0  1  0  0  0  0  0  0  0  0
    4.6925    4.4843   -5.2915 C   0  0  0  1  0  0  0  0  0  0  0  0
    4.5004    4.5528   -3.9147 C   0  0  0  1  0  0  0  0  0  0  0  0
    5.0741    3.4334   -7.2630 C   0  0  0  1  0  0  0  0  0  0  0  0
    4.9638    4.7088   -7.5051 N   0  0  0  1  0  0  0  0  0  0  0  0
    4.7263    5.3993   -6.3094 N   0  0  0  1  0  0  0  0  0  0  0  0
    4.5682    6.8049   -6.3040 C   0  0  0  1  0  0  0  0  0  0  0  0
    5.2901    7.6342   -7.1415 C   0  0  0  1  0  0  0  0  0  0  0  0
    5.0915    9.0054   -7.0984 C   0  0  0  1  0  0  0  0  0  0  0  0
    4.1757    9.5437   -6.2143 C   0  0  0  1  0  0  0  0  0  0  0  0
    3.4518    8.7118   -5.3744 C   0  0  0  1  0  0  0  0  0  0  0  0
    3.6496    7.3446   -5.4172 C   0  0  0  1  0  0  0  0  0  0  0  0
    3.8704   10.8523   -6.0462 O   0  0  0  1  0  0  0  0  0  0  0  0
    4.5034   11.7924   -6.9284 C   0  0  0  1  0  0  0  0  0  0  0  0
    4.7627    1.1398   -3.0203 N   0  0  0  1  0  0  0  0  0  0  0  0
    4.5003    1.1910   -1.5928 C   0  0  0  1  0  0  0  0  0  0  0  0
    4.8470   -0.1839   -0.9284 C   0  0  0  1  0  0  0  0  0  0  0  0
    6.3347    0.0067   -0.4768 C   0  0  0  1  0  0  0  0  0  0  0  0
    6.3839    1.4718   -0.0020 C   0  0  0  1  0  0  0  0  0  0  0  0
    5.4177    2.2474   -0.9147 C   0  0  0  1  0  0  0  0  0  0  0  0
    6.6760   -0.9227    0.6328 N   0  0  0  1  0  0  0  0  0  0  0  0
    4.3354    5.4669   -3.4470 H   0  0  0  1  0  0  0  0  0  0  0  0
    5.2518    2.6950   -7.9735 H   0  0  0  1  0  0  0  0  0  0  0  0
    5.9821    7.2295   -7.8040 H   0  0  0  1  0  0  0  0  0  0  0  0
    5.6318    9.6291   -7.7314 H   0  0  0  1  0  0  0  0  0  0  0  0
    2.7597    9.1165   -4.7119 H   0  0  0  1  0  0  0  0  0  0  0  0
    3.1094    6.7208   -4.7843 H   0  0  0  1  0  0  0  0  0  0  0  0
    5.3720   12.1986   -6.4536 H   0  0  0  1  0  0  0  0  0  0  0  0
    3.8196   12.5829   -7.1570 H   0  0  0  1  0  0  0  0  0  0  0  0
    4.7904   11.2959   -7.8317 H   0  0  0  1  0  0  0  0  0  0  0  0
    4.9608    0.2759   -3.4385 H   0  0  0  1  0  0  0  0  0  0  0  0
    3.4714    1.4332   -1.4272 H   0  0  0  1  0  0  0  0  0  0  0  0
    4.2122   -0.3759   -0.0887 H   0  0  0  1  0  0  0  0  0  0  0  0
    4.7589   -0.9843   -1.6331 H   0  0  0  1  0  0  0  0  0  0  0  0
    7.0056   -0.1524   -1.2951 H   0  0  0  1  0  0  0  0  0  0  0  0
    6.0687    1.5425    1.0180 H   0  0  0  1  0  0  0  0  0  0  0  0
    7.3765    1.8599   -0.0968 H   0  0  0  1  0  0  0  0  0  0  0  0
    5.9661    2.7899   -1.6562 H   0  0  0  1  0  0  0  0  0  0  0  0
    4.8300    2.9287   -0.3355 H   0  0  0  1  0  0  0  0  0  0  0  0
    7.5916   -0.7485    0.9355 H   0  0  0  1  0  0  0  0  0  0  0  0
    6.6070   -1.8477    0.3167 H   0  0  0  1  0  0  0  0  0  0  0  0
  1  2  4  0  0  0  0
  1  6  4  0  0  0  0
  2  3  4  0  0  0  0
  2 18  1  0  0  0  0
  3  4  4  0  0  0  0
  4  5  4  0  0  0  0
  4  7  4  0  0  0  0
  5  6  4  0  0  0  0
  5  9  4  0  0  0  0
  6 25  1  0  0  0  0
  7  8  4  0  0  0  0
  7 26  1  0  0  0  0
  8  9  4  0  0  0  0
  9 10  1  0  0  0  0
 10 11  4  0  0  0  0
 10 15  4  0  0  0  0
 11 12  4  0  0  0  0
 11 27  1  0  0  0  0
 12 13  4  0  0  0  0
 12 28  1  0  0  0  0
 13 14  4  0  0  0  0
 13 16  1  0  0  0  0
 14 15  4  0  0  0  0
 14 29  1  0  0  0  0
 15 30  1  0  0  0  0
 16 17  1  0  0  0  0
 17 31  1  0  0  0  0
 17 32  1  0  0  0  0
 17 33  1  0  0  0  0
 18 19  1  0  0  0  0
 18 34  1  0  0  0  0
 19 20  1  0  0  0  0
 19 23  1  0  0  0  0
 19 35  1  0  0  0  0
 20 21  1  0  0  0  0
 20 36  1  0  0  0  0
 20 37  1  0  0  0  0
 21 22  1  0  0  0  0
 21 24  1  0  0  0  0
 21 38  1  0  0  0  0
 22 23  1  0  0  0  0
 22 39  1  0  0  0  0
 22 40  1  0  0  0  0
 23 41  1  0  0  0  0
 23 42  1  0  0  0  0
 24 43  1  0  0  0  0
 24 44  1  0  0  0  0
M  END
> <ConfClashScore>
0 

> <ConfOneFourInteractionScore>
-0.985399 

> <ConfScore>
0.004674 

> <ConfScorePBest>
0.00244701 

> <ConfTolerance>
0.3916 

$$$$
c13.sdf
 OpenBabel04162418043D

 44 47  0  0  0  0  0  0  0  0999 V2000
    3.8676    1.9061   -4.8158 N   0  0  0  1  0  0  0  0  0  0  0  0
    4.4969    1.6088   -3.6916 C   0  0  0  1  0  0  0  0  0  0  0  0
    5.7917    1.3943   -3.6438 N   0  0  0  1  0  0  0  0  0  0  0  0
    6.5300    1.4712   -4.7540 C   0  0  0  1  0  0  0  0  0  0  0  0
    5.8916    1.7865   -5.9723 C   0  0  0  1  0  0  0  0  0  0  0  0
    4.5169    2.0037   -5.9628 C   0  0  0  1  0  0  0  0  0  0  0  0
    7.9019    1.3035   -5.0436 C   0  0  0  1  0  0  0  0  0  0  0  0
    8.0873    1.4975   -6.3185 N   0  0  0  1  0  0  0  0  0  0  0  0
    6.8657    1.7999   -6.9343 N   0  0  0  1  0  0  0  0  0  0  0  0
    6.7913    1.9612   -8.3327 C   0  0  0  1  0  0  0  0  0  0  0  0
    6.1423    3.0823   -8.8144 C   0  0  0  1  0  0  0  0  0  0  0  0
    6.0448    3.2930  -10.1810 C   0  0  0  1  0  0  0  0  0  0  0  0
    6.5920    2.3793  -11.0619 C   0  0  0  1  0  0  0  0  0  0  0  0
    7.2429    1.2549  -10.5786 C   0  0  0  1  0  0  0  0  0  0  0  0
    7.3402    1.0447   -9.2160 C   0  0  0  1  0  0  0  0  0  0  0  0
    6.4922    2.5825  -12.3971 O   0  0  0  1  0  0  0  0  0  0  0  0
    5.8484    3.7908  -12.8306 C   0  0  0  1  0  0  0  0  0  0  0  0
    3.7753    1.5214   -2.5371 N   0  0  0  1  0  0  0  0  0  0  0  0
    4.4066    1.1814   -1.2577 C   0  0  0  1  0  0  0  0  0  0  0  0
    5.1022   -0.1787   -1.3505 C   0  0  0  1  0  0  0  0  0  0  0  0
    6.4468   -0.0309   -0.6273 C   0  0  0  1  0  0  0  0  0  0  0  0
    6.4215    1.3704   -0.0071 C   0  0  0  1  0  0  0  0  0  0  0  0
    5.5103    2.1877   -0.9230 C   0  0  0  1  0  0  0  0  0  0  0  0
    6.5857   -1.0707    0.4358 N   0  0  0  1  0  0  0  0  0  0  0  0
    4.0109    2.2381   -6.8406 H   0  0  0  1  0  0  0  0  0  0  0  0
    8.6421    1.0646   -4.3533 H   0  0  0  1  0  0  0  0  0  0  0  0
    5.7270    3.7678   -8.1516 H   0  0  0  1  0  0  0  0  0  0  0  0
    5.5599    4.1386  -10.5434 H   0  0  0  1  0  0  0  0  0  0  0  0
    7.6582    0.5694  -11.2414 H   0  0  0  1  0  0  0  0  0  0  0  0
    7.8250    0.1991   -8.8535 H   0  0  0  1  0  0  0  0  0  0  0  0
    4.8994    3.8838  -12.3452 H   0  0  0  1  0  0  0  0  0  0  0  0
    5.7049    3.7577  -13.8905 H   0  0  0  1  0  0  0  0  0  0  0  0
    6.4612    4.6311  -12.5793 H   0  0  0  1  0  0  0  0  0  0  0  0
    2.8103    1.6901   -2.5634 H   0  0  0  1  0  0  0  0  0  0  0  0
    3.6656    1.1697   -0.4858 H   0  0  0  1  0  0  0  0  0  0  0  0
    5.2609   -0.4434   -2.3750 H   0  0  0  1  0  0  0  0  0  0  0  0
    4.5078   -0.9308   -0.8752 H   0  0  0  1  0  0  0  0  0  0  0  0
    7.2568   -0.1189   -1.3209 H   0  0  0  1  0  0  0  0  0  0  0  0
    7.4057    1.7897    0.0165 H   0  0  0  1  0  0  0  0  0  0  0  0
    6.0242    1.3357    0.9858 H   0  0  0  1  0  0  0  0  0  0  0  0
    6.0281    2.5035   -1.8045 H   0  0  0  1  0  0  0  0  0  0  0  0
    5.1153    3.0426   -0.4152 H   0  0  0  1  0  0  0  0  0  0  0  0
    5.8542   -0.9782    1.0814 H   0  0  0  1  0  0  0  0  0  0  0  0
    7.4434   -0.9550    0.8955 H   0  0  0  1  0  0  0  0  0  0  0  0
  1  2  4  0  0  0  0
  1  6  4  0  0  0  0
  2  3  4  0  0  0  0
  2 18  1  0  0  0  0
  3  4  4  0  0  0  0
  4  5  4  0  0  0  0
  4  7  4  0  0  0  0
  5  6  4  0  0  0  0
  5  9  4  0  0  0  0
  6 25  1  0  0  0  0
  7  8  4  0  0  0  0
  7 26  1  0  0  0  0
  8  9  4  0  0  0  0
  9 10  1  0  0  0  0
 10 11  4  0  0  0  0
 10 15  4  0  0  0  0
 11 12  4  0  0  0  0
 11 27  1  0  0  0  0
 12 13  4  0  0  0  0
 12 28  1  0  0  0  0
 13 14  4  0  0  0  0
 13 16  1  0  0  0  0
 14 15  4  0  0  0  0
 14 29  1  0  0  0  0
 15 30  1  0  0  0  0
 16 17  1  0  0  0  0
 17 31  1  0  0  0  0
 17 32  1  0  0  0  0
 17 33  1  0  0  0  0
 18 19  1  0  0  0  0
 18 34  1  0  0  0  0
 19 20  1  0  0  0  0
 19 23  1  0  0  0  0
 19 35  1  0  0  0  0
 20 21  1  0  0  0  0
 20 36  1  0  0  0  0
 20 37  1  0  0  0  0
 21 22  1  0  0  0  0
 21 24  1  0  0  0  0
 21 38  1  0  0  0  0
 22 23  1  0  0  0  0
 22 39  1  0  0  0  0
 22 40  1  0  0  0  0
 23 41  1  0  0  0  0
 23 42  1  0  0  0  0
 24 43  1  0  0  0  0
 24 44  1  0  0  0  0
M  END
> <ConfClashScore>
0 

> <ConfOneFourInteractionScore>
-0.980204 

> <ConfScore>
0.00526884 

> <ConfScorePBest>
0.00243368 

> <ConfTolerance>
0.315751 

$$$$
c13.sdf
 OpenBabel04162418043D

 44 47  0  0  0  0  0  0  0  0999 V2000
    5.1694    1.9597   -3.7073 N   0  0  0  1  0  0  0  0  0  0  0  0
    3.8808    1.8925   -3.4186 C   0  0  0  1  0  0  0  0  0  0  0  0
    2.9472    2.2360   -4.2762 N   0  0  0  1  0  0  0  0  0  0  0  0
    3.2774    2.6737   -5.4940 C   0  0  0  1  0  0  0  0  0  0  0  0
    4.6437    2.7583   -5.8367 C   0  0  0  1  0  0  0  0  0  0  0  0
    5.5891    2.3809   -4.8877 C   0  0  0  1  0  0  0  0  0  0  0  0
    2.5464    3.1100   -6.6206 C   0  0  0  1  0  0  0  0  0  0  0  0
    3.3847    3.4316   -7.5647 N   0  0  0  1  0  0  0  0  0  0  0  0
    4.6981    3.2289   -7.1213 N   0  0  0  1  0  0  0  0  0  0  0  0
    5.7984    3.5061   -7.9658 C   0  0  0  1  0  0  0  0  0  0  0  0
    6.7496    2.5320   -8.2035 C   0  0  0  1  0  0  0  0  0  0  0  0
    7.8250    2.8020   -9.0354 C   0  0  0  1  0  0  0  0  0  0  0  0
    7.9490    4.0469   -9.6230 C   0  0  0  1  0  0  0  0  0  0  0  0
    6.9948    5.0237   -9.3845 C   0  0  0  1  0  0  0  0  0  0  0  0
    5.9225    4.7547   -8.5550 C   0  0  0  1  0  0  0  0  0  0  0  0
    8.9503    4.2778  -10.5049 O   0  0  0  1  0  0  0  0  0  0  0  0
    9.9021    3.2217  -10.7083 C   0  0  0  1  0  0  0  0  0  0  0  0
    3.5122    1.4581   -2.2065 N   0  0  0  1  0  0  0  0  0  0  0  0
    4.4011    1.0466   -1.1273 C   0  0  0  1  0  0  0  0  0  0  0  0
    5.2738   -0.1359   -1.5479 C   0  0  0  1  0  0  0  0  0  0  0  0
    6.4777   -0.0920   -0.6004 C   0  0  0  1  0  0  0  0  0  0  0  0
    6.6386    1.3846   -0.2173 C   0  0  0  1  0  0  0  0  0  0  0  0
    5.4452    2.1245   -0.8263 C   0  0  0  1  0  0  0  0  0  0  0  0
    6.2151   -0.9308    0.6270 N   0  0  0  1  0  0  0  0  0  0  0  0
    6.6054    2.4293   -5.1029 H   0  0  0  1  0  0  0  0  0  0  0  0
    1.5099    3.1654   -6.6860 H   0  0  0  1  0  0  0  0  0  0  0  0
    6.6586    1.5966   -7.7582 H   0  0  0  1  0  0  0  0  0  0  0  0
    8.5387    2.0678   -9.2175 H   0  0  0  1  0  0  0  0  0  0  0  0
    7.0858    5.9592   -9.8298 H   0  0  0  1  0  0  0  0  0  0  0  0
    5.2088    5.4889   -8.3729 H   0  0  0  1  0  0  0  0  0  0  0  0
   10.5994    3.5105  -11.4668 H   0  0  0  1  0  0  0  0  0  0  0  0
    9.3894    2.3340  -11.0150 H   0  0  0  1  0  0  0  0  0  0  0  0
   10.4266    3.0338   -9.7948 H   0  0  0  1  0  0  0  0  0  0  0  0
    2.5498    1.4124   -2.0275 H   0  0  0  1  0  0  0  0  0  0  0  0
    3.8228    0.8126   -0.2579 H   0  0  0  1  0  0  0  0  0  0  0  0
    5.5903   -0.0278   -2.5643 H   0  0  0  1  0  0  0  0  0  0  0  0
    4.7400   -1.0565   -1.4361 H   0  0  0  1  0  0  0  0  0  0  0  0
    7.3569   -0.4485   -1.0952 H   0  0  0  1  0  0  0  0  0  0  0  0
    6.6361    1.4925    0.8472 H   0  0  0  1  0  0  0  0  0  0  0  0
    7.5543    1.7714   -0.6134 H   0  0  0  1  0  0  0  0  0  0  0  0
    5.7359    2.6243   -1.7266 H   0  0  0  1  0  0  0  0  0  0  0  0
    5.0549    2.8386   -0.1315 H   0  0  0  1  0  0  0  0  0  0  0  0
    5.3905   -0.6267    1.0607 H   0  0  0  1  0  0  0  0  0  0  0  0
    6.9650   -0.8396    1.2513 H   0  0  0  1  0  0  0  0  0  0  0  0
  1  2  4  0  0  0  0
  1  6  4  0  0  0  0
  2  3  4  0  0  0  0
  2 18  1  0  0  0  0
  3  4  4  0  0  0  0
  4  5  4  0  0  0  0
  4  7  4  0  0  0  0
  5  6  4  0  0  0  0
  5  9  4  0  0  0  0
  6 25  1  0  0  0  0
  7  8  4  0  0  0  0
  7 26  1  0  0  0  0
  8  9  4  0  0  0  0
  9 10  1  0  0  0  0
 10 11  4  0  0  0  0
 10 15  4  0  0  0  0
 11 12  4  0  0  0  0
 11 27  1  0  0  0  0
 12 13  4  0  0  0  0
 12 28  1  0  0  0  0
 13 14  4  0  0  0  0
 13 16  1  0  0  0  0
 14 15  4  0  0  0  0
 14 29  1  0  0  0  0
 15 30  1  0  0  0  0
 16 17  1  0  0  0  0
 17 31  1  0  0  0  0
 17 32  1  0  0  0  0
 17 33  1  0  0  0  0
 18 19  1  0  0  0  0
 18 34  1  0  0  0  0
 19 20  1  0  0  0  0
 19 23  1  0  0  0  0
 19 35  1  0  0  0  0
 20 21  1  0  0  0  0
 20 36  1  0  0  0  0
 20 37  1  0  0  0  0
 21 22  1  0  0  0  0
 21 24  1  0  0  0  0
 21 38  1  0  0  0  0
 22 23  1  0  0  0  0
 22 39  1  0  0  0  0
 22 40  1  0  0  0  0
 23 41  1  0  0  0  0
 23 42  1  0  0  0  0
 24 43  1  0  0  0  0
 24 44  1  0  0  0  0
M  END
> <ConfClashScore>
0 

> <ConfOneFourInteractionScore>
-0.980204 

> <ConfScore>
0.00526884 

> <ConfScorePBest>
0.00242035 

> <ConfTolerance>
0.276158 

$$$$
c13.sdf
 OpenBabel04162418043D

 44 47  0  0  0  0  0  0  0  0999 V2000
    4.6168    0.5901   -5.2394 N   0  0  0  1  0  0  0  0  0  0  0  0
    4.3566    0.4121   -3.9553 C   0  0  0  1  0  0  0  0  0  0  0  0
    3.6277   -0.5880   -3.5155 N   0  0  0  1  0  0  0  0  0  0  0  0
    3.1149   -1.4766   -4.3705 C   0  0  0  1  0  0  0  0  0  0  0  0
    3.3723   -1.3178   -5.7489 C   0  0  0  1  0  0  0  0  0  0  0  0
    4.1512   -0.2392   -6.1572 C   0  0  0  1  0  0  0  0  0  0  0  0
    2.3136   -2.6314   -4.2354 C   0  0  0  1  0  0  0  0  0  0  0  0
    2.0998   -3.1333   -5.4185 N   0  0  0  1  0  0  0  0  0  0  0  0
    2.7386   -2.3495   -6.3882 N   0  0  0  1  0  0  0  0  0  0  0  0
    2.6572   -2.6885   -7.7698 C   0  0  0  1  0  0  0  0  0  0  0  0
    3.4479   -3.7027   -8.2759 C   0  0  0  1  0  0  0  0  0  0  0  0
    3.3024   -4.1021   -9.5953 C   0  0  0  1  0  0  0  0  0  0  0  0
    2.3704   -3.4825  -10.4063 C   0  0  0  1  0  0  0  0  0  0  0  0
    1.5773   -2.4652   -9.8985 C   0  0  0  1  0  0  0  0  0  0  0  0
    1.7223   -2.0669   -8.5830 C   0  0  0  1  0  0  0  0  0  0  0  0
    2.3225   -3.9528  -11.6753 O   0  0  0  1  0  0  0  0  0  0  0  0
    1.5298   -3.2154  -12.6189 C   0  0  0  1  0  0  0  0  0  0  0  0
    4.8413    1.2707   -3.0300 N   0  0  0  1  0  0  0  0  0  0  0  0
    4.5160    1.2024   -1.6023 C   0  0  0  1  0  0  0  0  0  0  0  0
    4.9068   -0.1993   -1.0239 C   0  0  0  1  0  0  0  0  0  0  0  0
    6.3630    0.0301   -0.4945 C   0  0  0  1  0  0  0  0  0  0  0  0
    6.3165    1.4566    0.0862 C   0  0  0  1  0  0  0  0  0  0  0  0
    5.3488    2.2494   -0.8101 C   0  0  0  1  0  0  0  0  0  0  0  0
    6.7054   -0.9564    0.5543 N   0  0  0  1  0  0  0  0  0  0  0  0
    4.3626   -0.0887   -7.1643 H   0  0  0  1  0  0  0  0  0  0  0  0
    1.9535   -3.0175   -3.3394 H   0  0  0  1  0  0  0  0  0  0  0  0
    4.1521   -4.1663   -7.6668 H   0  0  0  1  0  0  0  0  0  0  0  0
    3.8947   -4.8680   -9.9750 H   0  0  0  1  0  0  0  0  0  0  0  0
    0.8732   -2.0016  -10.5075 H   0  0  0  1  0  0  0  0  0  0  0  0
    1.1301   -1.3009   -8.2032 H   0  0  0  1  0  0  0  0  0  0  0  0
    0.5001   -3.2586  -12.3313 H   0  0  0  1  0  0  0  0  0  0  0  0
    1.6460   -3.6428  -13.5929 H   0  0  0  1  0  0  0  0  0  0  0  0
    1.8528   -2.1954  -12.6355 H   0  0  0  1  0  0  0  0  0  0  0  0
    5.4458    1.9806   -3.3316 H   0  0  0  1  0  0  0  0  0  0  0  0
    3.4700    1.3810   -1.4653 H   0  0  0  1  0  0  0  0  0  0  0  0
    4.8891   -0.9486   -1.7875 H   0  0  0  1  0  0  0  0  0  0  0  0
    4.2494   -0.4838   -0.2291 H   0  0  0  1  0  0  0  0  0  0  0  0
    7.0738   -0.0348   -1.2916 H   0  0  0  1  0  0  0  0  0  0  0  0
    5.9570    1.4360    1.0938 H   0  0  0  1  0  0  0  0  0  0  0  0
    7.2905    1.8989    0.0635 H   0  0  0  1  0  0  0  0  0  0  0  0
    5.8978    2.8716   -1.4857 H   0  0  0  1  0  0  0  0  0  0  0  0
    4.7036    2.8562   -0.2099 H   0  0  0  1  0  0  0  0  0  0  0  0
    7.6072   -0.7749    0.8922 H   0  0  0  1  0  0  0  0  0  0  0  0
    6.6744   -1.8596    0.1754 H   0  0  0  1  0  0  0  0  0  0  0  0
  1  2  4  0  0  0  0
  1  6  4  0  0  0  0
  2  3  4  0  0  0  0
  2 18  1  0  0  0  0
  3  4  4  0  0  0  0
  4  5  4  0  0  0  0
  4  7  4  0  0  0  0
  5  6  4  0  0  0  0
  5  9  4  0  0  0  0
  6 25  1  0  0  0  0
  7  8  4  0  0  0  0
  7 26  1  0  0  0  0
  8  9  4  0  0  0  0
  9 10  1  0  0  0  0
 10 11  4  0  0  0  0
 10 15  4  0  0  0  0
 11 12  4  0  0  0  0
 11 27  1  0  0  0  0
 12 13  4  0  0  0  0
 12 28  1  0  0  0  0
 13 14  4  0  0  0  0
 13 16  1  0  0  0  0
 14 15  4  0  0  0  0
 14 29  1  0  0  0  0
 15 30  1  0  0  0  0
 16 17  1  0  0  0  0
 17 31  1  0  0  0  0
 17 32  1  0  0  0  0
 17 33  1  0  0  0  0
 18 19  1  0  0  0  0
 18 34  1  0  0  0  0
 19 20  1  0  0  0  0
 19 23  1  0  0  0  0
 19 35  1  0  0  0  0
 20 21  1  0  0  0  0
 20 36  1  0  0  0  0
 20 37  1  0  0  0  0
 21 22  1  0  0  0  0
 21 24  1  0  0  0  0
 21 38  1  0  0  0  0
 22 23  1  0  0  0  0
 22 39  1  0  0  0  0
 22 40  1  0  0  0  0
 23 41  1  0  0  0  0
 23 42  1  0  0  0  0
 24 43  1  0  0  0  0
 24 44  1  0  0  0  0
M  END
> <ConfClashScore>
0 

> <ConfOneFourInteractionScore>
-0.991168 

> <ConfScore>
0.00527672 

> <ConfScorePBest>
0.00240702 

> <ConfTolerance>
0.434476 

$$$$
c13.sdf
 OpenBabel04162418043D

 44 47  0  0  0  0  0  0  0  0999 V2000
    2.0201    0.6976   -3.7720 N   0  0  0  1  0  0  0  0  0  0  0  0
    2.7225    0.4102   -2.6892 C   0  0  0  1  0  0  0  0  0  0  0  0
    2.7283   -0.7873   -2.1497 N   0  0  0  1  0  0  0  0  0  0  0  0
    2.0089   -1.7743   -2.6898 C   0  0  0  1  0  0  0  0  0  0  0  0
    1.2470   -1.5036   -3.8464 C   0  0  0  1  0  0  0  0  0  0  0  0
    1.2791   -0.2162   -4.3742 C   0  0  0  1  0  0  0  0  0  0  0  0
    1.7988   -3.1341   -2.3719 C   0  0  0  1  0  0  0  0  0  0  0  0
    0.9854   -3.6484   -3.2500 N   0  0  0  1  0  0  0  0  0  0  0  0
    0.6173   -2.6714   -4.1843 N   0  0  0  1  0  0  0  0  0  0  0  0
   -0.2705   -2.9827   -5.2534 C   0  0  0  1  0  0  0  0  0  0  0  0
   -1.0299   -1.9817   -5.8291 C   0  0  0  1  0  0  0  0  0  0  0  0
   -1.8213   -2.2600   -6.9326 C   0  0  0  1  0  0  0  0  0  0  0  0
   -1.8553   -3.5397   -7.4538 C   0  0  0  1  0  0  0  0  0  0  0  0
   -1.0935   -4.5436   -6.8763 C   0  0  0  1  0  0  0  0  0  0  0  0
   -0.3043   -4.2662   -5.7760 C   0  0  0  1  0  0  0  0  0  0  0  0
   -2.6325   -3.8127   -8.5286 O   0  0  0  1  0  0  0  0  0  0  0  0
   -2.5924   -5.1526   -9.0440 C   0  0  0  1  0  0  0  0  0  0  0  0
    3.4798    1.4069   -2.1016 N   0  0  0  1  0  0  0  0  0  0  0  0
    4.4287    1.0712   -1.0363 C   0  0  0  1  0  0  0  0  0  0  0  0
    5.2805   -0.1409   -1.4137 C   0  0  0  1  0  0  0  0  0  0  0  0
    6.5313   -0.0307   -0.5349 C   0  0  0  1  0  0  0  0  0  0  0  0
    6.7095    1.4695   -0.2692 C   0  0  0  1  0  0  0  0  0  0  0  0
    5.4854    2.1658   -0.8685 C   0  0  0  1  0  0  0  0  0  0  0  0
    6.3379   -0.7589    0.7306 N   0  0  0  1  0  0  0  0  0  0  0  0
    0.7310    0.0220   -5.2253 H   0  0  0  1  0  0  0  0  0  0  0  0
    2.2234   -3.6412   -1.5693 H   0  0  0  1  0  0  0  0  0  0  0  0
   -1.0075   -1.0197   -5.4345 H   0  0  0  1  0  0  0  0  0  0  0  0
   -2.3897   -1.5059   -7.3683 H   0  0  0  1  0  0  0  0  0  0  0  0
   -1.1159   -5.5055   -7.2709 H   0  0  0  1  0  0  0  0  0  0  0  0
    0.2640   -5.0203   -5.3403 H   0  0  0  1  0  0  0  0  0  0  0  0
   -2.9167   -5.8361   -8.2874 H   0  0  0  1  0  0  0  0  0  0  0  0
   -1.5913   -5.3924   -9.3357 H   0  0  0  1  0  0  0  0  0  0  0  0
   -3.2394   -5.2274   -9.8930 H   0  0  0  1  0  0  0  0  0  0  0  0
    3.3822    2.3362   -2.3970 H   0  0  0  1  0  0  0  0  0  0  0  0
    3.8961    0.9026   -0.1237 H   0  0  0  1  0  0  0  0  0  0  0  0
    4.7544   -1.0496   -1.2078 H   0  0  0  1  0  0  0  0  0  0  0  0
    5.5443   -0.1078   -2.4501 H   0  0  0  1  0  0  0  0  0  0  0  0
    7.3845   -0.4244   -1.0467 H   0  0  0  1  0  0  0  0  0  0  0  0
    7.6031    1.8242   -0.7388 H   0  0  0  1  0  0  0  0  0  0  0  0
    6.7614    1.6547    0.7834 H   0  0  0  1  0  0  0  0  0  0  0  0
    5.7288    2.5979   -1.8166 H   0  0  0  1  0  0  0  0  0  0  0  0
    5.1301    2.9295   -0.2086 H   0  0  0  1  0  0  0  0  0  0  0  0
    6.2029   -1.7112    0.5427 H   0  0  0  1  0  0  0  0  0  0  0  0
    5.5518   -0.4032    1.1951 H   0  0  0  1  0  0  0  0  0  0  0  0
  1  2  4  0  0  0  0
  1  6  4  0  0  0  0
  2  3  4  0  0  0  0
  2 18  1  0  0  0  0
  3  4  4  0  0  0  0
  4  5  4  0  0  0  0
  4  7  4  0  0  0  0
  5  6  4  0  0  0  0
  5  9  4  0  0  0  0
  6 25  1  0  0  0  0
  7  8  4  0  0  0  0
  7 26  1  0  0  0  0
  8  9  4  0  0  0  0
  9 10  1  0  0  0  0
 10 11  4  0  0  0  0
 10 15  4  0  0  0  0
 11 12  4  0  0  0  0
 11 27  1  0  0  0  0
 12 13  4  0  0  0  0
 12 28  1  0  0  0  0
 13 14  4  0  0  0  0
 13 16  1  0  0  0  0
 14 15  4  0  0  0  0
 14 29  1  0  0  0  0
 15 30  1  0  0  0  0
 16 17  1  0  0  0  0
 17 31  1  0  0  0  0
 17 32  1  0  0  0  0
 17 33  1  0  0  0  0
 18 19  1  0  0  0  0
 18 34  1  0  0  0  0
 19 20  1  0  0  0  0
 19 23  1  0  0  0  0
 19 35  1  0  0  0  0
 20 21  1  0  0  0  0
 20 36  1  0  0  0  0
 20 37  1  0  0  0  0
 21 22  1  0  0  0  0
 21 24  1  0  0  0  0
 21 38  1  0  0  0  0
 22 23  1  0  0  0  0
 22 39  1  0  0  0  0
 22 40  1  0  0  0  0
 23 41  1  0  0  0  0
 23 42  1  0  0  0  0
 24 43  1  0  0  0  0
 24 44  1  0  0  0  0
M  END
> <ConfClashScore>
0 

> <ConfOneFourInteractionScore>
-0.985399 

> <ConfScore>
0.00551153 

> <ConfScorePBest>
0.0023937 

> <ConfTolerance>
0.503156 

$$$$
c13.sdf
 OpenBabel04162418043D

 44 47  0  0  0  0  0  0  0  0999 V2000
    3.1744    3.5564   -1.3134 N   0  0  0  1  0  0  0  0  0  0  0  0
    2.8873    2.6569   -2.2390 C   0  0  0  1  0  0  0  0  0  0  0  0
    2.0261    2.8877   -3.2034 N   0  0  0  1  0  0  0  0  0  0  0  0
    1.3993    4.0644   -3.2812 C   0  0  0  1  0  0  0  0  0  0  0  0
    1.6813    5.0484   -2.3099 C   0  0  0  1  0  0  0  0  0  0  0  0
    2.6027    4.7480   -1.3110 C   0  0  0  1  0  0  0  0  0  0  0  0
    0.4463    4.6216   -4.1617 C   0  0  0  1  0  0  0  0  0  0  0  0
    0.1700    5.8323   -3.7679 N   0  0  0  1  0  0  0  0  0  0  0  0
    0.9143    6.1389   -2.6212 N   0  0  0  1  0  0  0  0  0  0  0  0
    0.7889    7.4470   -1.9730 C   0  0  0  1  0  0  0  0  0  0  0  0
   -0.1198    8.3714   -2.4525 C   0  0  0  1  0  0  0  0  0  0  0  0
   -0.2422    9.6069   -1.8361 C   0  0  0  1  0  0  0  0  0  0  0  0
    0.5481    9.9164   -0.7452 C   0  0  0  1  0  0  0  0  0  0  0  0
    1.4594    8.9892   -0.2644 C   0  0  0  1  0  0  0  0  0  0  0  0
    1.5816    7.7572   -0.8790 C   0  0  0  1  0  0  0  0  0  0  0  0
    0.4324   11.1225   -0.1477 O   0  0  0  1  0  0  0  0  0  0  0  0
    1.0295   11.3331    1.1414 C   0  0  0  1  0  0  0  0  0  0  0  0
    3.4995    1.4600   -2.1924 N   0  0  0  1  0  0  0  0  0  0  0  0
    4.4027    1.0435   -1.1109 C   0  0  0  1  0  0  0  0  0  0  0  0
    5.2714   -0.1396   -1.5383 C   0  0  0  1  0  0  0  0  0  0  0  0
    6.4819   -0.0975   -0.5992 C   0  0  0  1  0  0  0  0  0  0  0  0
    6.6468    1.3787   -0.2162 C   0  0  0  1  0  0  0  0  0  0  0  0
    5.4500    2.1202   -0.8163 C   0  0  0  1  0  0  0  0  0  0  0  0
    6.2338   -0.9141    0.5962 N   0  0  0  1  0  0  0  0  0  0  0  0
    2.8368    5.4471   -0.5775 H   0  0  0  1  0  0  0  0  0  0  0  0
    0.0331    4.1443   -4.9882 H   0  0  0  1  0  0  0  0  0  0  0  0
   -0.7117    8.1401   -3.2758 H   0  0  0  1  0  0  0  0  0  0  0  0
   -0.9288   10.3010   -2.1944 H   0  0  0  1  0  0  0  0  0  0  0  0
    2.0513    9.2205    0.5589 H   0  0  0  1  0  0  0  0  0  0  0  0
    2.2682    7.0631   -0.5207 H   0  0  0  1  0  0  0  0  0  0  0  0
    2.0255   11.7037    1.0173 H   0  0  0  1  0  0  0  0  0  0  0  0
    1.0578   10.4071    1.6767 H   0  0  0  1  0  0  0  0  0  0  0  0
    0.4499   12.0455    1.6905 H   0  0  0  1  0  0  0  0  0  0  0  0
    3.3332    0.8284   -2.9231 H   0  0  0  1  0  0  0  0  0  0  0  0
    3.8303    0.8095   -0.2377 H   0  0  0  1  0  0  0  0  0  0  0  0
    5.5810   -0.0310   -2.5568 H   0  0  0  1  0  0  0  0  0  0  0  0
    4.7375   -1.0598   -1.4235 H   0  0  0  1  0  0  0  0  0  0  0  0
    7.3573   -0.4545   -1.1003 H   0  0  0  1  0  0  0  0  0  0  0  0
    6.6518    1.4858    0.8484 H   0  0  0  1  0  0  0  0  0  0  0  0
    7.5601    1.7648   -0.6183 H   0  0  0  1  0  0  0  0  0  0  0  0
    5.0651    2.8341   -0.1184 H   0  0  0  1  0  0  0  0  0  0  0  0
    5.7350    2.6203   -1.7184 H   0  0  0  1  0  0  0  0  0  0  0  0
    5.3658   -0.6736    0.9823 H   0  0  0  1  0  0  0  0  0  0  0  0
    6.9406   -0.7512    1.2552 H   0  0  0  1  0  0  0  0  0  0  0  0
  1  2  4  0  0  0  0
  1  6  4  0  0  0  0
  2  3  4  0  0  0  0
  2 18  1  0  0  0  0
  3  4  4  0  0  0  0
  4  5  4  0  0  0  0
  4  7  4  0  0  0  0
  5  6  4  0  0  0  0
  5  9  4  0  0  0  0
  6 25  1  0  0  0  0
  7  8  4  0  0  0  0
  7 26  1  0  0  0  0
  8  9  4  0  0  0  0
  9 10  1  0  0  0  0
 10 11  4  0  0  0  0
 10 15  4  0  0  0  0
 11 12  4  0  0  0  0
 11 27  1  0  0  0  0
 12 13  4  0  0  0  0
 12 28  1  0  0  0  0
 13 14  4  0  0  0  0
 13 16  1  0  0  0  0
 14 15  4  0  0  0  0
 14 29  1  0  0  0  0
 15 30  1  0  0  0  0
 16 17  1  0  0  0  0
 17 31  1  0  0  0  0
 17 32  1  0  0  0  0
 17 33  1  0  0  0  0
 18 19  1  0  0  0  0
 18 34  1  0  0  0  0
 19 20  1  0  0  0  0
 19 23  1  0  0  0  0
 19 35  1  0  0  0  0
 20 21  1  0  0  0  0
 20 36  1  0  0  0  0
 20 37  1  0  0  0  0
 21 22  1  0  0  0  0
 21 24  1  0  0  0  0
 21 38  1  0  0  0  0
 22 23  1  0  0  0  0
 22 39  1  0  0  0  0
 22 40  1  0  0  0  0
 23 41  1  0  0  0  0
 23 42  1  0  0  0  0
 24 43  1  0  0  0  0
 24 44  1  0  0  0  0
M  END
> <ConfClashScore>
0 

> <ConfOneFourInteractionScore>
-0.985399 

> <ConfScore>
0.00608581 

> <ConfScorePBest>
0.00238037 

> <ConfTolerance>
0.339211 

$$$$
c13.sdf
 OpenBabel04162418043D

 44 47  0  0  0  0  0  0  0  0999 V2000
    2.8524    1.7491   -3.8005 N   0  0  0  1  0  0  0  0  0  0  0  0
    4.1484    1.9849   -3.9148 C   0  0  0  1  0  0  0  0  0  0  0  0
    4.6795    2.4924   -5.0035 N   0  0  0  1  0  0  0  0  0  0  0  0
    3.9101    2.7929   -6.0529 C   0  0  0  1  0  0  0  0  0  0  0  0
    2.5219    2.5545   -5.9663 C   0  0  0  1  0  0  0  0  0  0  0  0
    2.0149    2.0151   -4.7877 C   0  0  0  1  0  0  0  0  0  0  0  0
    4.1520    3.3338   -7.3347 C   0  0  0  1  0  0  0  0  0  0  0  0
    3.0197    3.4192   -7.9735 N   0  0  0  1  0  0  0  0  0  0  0  0
    1.9807    2.9460   -7.1614 N   0  0  0  1  0  0  0  0  0  0  0  0
    0.6604    2.9519   -7.6690 C   0  0  0  1  0  0  0  0  0  0  0  0
    0.0306    4.1513   -7.9424 C   0  0  0  1  0  0  0  0  0  0  0  0
   -1.2613    4.1568   -8.4448 C   0  0  0  1  0  0  0  0  0  0  0  0
   -1.9215    2.9632   -8.6675 C   0  0  0  1  0  0  0  0  0  0  0  0
   -1.2896    1.7602   -8.3933 C   0  0  0  1  0  0  0  0  0  0  0  0
   -0.0015    1.7546   -7.8922 C   0  0  0  1  0  0  0  0  0  0  0  0
   -3.2168    2.9679   -9.0624 O   0  0  0  1  0  0  0  0  0  0  0  0
   -3.8452    1.6928   -9.2667 C   0  0  0  1  0  0  0  0  0  0  0  0
    4.9509    1.6958   -2.8822 N   0  0  0  1  0  0  0  0  0  0  0  0
    4.5322    1.2039   -1.5624 C   0  0  0  1  0  0  0  0  0  0  0  0
    5.0434   -0.2276   -1.3162 C   0  0  0  1  0  0  0  0  0  0  0  0
    6.4485   -0.1069   -0.6299 C   0  0  0  1  0  0  0  0  0  0  0  0
    6.6122    1.3848   -0.3565 C   0  0  0  1  0  0  0  0  0  0  0  0
    5.2168    2.0183   -0.4139 C   0  0  0  1  0  0  0  0  0  0  0  0
    6.4813   -0.8734    0.6276 N   0  0  0  1  0  0  0  0  0  0  0  0
    0.9974    1.8252   -4.6859 H   0  0  0  1  0  0  0  0  0  0  0  0
    5.0806    3.6173   -7.7072 H   0  0  0  1  0  0  0  0  0  0  0  0
    0.5258    5.0497   -7.7711 H   0  0  0  1  0  0  0  0  0  0  0  0
   -1.7338    5.0593   -8.6543 H   0  0  0  1  0  0  0  0  0  0  0  0
   -1.7848    0.8619   -8.5645 H   0  0  0  1  0  0  0  0  0  0  0  0
    0.4711    0.8521   -7.6827 H   0  0  0  1  0  0  0  0  0  0  0  0
   -4.2630    1.3485   -8.3437 H   0  0  0  1  0  0  0  0  0  0  0  0
   -3.1180    0.9885   -9.6134 H   0  0  0  1  0  0  0  0  0  0  0  0
   -4.6227    1.7912   -9.9951 H   0  0  0  1  0  0  0  0  0  0  0  0
    5.9125    1.8251   -3.0205 H   0  0  0  1  0  0  0  0  0  0  0  0
    3.4660    1.2510   -1.4856 H   0  0  0  1  0  0  0  0  0  0  0  0
    4.3666   -0.7532   -0.6755 H   0  0  0  1  0  0  0  0  0  0  0  0
    5.1333   -0.7496   -2.2459 H   0  0  0  1  0  0  0  0  0  0  0  0
    7.2198   -0.4586   -1.2828 H   0  0  0  1  0  0  0  0  0  0  0  0
    7.2443    1.8252   -1.0990 H   0  0  0  1  0  0  0  0  0  0  0  0
    7.0417    1.5338    0.6122 H   0  0  0  1  0  0  0  0  0  0  0  0
    4.6962    1.8949    0.5128 H   0  0  0  1  0  0  0  0  0  0  0  0
    5.2728    3.0590   -0.6562 H   0  0  0  1  0  0  0  0  0  0  0  0
    5.7477   -0.5813    1.2080 H   0  0  0  1  0  0  0  0  0  0  0  0
    7.3367   -0.7206    1.0808 H   0  0  0  1  0  0  0  0  0  0  0  0
  1  2  4  0  0  0  0
  1  6  4  0  0  0  0
  2  3  4  0  0  0  0
  2 18  1  0  0  0  0
  3  4  4  0  0  0  0
  4  5  4  0  0  0  0
  4  7  4  0  0  0  0
  5  6  4  0  0  0  0
  5  9  4  0  0  0  0
  6 25  1  0  0  0  0
  7  8  4  0  0  0  0
  7 26  1  0  0  0  0
  8  9  4  0  0  0  0
  9 10  1  0  0  0  0
 10 11  4  0  0  0  0
 10 15  4  0  0  0  0
 11 12  4  0  0  0  0
 11 27  1  0  0  0  0
 12 13  4  0  0  0  0
 12 28  1  0  0  0  0
 13 14  4  0  0  0  0
 13 16  1  0  0  0  0
 14 15  4  0  0  0  0
 14 29  1  0  0  0  0
 15 30  1  0  0  0  0
 16 17  1  0  0  0  0
 17 31  1  0  0  0  0
 17 32  1  0  0  0  0
 17 33  1  0  0  0  0
 18 19  1  0  0  0  0
 18 34  1  0  0  0  0
 19 20  1  0  0  0  0
 19 23  1  0  0  0  0
 19 35  1  0  0  0  0
 20 21  1  0  0  0  0
 20 36  1  0  0  0  0
 20 37  1  0  0  0  0
 21 22  1  0  0  0  0
 21 24  1  0  0  0  0
 21 38  1  0  0  0  0
 22 23  1  0  0  0  0
 22 39  1  0  0  0  0
 22 40  1  0  0  0  0
 23 41  1  0  0  0  0
 23 42  1  0  0  0  0
 24 43  1  0  0  0  0
 24 44  1  0  0  0  0
M  END
> <ConfClashScore>
0 

> <ConfOneFourInteractionScore>
-0.984337 

> <ConfScore>
0.00737475 

> <ConfScorePBest>
0.00236704 

> <ConfTolerance>
0.645009 

$$$$
c13.sdf
 OpenBabel04162418043D

 44 47  0  0  0  0  0  0  0  0999 V2000
    5.6477    1.2555   -3.8951 N   0  0  0  1  0  0  0  0  0  0  0  0
    4.3526    1.4982   -3.7851 C   0  0  0  1  0  0  0  0  0  0  0  0
    3.5935    1.7601   -4.8243 N   0  0  0  1  0  0  0  0  0  0  0  0
    4.1175    1.7904   -6.0524 C   0  0  0  1  0  0  0  0  0  0  0  0
    5.4969    1.5361   -6.2074 C   0  0  0  1  0  0  0  0  0  0  0  0
    6.2521    1.2643   -5.0704 C   0  0  0  1  0  0  0  0  0  0  0  0
    3.5995    2.0324   -7.3436 C   0  0  0  1  0  0  0  0  0  0  0  0
    4.5691    1.9356   -8.2084 N   0  0  0  1  0  0  0  0  0  0  0  0
    5.7653    1.6286   -7.5468 N   0  0  0  1  0  0  0  0  0  0  0  0
    6.9414    1.3763   -8.2910 C   0  0  0  1  0  0  0  0  0  0  0  0
    7.0596    0.2090   -9.0215 C   0  0  0  1  0  0  0  0  0  0  0  0
    8.2100   -0.0358   -9.7551 C   0  0  0  1  0  0  0  0  0  0  0  0
    9.2410    0.8848   -9.7518 C   0  0  0  1  0  0  0  0  0  0  0  0
    9.1222    2.0555   -9.0191 C   0  0  0  1  0  0  0  0  0  0  0  0
    7.9752    2.2997   -8.2876 C   0  0  0  1  0  0  0  0  0  0  0  0
   10.3118    0.5360  -10.4978 O   0  0  0  1  0  0  0  0  0  0  0  0
   11.4403    1.4211  -10.5722 C   0  0  0  1  0  0  0  0  0  0  0  0
    3.7900    1.4762   -2.5634 N   0  0  0  1  0  0  0  0  0  0  0  0
    4.4104    1.1816   -1.2779 C   0  0  0  1  0  0  0  0  0  0  0  0
    5.0737   -0.1973   -1.3090 C   0  0  0  1  0  0  0  0  0  0  0  0
    6.4222   -0.0487   -0.5931 C   0  0  0  1  0  0  0  0  0  0  0  0
    6.4304    1.3794   -0.0369 C   0  0  0  1  0  0  0  0  0  0  0  0
    5.5378    2.1756   -0.9890 C   0  0  0  1  0  0  0  0  0  0  0  0
    6.5366   -1.0344    0.5071 N   0  0  0  1  0  0  0  0  0  0  0  0
    7.2715    1.0719   -5.1442 H   0  0  0  1  0  0  0  0  0  0  0  0
    2.6078    2.2516   -7.5672 H   0  0  0  1  0  0  0  0  0  0  0  0
    6.2856   -0.4856   -9.0208 H   0  0  0  1  0  0  0  0  0  0  0  0
    8.2974   -0.9123  -10.3080 H   0  0  0  1  0  0  0  0  0  0  0  0
    9.8962    2.7501   -9.0197 H   0  0  0  1  0  0  0  0  0  0  0  0
    7.8878    3.1762   -7.7346 H   0  0  0  1  0  0  0  0  0  0  0  0
   11.8255    1.5922   -9.5887 H   0  0  0  1  0  0  0  0  0  0  0  0
   11.1353    2.3521  -11.0024 H   0  0  0  1  0  0  0  0  0  0  0  0
   12.2009    0.9785  -11.1809 H   0  0  0  1  0  0  0  0  0  0  0  0
    2.8334    1.6870   -2.5337 H   0  0  0  1  0  0  0  0  0  0  0  0
    3.6701    1.2223   -0.5064 H   0  0  0  1  0  0  0  0  0  0  0  0
    4.4622   -0.9130   -0.8003 H   0  0  0  1  0  0  0  0  0  0  0  0
    5.2251   -0.5117   -2.3205 H   0  0  0  1  0  0  0  0  0  0  0  0
    7.2292   -0.1870   -1.2819 H   0  0  0  1  0  0  0  0  0  0  0  0
    7.4242    1.7760   -0.0322 H   0  0  0  1  0  0  0  0  0  0  0  0
    6.0334    1.3990    0.9565 H   0  0  0  1  0  0  0  0  0  0  0  0
    5.1635    3.0618   -0.5204 H   0  0  0  1  0  0  0  0  0  0  0  0
    6.0621    2.4390   -1.8838 H   0  0  0  1  0  0  0  0  0  0  0  0
    5.8943   -0.8124    1.2133 H   0  0  0  1  0  0  0  0  0  0  0  0
    7.4453   -1.0108    0.8733 H   0  0  0  1  0  0  0  0  0  0  0  0
  1  2  4  0  0  0  0
  1  6  4  0  0  0  0
  2  3  4  0  0  0  0
  2 18  1  0  0  0  0
  3  4  4  0  0  0  0
  4  5  4  0  0  0  0
  4  7  4  0  0  0  0
  5  6  4  0  0  0  0
  5  9  4  0  0  0  0
  6 25  1  0  0  0  0
  7  8  4  0  0  0  0
  7 26  1  0  0  0  0
  8  9  4  0  0  0  0
  9 10  1  0  0  0  0
 10 11  4  0  0  0  0
 10 15  4  0  0  0  0
 11 12  4  0  0  0  0
 11 27  1  0  0  0  0
 12 13  4  0  0  0  0
 12 28  1  0  0  0  0
 13 14  4  0  0  0  0
 13 16  1  0  0  0  0
 14 15  4  0  0  0  0
 14 29  1  0  0  0  0
 15 30  1  0  0  0  0
 16 17  1  0  0  0  0
 17 31  1  0  0  0  0
 17 32  1  0  0  0  0
 17 33  1  0  0  0  0
 18 19  1  0  0  0  0
 18 34  1  0  0  0  0
 19 20  1  0  0  0  0
 19 23  1  0  0  0  0
 19 35  1  0  0  0  0
 20 21  1  0  0  0  0
 20 36  1  0  0  0  0
 20 37  1  0  0  0  0
 21 22  1  0  0  0  0
 21 24  1  0  0  0  0
 21 38  1  0  0  0  0
 22 23  1  0  0  0  0
 22 39  1  0  0  0  0
 22 40  1  0  0  0  0
 23 41  1  0  0  0  0
 23 42  1  0  0  0  0
 24 43  1  0  0  0  0
 24 44  1  0  0  0  0
M  END
> <ConfClashScore>
0 

> <ConfOneFourInteractionScore>
-0.980204 

> <ConfScore>
0.00760436 

> <ConfScorePBest>
0.00235371 

> <ConfTolerance>
0.27705 

$$$$
c13.sdf
 OpenBabel04162418043D

 44 47  0  0  0  0  0  0  0  0999 V2000
    4.1662    3.5568   -2.7200 N   0  0  0  1  0  0  0  0  0  0  0  0
    4.8029    2.6658   -3.4611 C   0  0  0  1  0  0  0  0  0  0  0  0
    5.2393    2.9366   -4.6699 N   0  0  0  1  0  0  0  0  0  0  0  0
    5.0494    4.1473   -5.2005 C   0  0  0  1  0  0  0  0  0  0  0  0
    4.3735    5.1235   -4.4378 C   0  0  0  1  0  0  0  0  0  0  0  0
    3.9334    4.7800   -3.1629 C   0  0  0  1  0  0  0  0  0  0  0  0
    5.3804    4.7503   -6.4338 C   0  0  0  1  0  0  0  0  0  0  0  0
    4.9486    5.9794   -6.4280 N   0  0  0  1  0  0  0  0  0  0  0  0
    4.3168    6.2540   -5.2080 N   0  0  0  1  0  0  0  0  0  0  0  0
    3.6809    7.4993   -4.9944 C   0  0  0  1  0  0  0  0  0  0  0  0
    4.3356    8.6734   -5.3154 C   0  0  0  1  0  0  0  0  0  0  0  0
    3.7103    9.8936   -5.1111 C   0  0  0  1  0  0  0  0  0  0  0  0
    2.4344    9.9363   -4.5814 C   0  0  0  1  0  0  0  0  0  0  0  0
    1.7780    8.7586   -4.2594 C   0  0  0  1  0  0  0  0  0  0  0  0
    2.4013    7.5419   -4.4631 C   0  0  0  1  0  0  0  0  0  0  0  0
    1.8824   11.1598   -4.4018 O   0  0  0  1  0  0  0  0  0  0  0  0
    0.5849   11.2106   -3.7882 C   0  0  0  1  0  0  0  0  0  0  0  0
    4.9936    1.4156   -2.9010 N   0  0  0  1  0  0  0  0  0  0  0  0
    4.5524    1.2100   -1.5206 C   0  0  0  1  0  0  0  0  0  0  0  0
    4.9692   -0.1709   -1.0027 C   0  0  0  1  0  0  0  0  0  0  0  0
    6.4504   -0.0168   -0.6462 C   0  0  0  1  0  0  0  0  0  0  0  0
    6.6467    1.4762   -0.3510 C   0  0  0  1  0  0  0  0  0  0  0  0
    5.2814    2.1388   -0.5637 C   0  0  0  1  0  0  0  0  0  0  0  0
    6.7859   -0.8363    0.5586 N   0  0  0  1  0  0  0  0  0  0  0  0
    3.4315    5.4721   -2.5707 H   0  0  0  1  0  0  0  0  0  0  0  0
    5.8855    4.2893   -7.2173 H   0  0  0  1  0  0  0  0  0  0  0  0
    5.2972    8.6415   -5.7103 H   0  0  0  1  0  0  0  0  0  0  0  0
    4.2013   10.7769   -5.3564 H   0  0  0  1  0  0  0  0  0  0  0  0
    0.8164    8.7905   -3.8646 H   0  0  0  1  0  0  0  0  0  0  0  0
    1.9104    6.6585   -4.2179 H   0  0  0  1  0  0  0  0  0  0  0  0
    0.5482   10.5191   -2.9725 H   0  0  0  1  0  0  0  0  0  0  0  0
   -0.1610   10.9504   -4.5099 H   0  0  0  1  0  0  0  0  0  0  0  0
    0.4008   12.2001   -3.4251 H   0  0  0  1  0  0  0  0  0  0  0  0
    5.4107    0.6908   -3.4120 H   0  0  0  1  0  0  0  0  0  0  0  0
    3.4925    1.3440   -1.4607 H   0  0  0  1  0  0  0  0  0  0  0  0
    4.8384   -0.9143   -1.7611 H   0  0  0  1  0  0  0  0  0  0  0  0
    4.3983   -0.4384   -0.1382 H   0  0  0  1  0  0  0  0  0  0  0  0
    7.0661   -0.3198   -1.4671 H   0  0  0  1  0  0  0  0  0  0  0  0
    6.9724    1.6146    0.6588 H   0  0  0  1  0  0  0  0  0  0  0  0
    7.3697    1.8943   -1.0199 H   0  0  0  1  0  0  0  0  0  0  0  0
    5.3962    3.1113   -0.9947 H   0  0  0  1  0  0  0  0  0  0  0  0
    4.7517    2.2189    0.3625 H   0  0  0  1  0  0  0  0  0  0  0  0
    6.6147   -1.7824    0.3688 H   0  0  0  1  0  0  0  0  0  0  0  0
    6.2310   -0.5492    1.3136 H   0  0  0  1  0  0  0  0  0  0  0  0
  1  2  4  0  0  0  0
  1  6  4  0  0  0  0
  2  3  4  0  0  0  0
  2 18  1  0  0  0  0
  3  4  4  0  0  0  0
  4  5  4  0  0  0  0
  4  7  4  0  0  0  0
  5  6  4  0  0  0  0
  5  9  4  0  0  0  0
  6 25  1  0  0  0  0
  7  8  4  0  0  0  0
  7 26  1  0  0  0  0
  8  9  4  0  0  0  0
  9 10  1  0  0  0  0
 10 11  4  0  0  0  0
 10 15  4  0  0  0  0
 11 12  4  0  0  0  0
 11 27  1  0  0  0  0
 12 13  4  0  0  0  0
 12 28  1  0  0  0  0
 13 14  4  0  0  0  0
 13 16  1  0  0  0  0
 14 15  4  0  0  0  0
 14 29  1  0  0  0  0
 15 30  1  0  0  0  0
 16 17  1  0  0  0  0
 17 31  1  0  0  0  0
 17 32  1  0  0  0  0
 17 33  1  0  0  0  0
 18 19  1  0  0  0  0
 18 34  1  0  0  0  0
 19 20  1  0  0  0  0
 19 23  1  0  0  0  0
 19 35  1  0  0  0  0
 20 21  1  0  0  0  0
 20 36  1  0  0  0  0
 20 37  1  0  0  0  0
 21 22  1  0  0  0  0
 21 24  1  0  0  0  0
 21 38  1  0  0  0  0
 22 23  1  0  0  0  0
 22 39  1  0  0  0  0
 22 40  1  0  0  0  0
 23 41  1  0  0  0  0
 23 42  1  0  0  0  0
 24 43  1  0  0  0  0
 24 44  1  0  0  0  0
M  END
> <ConfClashScore>
0 

> <ConfOneFourInteractionScore>
-0.981848 

> <ConfScore>
0.00907781 

> <ConfScorePBest>
0.00234038 

> <ConfTolerance>
0.395445 

$$$$
c13.sdf
 OpenBabel04162418043D

 44 47  0  0  0  0  0  0  0  0999 V2000
    3.9972    3.2205   -3.4074 N   0  0  0  1  0  0  0  0  0  0  0  0
    4.4460    2.0678   -3.8745 C   0  0  0  1  0  0  0  0  0  0  0  0
    4.6275    1.8493   -5.1568 N   0  0  0  1  0  0  0  0  0  0  0  0
    4.3583    2.8057   -6.0492 C   0  0  0  1  0  0  0  0  0  0  0  0
    3.8776    4.0490   -5.5863 C   0  0  0  1  0  0  0  0  0  0  0  0
    3.7046    4.2238   -4.2165 C   0  0  0  1  0  0  0  0  0  0  0  0
    4.4391    2.8976   -7.4560 C   0  0  0  1  0  0  0  0  0  0  0  0
    4.0453    4.0845   -7.8213 N   0  0  0  1  0  0  0  0  0  0  0  0
    3.6871    4.8331   -6.6924 N   0  0  0  1  0  0  0  0  0  0  0  0
    3.2174    6.1799   -6.8245 C   0  0  0  1  0  0  0  0  0  0  0  0
    2.6567    6.8257   -5.7387 C   0  0  0  1  0  0  0  0  0  0  0  0
    2.2071    8.1308   -5.8651 C   0  0  0  1  0  0  0  0  0  0  0  0
    2.3144    8.7845   -7.0782 C   0  0  0  1  0  0  0  0  0  0  0  0
    2.8767    8.1366   -8.1670 C   0  0  0  1  0  0  0  0  0  0  0  0
    3.3252    6.8353   -8.0412 C   0  0  0  1  0  0  0  0  0  0  0  0
    1.9071   10.0527   -7.3224 O   0  0  0  1  0  0  0  0  0  0  0  0
    1.3902   10.8014   -6.2112 C   0  0  0  1  0  0  0  0  0  0  0  0
    4.7278    1.0810   -3.0049 N   0  0  0  1  0  0  0  0  0  0  0  0
    4.4996    1.1759   -1.5559 C   0  0  0  1  0  0  0  0  0  0  0  0
    4.8724   -0.1413   -0.8667 C   0  0  0  1  0  0  0  0  0  0  0  0
    6.3426    0.0214   -0.4802 C   0  0  0  1  0  0  0  0  0  0  0  0
    6.3944    1.4816   -0.0241 C   0  0  0  1  0  0  0  0  0  0  0  0
    5.4213    2.2334   -0.9353 C   0  0  0  1  0  0  0  0  0  0  0  0
    6.7116   -0.8923    0.6119 N   0  0  0  1  0  0  0  0  0  0  0  0
    3.3523    5.1258   -3.8371 H   0  0  0  1  0  0  0  0  0  0  0  0
    4.7599    2.1424   -8.0951 H   0  0  0  1  0  0  0  0  0  0  0  0
    2.5722    6.3325   -4.8270 H   0  0  0  1  0  0  0  0  0  0  0  0
    1.7888    8.6182   -5.0471 H   0  0  0  1  0  0  0  0  0  0  0  0
    2.9612    8.6298   -9.0788 H   0  0  0  1  0  0  0  0  0  0  0  0
    3.7434    6.3480   -8.8592 H   0  0  0  1  0  0  0  0  0  0  0  0
    0.4411   10.4011   -5.9214 H   0  0  0  1  0  0  0  0  0  0  0  0
    1.2729   11.8262   -6.4957 H   0  0  0  1  0  0  0  0  0  0  0  0
    2.0714   10.7347   -5.3888 H   0  0  0  1  0  0  0  0  0  0  0  0
    5.1077    0.2497   -3.3582 H   0  0  0  1  0  0  0  0  0  0  0  0
    3.4739    1.4181   -1.3710 H   0  0  0  1  0  0  0  0  0  0  0  0
    4.2690   -0.2950    0.0035 H   0  0  0  1  0  0  0  0  0  0  0  0
    4.7484   -0.9656   -1.5375 H   0  0  0  1  0  0  0  0  0  0  0  0
    6.9854   -0.1464   -1.3189 H   0  0  0  1  0  0  0  0  0  0  0  0
    7.3847    1.8717   -0.1332 H   0  0  0  1  0  0  0  0  0  0  0  0
    6.0884    1.5644    0.9978 H   0  0  0  1  0  0  0  0  0  0  0  0
    4.8480    2.9344   -0.3652 H   0  0  0  1  0  0  0  0  0  0  0  0
    5.9584    2.7512   -1.7022 H   0  0  0  1  0  0  0  0  0  0  0  0
    7.6859   -0.9001    0.7167 H   0  0  0  1  0  0  0  0  0  0  0  0
    6.3987   -1.7967    0.4007 H   0  0  0  1  0  0  0  0  0  0  0  0
  1  2  4  0  0  0  0
  1  6  4  0  0  0  0
  2  3  4  0  0  0  0
  2 18  1  0  0  0  0
  3  4  4  0  0  0  0
  4  5  4  0  0  0  0
  4  7  4  0  0  0  0
  5  6  4  0  0  0  0
  5  9  4  0  0  0  0
  6 25  1  0  0  0  0
  7  8  4  0  0  0  0
  7 26  1  0  0  0  0
  8  9  4  0  0  0  0
  9 10  1  0  0  0  0
 10 11  4  0  0  0  0
 10 15  4  0  0  0  0
 11 12  4  0  0  0  0
 11 27  1  0  0  0  0
 12 13  4  0  0  0  0
 12 28  1  0  0  0  0
 13 14  4  0  0  0  0
 13 16  1  0  0  0  0
 14 15  4  0  0  0  0
 14 29  1  0  0  0  0
 15 30  1  0  0  0  0
 16 17  1  0  0  0  0
 17 31  1  0  0  0  0
 17 32  1  0  0  0  0
 17 33  1  0  0  0  0
 18 19  1  0  0  0  0
 18 34  1  0  0  0  0
 19 20  1  0  0  0  0
 19 23  1  0  0  0  0
 19 35  1  0  0  0  0
 20 21  1  0  0  0  0
 20 36  1  0  0  0  0
 20 37  1  0  0  0  0
 21 22  1  0  0  0  0
 21 24  1  0  0  0  0
 21 38  1  0  0  0  0
 22 23  1  0  0  0  0
 22 39  1  0  0  0  0
 22 40  1  0  0  0  0
 23 41  1  0  0  0  0
 23 42  1  0  0  0  0
 24 43  1  0  0  0  0
 24 44  1  0  0  0  0
M  END
> <ConfClashScore>
0 

> <ConfOneFourInteractionScore>
-0.981848 

> <ConfScore>
0.00941297 

> <ConfScorePBest>
0.00232706 

> <ConfTolerance>
0.318349 

$$$$
c13.sdf
 OpenBabel04162418043D

 44 47  0  0  0  0  0  0  0  0999 V2000
    5.0499    3.1207   -4.6713 N   0  0  0  1  0  0  0  0  0  0  0  0
    4.4124    2.6405   -3.6171 C   0  0  0  1  0  0  0  0  0  0  0  0
    3.2246    3.0690   -3.2558 N   0  0  0  1  0  0  0  0  0  0  0  0
    2.6097    4.0246   -3.9574 C   0  0  0  1  0  0  0  0  0  0  0  0
    3.2607    4.5604   -5.0889 C   0  0  0  1  0  0  0  0  0  0  0  0
    4.5184    4.0678   -5.4245 C   0  0  0  1  0  0  0  0  0  0  0  0
    1.3699    4.6915   -3.8461 C   0  0  0  1  0  0  0  0  0  0  0  0
    1.2701    5.5543   -4.8172 N   0  0  0  1  0  0  0  0  0  0  0  0
    2.4219    5.5069   -5.6134 N   0  0  0  1  0  0  0  0  0  0  0  0
    2.5601    6.3572   -6.7457 C   0  0  0  1  0  0  0  0  0  0  0  0
    1.4758    6.5919   -7.5700 C   0  0  0  1  0  0  0  0  0  0  0  0
    1.6092    7.4246   -8.6701 C   0  0  0  1  0  0  0  0  0  0  0  0
    2.8276    8.0160   -8.9458 C   0  0  0  1  0  0  0  0  0  0  0  0
    3.9150    7.7805   -8.1189 C   0  0  0  1  0  0  0  0  0  0  0  0
    3.7822    6.9502   -7.0220 C   0  0  0  1  0  0  0  0  0  0  0  0
    2.8383    8.7992  -10.0419 O   0  0  0  1  0  0  0  0  0  0  0  0
    4.0771    9.5087  -10.2752 C   0  0  0  1  0  0  0  0  0  0  0  0
    4.9987    1.6809   -2.8895 N   0  0  0  1  0  0  0  0  0  0  0  0
    4.5601    1.1909   -1.5887 C   0  0  0  1  0  0  0  0  0  0  0  0
    5.0923   -0.2236   -1.3355 C   0  0  0  1  0  0  0  0  0  0  0  0
    6.3895   -0.0572   -0.5327 C   0  0  0  1  0  0  0  0  0  0  0  0
    6.5741    1.4535   -0.3643 C   0  0  0  1  0  0  0  0  0  0  0  0
    5.1574    2.0285   -0.4701 C   0  0  0  1  0  0  0  0  0  0  0  0
    6.2672   -0.7200    0.8001 N   0  0  0  1  0  0  0  0  0  0  0  0
    5.0297    4.4375   -6.2512 H   0  0  0  1  0  0  0  0  0  0  0  0
    0.6547    4.5219   -3.1104 H   0  0  0  1  0  0  0  0  0  0  0  0
    0.5600    6.1438   -7.3649 H   0  0  0  1  0  0  0  0  0  0  0  0
    0.7923    7.6045   -9.2881 H   0  0  0  1  0  0  0  0  0  0  0  0
    4.8308    8.2286   -8.3240 H   0  0  0  1  0  0  0  0  0  0  0  0
    4.5991    6.7704   -6.4039 H   0  0  0  1  0  0  0  0  0  0  0  0
    4.3114   10.1089   -9.4209 H   0  0  0  1  0  0  0  0  0  0  0  0
    3.9713   10.1376  -11.1344 H   0  0  0  1  0  0  0  0  0  0  0  0
    4.8651    8.8045  -10.4429 H   0  0  0  1  0  0  0  0  0  0  0  0
    5.8020    1.2675   -3.2693 H   0  0  0  1  0  0  0  0  0  0  0  0
    3.4911    1.2063   -1.5431 H   0  0  0  1  0  0  0  0  0  0  0  0
    5.2919   -0.7162   -2.2642 H   0  0  0  1  0  0  0  0  0  0  0  0
    4.3802   -0.7927   -0.7752 H   0  0  0  1  0  0  0  0  0  0  0  0
    7.2161   -0.4778   -1.0663 H   0  0  0  1  0  0  0  0  0  0  0  0
    7.2001    1.8463   -1.1380 H   0  0  0  1  0  0  0  0  0  0  0  0
    7.0026    1.6777    0.5902 H   0  0  0  1  0  0  0  0  0  0  0  0
    5.1774    3.0663   -0.7297 H   0  0  0  1  0  0  0  0  0  0  0  0
    4.6162    1.8993    0.4439 H   0  0  0  1  0  0  0  0  0  0  0  0
    6.6041   -0.1186    1.4966 H   0  0  0  1  0  0  0  0  0  0  0  0
    6.7914   -1.5480    0.8022 H   0  0  0  1  0  0  0  0  0  0  0  0
  1  2  4  0  0  0  0
  1  6  4  0  0  0  0
  2  3  4  0  0  0  0
  2 18  1  0  0  0  0
  3  4  4  0  0  0  0
  4  5  4  0  0  0  0
  4  7  4  0  0  0  0
  5  6  4  0  0  0  0
  5  9  4  0  0  0  0
  6 25  1  0  0  0  0
  7  8  4  0  0  0  0
  7 26  1  0  0  0  0
  8  9  4  0  0  0  0
  9 10  1  0  0  0  0
 10 11  4  0  0  0  0
 10 15  4  0  0  0  0
 11 12  4  0  0  0  0
 11 27  1  0  0  0  0
 12 13  4  0  0  0  0
 12 28  1  0  0  0  0
 13 14  4  0  0  0  0
 13 16  1  0  0  0  0
 14 15  4  0  0  0  0
 14 29  1  0  0  0  0
 15 30  1  0  0  0  0
 16 17  1  0  0  0  0
 17 31  1  0  0  0  0
 17 32  1  0  0  0  0
 17 33  1  0  0  0  0
 18 19  1  0  0  0  0
 18 34  1  0  0  0  0
 19 20  1  0  0  0  0
 19 23  1  0  0  0  0
 19 35  1  0  0  0  0
 20 21  1  0  0  0  0
 20 36  1  0  0  0  0
 20 37  1  0  0  0  0
 21 22  1  0  0  0  0
 21 24  1  0  0  0  0
 21 38  1  0  0  0  0
 22 23  1  0  0  0  0
 22 39  1  0  0  0  0
 22 40  1  0  0  0  0
 23 41  1  0  0  0  0
 23 42  1  0  0  0  0
 24 43  1  0  0  0  0
 24 44  1  0  0  0  0
M  END
> <ConfClashScore>
0 

> <ConfOneFourInteractionScore>
-0.984337 

> <ConfScore>
0.00946067 

> <ConfScorePBest>
0.00231373 

> <ConfTolerance>
0.584973 

$$$$
c13.sdf
 OpenBabel04162418043D

 44 47  0  0  0  0  0  0  0  0999 V2000
    4.2107    3.5882   -3.0265 N   0  0  0  1  0  0  0  0  0  0  0  0
    4.6629    2.5270   -3.6730 C   0  0  0  1  0  0  0  0  0  0  0  0
    5.0006    2.5651   -4.9416 N   0  0  0  1  0  0  0  0  0  0  0  0
    4.8955    3.7022   -5.6341 C   0  0  0  1  0  0  0  0  0  0  0  0
    4.4165    4.8550   -4.9762 C   0  0  0  1  0  0  0  0  0  0  0  0
    4.0737    4.7555   -3.6310 C   0  0  0  1  0  0  0  0  0  0  0  0
    5.1643    4.0763   -6.9690 C   0  0  0  1  0  0  0  0  0  0  0  0
    4.8774    5.3386   -7.1158 N   0  0  0  1  0  0  0  0  0  0  0  0
    4.4095    5.8623   -5.9035 N   0  0  0  1  0  0  0  0  0  0  0  0
    3.8920    7.1874   -5.8385 C   0  0  0  1  0  0  0  0  0  0  0  0
    3.6216    7.8815   -7.0027 C   0  0  0  1  0  0  0  0  0  0  0  0
    3.1129    9.1694   -6.9393 C   0  0  0  1  0  0  0  0  0  0  0  0
    2.8810    9.7614   -5.7121 C   0  0  0  1  0  0  0  0  0  0  0  0
    3.1521    9.0651   -4.5445 C   0  0  0  1  0  0  0  0  0  0  0  0
    3.6594    7.7810   -4.6076 C   0  0  0  1  0  0  0  0  0  0  0  0
    2.3889   11.0215   -5.6503 O   0  0  0  1  0  0  0  0  0  0  0  0
    2.3571   11.7743   -6.8729 C   0  0  0  1  0  0  0  0  0  0  0  0
    4.7820    1.3641   -3.0074 N   0  0  0  1  0  0  0  0  0  0  0  0
    4.5207    1.2131   -1.5733 C   0  0  0  1  0  0  0  0  0  0  0  0
    4.9384   -0.1821   -1.0959 C   0  0  0  1  0  0  0  0  0  0  0  0
    6.3914   -0.0239   -0.6477 C   0  0  0  1  0  0  0  0  0  0  0  0
    6.3678    1.3435    0.0395 C   0  0  0  1  0  0  0  0  0  0  0  0
    5.3806    2.1927   -0.7648 C   0  0  0  1  0  0  0  0  0  0  0  0
    6.7816   -1.0947    0.2990 N   0  0  0  1  0  0  0  0  0  0  0  0
    3.7170    5.5830   -3.1119 H   0  0  0  1  0  0  0  0  0  0  0  0
    5.5307    3.4478   -7.7122 H   0  0  0  1  0  0  0  0  0  0  0  0
    3.7999    7.4376   -7.9261 H   0  0  0  1  0  0  0  0  0  0  0  0
    2.9057    9.6902   -7.8153 H   0  0  0  1  0  0  0  0  0  0  0  0
    2.9739    9.5090   -3.6211 H   0  0  0  1  0  0  0  0  0  0  0  0
    3.8666    7.2601   -3.7316 H   0  0  0  1  0  0  0  0  0  0  0  0
    3.3376   12.1431   -7.0909 H   0  0  0  1  0  0  0  0  0  0  0  0
    1.6820   12.5976   -6.7671 H   0  0  0  1  0  0  0  0  0  0  0  0
    2.0281   11.1429   -7.6717 H   0  0  0  1  0  0  0  0  0  0  0  0
    5.0599    0.5709   -3.5114 H   0  0  0  1  0  0  0  0  0  0  0  0
    3.4815    1.3794   -1.3801 H   0  0  0  1  0  0  0  0  0  0  0  0
    4.8656   -0.8908   -1.8943 H   0  0  0  1  0  0  0  0  0  0  0  0
    4.3248   -0.5000   -0.2790 H   0  0  0  1  0  0  0  0  0  0  0  0
    7.0583   -0.0265   -1.4845 H   0  0  0  1  0  0  0  0  0  0  0  0
    7.3415    1.7867    0.0223 H   0  0  0  1  0  0  0  0  0  0  0  0
    6.0374    1.2464    1.0526 H   0  0  0  1  0  0  0  0  0  0  0  0
    4.7647    2.7674   -0.1051 H   0  0  0  1  0  0  0  0  0  0  0  0
    5.9095    2.8500   -1.4229 H   0  0  0  1  0  0  0  0  0  0  0  0
    6.1688   -1.0945    1.0637 H   0  0  0  1  0  0  0  0  0  0  0  0
    7.6960   -0.9352    0.6134 H   0  0  0  1  0  0  0  0  0  0  0  0
  1  2  4  0  0  0  0
  1  6  4  0  0  0  0
  2  3  4  0  0  0  0
  2 18  1  0  0  0  0
  3  4  4  0  0  0  0
  4  5  4  0  0  0  0
  4  7  4  0  0  0  0
  5  6  4  0  0  0  0
  5  9  4  0  0  0  0
  6 25  1  0  0  0  0
  7  8  4  0  0  0  0
  7 26  1  0  0  0  0
  8  9  4  0  0  0  0
  9 10  1  0  0  0  0
 10 11  4  0  0  0  0
 10 15  4  0  0  0  0
 11 12  4  0  0  0  0
 11 27  1  0  0  0  0
 12 13  4  0  0  0  0
 12 28  1  0  0  0  0
 13 14  4  0  0  0  0
 13 16  1  0  0  0  0
 14 15  4  0  0  0  0
 14 29  1  0  0  0  0
 15 30  1  0  0  0  0
 16 17  1  0  0  0  0
 17 31  1  0  0  0  0
 17 32  1  0  0  0  0
 17 33  1  0  0  0  0
 18 19  1  0  0  0  0
 18 34  1  0  0  0  0
 19 20  1  0  0  0  0
 19 23  1  0  0  0  0
 19 35  1  0  0  0  0
 20 21  1  0  0  0  0
 20 36  1  0  0  0  0
 20 37  1  0  0  0  0
 21 22  1  0  0  0  0
 21 24  1  0  0  0  0
 21 38  1  0  0  0  0
 22 23  1  0  0  0  0
 22 39  1  0  0  0  0
 22 40  1  0  0  0  0
 23 41  1  0  0  0  0
 23 42  1  0  0  0  0
 24 43  1  0  0  0  0
 24 44  1  0  0  0  0
M  END
> <ConfClashScore>
0 

> <ConfOneFourInteractionScore>
-0.985399 

> <ConfScore>
0.0115747 

> <ConfScorePBest>
0.0023004 

> <ConfTolerance>
0.527141 

$$$$
c13.sdf
 OpenBabel04162418043D

 44 47  0  0  0  0  0  0  0  0999 V2000
    1.3980    1.5770   -3.1409 N   0  0  0  1  0  0  0  0  0  0  0  0
    2.1576    1.2217   -2.1185 C   0  0  0  1  0  0  0  0  0  0  0  0
    1.6688    0.6489   -1.0425 N   0  0  0  1  0  0  0  0  0  0  0  0
    0.3600    0.4019   -0.9447 C   0  0  0  1  0  0  0  0  0  0  0  0
   -0.4810    0.7678   -2.0172 C   0  0  0  1  0  0  0  0  0  0  0  0
    0.0925    1.3717   -3.1323 C   0  0  0  1  0  0  0  0  0  0  0  0
   -0.4662   -0.1811    0.0410 C   0  0  0  1  0  0  0  0  0  0  0  0
   -1.6969   -0.1735   -0.3863 N   0  0  0  1  0  0  0  0  0  0  0  0
   -1.7526    0.4067   -1.6603 N   0  0  0  1  0  0  0  0  0  0  0  0
   -2.9928    0.6133   -2.2975 C   0  0  0  1  0  0  0  0  0  0  0  0
   -3.0908    1.1171   -3.5808 C   0  0  0  1  0  0  0  0  0  0  0  0
   -4.3366    1.2955   -4.1618 C   0  0  0  1  0  0  0  0  0  0  0  0
   -5.4809    0.9747   -3.4560 C   0  0  0  1  0  0  0  0  0  0  0  0
   -5.3824    0.4695   -2.1689 C   0  0  0  1  0  0  0  0  0  0  0  0
   -4.1402    0.2915   -1.5895 C   0  0  0  1  0  0  0  0  0  0  0  0
   -6.7475    1.1102   -3.9156 O   0  0  0  1  0  0  0  0  0  0  0  0
   -6.9152    1.7056   -5.2117 C   0  0  0  1  0  0  0  0  0  0  0  0
    3.4996    1.4583   -2.1825 N   0  0  0  1  0  0  0  0  0  0  0  0
    4.4070    1.0449   -1.1072 C   0  0  0  1  0  0  0  0  0  0  0  0
    5.2736   -0.1389   -1.5371 C   0  0  0  1  0  0  0  0  0  0  0  0
    6.4891   -0.0946   -0.6046 C   0  0  0  1  0  0  0  0  0  0  0  0
    6.6559    1.3823   -0.2254 C   0  0  0  1  0  0  0  0  0  0  0  0
    5.4556    2.1224   -0.8205 C   0  0  0  1  0  0  0  0  0  0  0  0
    6.2434   -0.9237    0.6152 N   0  0  0  1  0  0  0  0  0  0  0  0
   -0.4945    1.6556   -3.9425 H   0  0  0  1  0  0  0  0  0  0  0  0
   -0.1451   -0.5548    0.9569 H   0  0  0  1  0  0  0  0  0  0  0  0
   -2.2300    1.3623   -4.1104 H   0  0  0  1  0  0  0  0  0  0  0  0
   -4.4103    1.6708   -5.1289 H   0  0  0  1  0  0  0  0  0  0  0  0
   -6.2431    0.2243   -1.6393 H   0  0  0  1  0  0  0  0  0  0  0  0
   -4.0665   -0.0837   -0.6223 H   0  0  0  1  0  0  0  0  0  0  0  0
   -6.0798    1.4539   -5.8311 H   0  0  0  1  0  0  0  0  0  0  0  0
   -6.9760    2.7690   -5.1102 H   0  0  0  1  0  0  0  0  0  0  0  0
   -7.8146    1.3375   -5.6593 H   0  0  0  1  0  0  0  0  0  0  0  0
    3.8667    1.9164   -2.9673 H   0  0  0  1  0  0  0  0  0  0  0  0
    3.8394    0.8125   -0.2305 H   0  0  0  1  0  0  0  0  0  0  0  0
    5.5776   -0.0322   -2.5574 H   0  0  0  1  0  0  0  0  0  0  0  0
    4.7405   -1.0589   -1.4175 H   0  0  0  1  0  0  0  0  0  0  0  0
    7.3619   -0.4524   -1.1098 H   0  0  0  1  0  0  0  0  0  0  0  0
    6.6666    1.4915    0.8389 H   0  0  0  1  0  0  0  0  0  0  0  0
    7.5669    1.7679   -0.6332 H   0  0  0  1  0  0  0  0  0  0  0  0
    5.7356    2.6208   -1.7250 H   0  0  0  1  0  0  0  0  0  0  0  0
    5.0744    2.8376   -0.1218 H   0  0  0  1  0  0  0  0  0  0  0  0
    5.3341   -0.7620    0.9429 H   0  0  0  1  0  0  0  0  0  0  0  0
    6.8892   -0.6801    1.3110 H   0  0  0  1  0  0  0  0  0  0  0  0
  1  2  4  0  0  0  0
  1  6  4  0  0  0  0
  2  3  4  0  0  0  0
  2 18  1  0  0  0  0
  3  4  4  0  0  0  0
  4  5  4  0  0  0  0
  4  7  4  0  0  0  0
  5  6  4  0  0  0  0
  5  9  4  0  0  0  0
  6 25  1  0  0  0  0
  7  8  4  0  0  0  0
  7 26  1  0  0  0  0
  8  9  4  0  0  0  0
  9 10  1  0  0  0  0
 10 11  4  0  0  0  0
 10 15  4  0  0  0  0
 11 12  4  0  0  0  0
 11 27  1  0  0  0  0
 12 13  4  0  0  0  0
 12 28  1  0  0  0  0
 13 14  4  0  0  0  0
 13 16  1  0  0  0  0
 14 15  4  0  0  0  0
 14 29  1  0  0  0  0
 15 30  1  0  0  0  0
 16 17  1  0  0  0  0
 17 31  1  0  0  0  0
 17 32  1  0  0  0  0
 17 33  1  0  0  0  0
 18 19  1  0  0  0  0
 18 34  1  0  0  0  0
 19 20  1  0  0  0  0
 19 23  1  0  0  0  0
 19 35  1  0  0  0  0
 20 21  1  0  0  0  0
 20 36  1  0  0  0  0
 20 37  1  0  0  0  0
 21 22  1  0  0  0  0
 21 24  1  0  0  0  0
 21 38  1  0  0  0  0
 22 23  1  0  0  0  0
 22 39  1  0  0  0  0
 22 40  1  0  0  0  0
 23 41  1  0  0  0  0
 23 42  1  0  0  0  0
 24 43  1  0  0  0  0
 24 44  1  0  0  0  0
M  END
> <ConfClashScore>
0 

> <ConfOneFourInteractionScore>
-0.984337 

> <ConfScore>
0.0121712 

> <ConfScorePBest>
0.00228707 

> <ConfTolerance>
0.432537 

$$$$
c13.sdf
 OpenBabel04162418043D

 44 47  0  0  0  0  0  0  0  0999 V2000
    2.7387    1.9279   -4.1891 N   0  0  0  1  0  0  0  0  0  0  0  0
    3.7301    1.6163   -3.3715 C   0  0  0  1  0  0  0  0  0  0  0  0
    4.9722    1.4989   -3.7820 N   0  0  0  1  0  0  0  0  0  0  0  0
    5.2797    1.6947   -5.0668 C   0  0  0  1  0  0  0  0  0  0  0  0
    4.2465    2.0289   -5.9680 C   0  0  0  1  0  0  0  0  0  0  0  0
    2.9492    2.1396   -5.4766 C   0  0  0  1  0  0  0  0  0  0  0  0
    6.4758    1.6489   -5.8160 C   0  0  0  1  0  0  0  0  0  0  0  0
    6.2022    1.9285   -7.0588 N   0  0  0  1  0  0  0  0  0  0  0  0
    4.8294    2.1712   -7.1987 N   0  0  0  1  0  0  0  0  0  0  0  0
    4.3037    2.6835   -8.4020 C   0  0  0  1  0  0  0  0  0  0  0  0
    3.4666    1.8640   -9.1354 C   0  0  0  1  0  0  0  0  0  0  0  0
    2.9176    2.3197  -10.3238 C   0  0  0  1  0  0  0  0  0  0  0  0
    3.2114    3.5915  -10.7781 C   0  0  0  1  0  0  0  0  0  0  0  0
    4.0510    4.4134  -10.0424 C   0  0  0  1  0  0  0  0  0  0  0  0
    4.5985    3.9591   -8.8574 C   0  0  0  1  0  0  0  0  0  0  0  0
    2.6791    4.0347  -11.9418 O   0  0  0  1  0  0  0  0  0  0  0  0
    2.8646    5.4224  -12.2617 C   0  0  0  1  0  0  0  0  0  0  0  0
    3.4578    1.4116   -2.0702 N   0  0  0  1  0  0  0  0  0  0  0  0
    4.4250    1.0761   -1.0202 C   0  0  0  1  0  0  0  0  0  0  0  0
    5.2632   -0.1425   -1.4070 C   0  0  0  1  0  0  0  0  0  0  0  0
    6.5306   -0.0347   -0.5520 C   0  0  0  1  0  0  0  0  0  0  0  0
    6.7217    1.4659   -0.2975 C   0  0  0  1  0  0  0  0  0  0  0  0
    5.4905    2.1657   -0.8777 C   0  0  0  1  0  0  0  0  0  0  0  0
    6.3536   -0.7690    0.7446 N   0  0  0  1  0  0  0  0  0  0  0  0
    2.1612    2.3841   -6.1097 H   0  0  0  1  0  0  0  0  0  0  0  0
    7.4193    1.4285   -5.4382 H   0  0  0  1  0  0  0  0  0  0  0  0
    3.2487    0.9055   -8.7956 H   0  0  0  1  0  0  0  0  0  0  0  0
    2.2845    1.7045  -10.8736 H   0  0  0  1  0  0  0  0  0  0  0  0
    4.2689    5.3719  -10.3821 H   0  0  0  1  0  0  0  0  0  0  0  0
    5.2316    4.5743   -8.3075 H   0  0  0  1  0  0  0  0  0  0  0  0
    2.5404    6.0251  -11.4391 H   0  0  0  1  0  0  0  0  0  0  0  0
    2.2909    5.6675  -13.1310 H   0  0  0  1  0  0  0  0  0  0  0  0
    3.9007    5.6086  -12.4534 H   0  0  0  1  0  0  0  0  0  0  0  0
    2.5204    1.4950   -1.7968 H   0  0  0  1  0  0  0  0  0  0  0  0
    3.9086    0.9150   -0.0971 H   0  0  0  1  0  0  0  0  0  0  0  0
    4.7362   -1.0473   -1.1867 H   0  0  0  1  0  0  0  0  0  0  0  0
    5.5080   -0.1162   -2.4483 H   0  0  0  1  0  0  0  0  0  0  0  0
    7.3721   -0.4356   -1.0775 H   0  0  0  1  0  0  0  0  0  0  0  0
    6.7941    1.6561    0.7529 H   0  0  0  1  0  0  0  0  0  0  0  0
    7.6083    1.8134   -0.7854 H   0  0  0  1  0  0  0  0  0  0  0  0
    5.1515    2.9347   -0.2153 H   0  0  0  1  0  0  0  0  0  0  0  0
    5.7186    2.5917   -1.8324 H   0  0  0  1  0  0  0  0  0  0  0  0
    6.1642   -1.7131    0.5626 H   0  0  0  1  0  0  0  0  0  0  0  0
    5.6066   -0.3763    1.2427 H   0  0  0  1  0  0  0  0  0  0  0  0
  1  2  4  0  0  0  0
  1  6  4  0  0  0  0
  2  3  4  0  0  0  0
  2 18  1  0  0  0  0
  3  4  4  0  0  0  0
  4  5  4  0  0  0  0
  4  7  4  0  0  0  0
  5  6  4  0  0  0  0
  5  9  4  0  0  0  0
  6 25  1  0  0  0  0
  7  8  4  0  0  0  0
  7 26  1  0  0  0  0
  8  9  4  0  0  0  0
  9 10  1  0  0  0  0
 10 11  4  0  0  0  0
 10 15  4  0  0  0  0
 11 12  4  0  0  0  0
 11 27  1  0  0  0  0
 12 13  4  0  0  0  0
 12 28  1  0  0  0  0
 13 14  4  0  0  0  0
 13 16  1  0  0  0  0
 14 15  4  0  0  0  0
 14 29  1  0  0  0  0
 15 30  1  0  0  0  0
 16 17  1  0  0  0  0
 17 31  1  0  0  0  0
 17 32  1  0  0  0  0
 17 33  1  0  0  0  0
 18 19  1  0  0  0  0
 18 34  1  0  0  0  0
 19 20  1  0  0  0  0
 19 23  1  0  0  0  0
 19 35  1  0  0  0  0
 20 21  1  0  0  0  0
 20 36  1  0  0  0  0
 20 37  1  0  0  0  0
 21 22  1  0  0  0  0
 21 24  1  0  0  0  0
 21 38  1  0  0  0  0
 22 23  1  0  0  0  0
 22 39  1  0  0  0  0
 22 40  1  0  0  0  0
 23 41  1  0  0  0  0
 23 42  1  0  0  0  0
 24 43  1  0  0  0  0
 24 44  1  0  0  0  0
M  END
> <ConfClashScore>
0 

> <ConfOneFourInteractionScore>
-0.980204 

> <ConfScore>
0.0126978 

> <ConfScorePBest>
0.00227374 

> <ConfTolerance>
0.296832 

$$$$
c13.sdf
 OpenBabel04162418043D

 44 47  0  0  0  0  0  0  0  0999 V2000
    2.8274    0.0958   -3.3159 N   0  0  0  1  0  0  0  0  0  0  0  0
    3.4825    1.1892   -3.6676 C   0  0  0  1  0  0  0  0  0  0  0  0
    3.3883    1.7119   -4.8688 N   0  0  0  1  0  0  0  0  0  0  0  0
    2.6107    1.1429   -5.7934 C   0  0  0  1  0  0  0  0  0  0  0  0
    1.8965   -0.0257   -5.4530 C   0  0  0  1  0  0  0  0  0  0  0  0
    2.0349   -0.5347   -4.1651 C   0  0  0  1  0  0  0  0  0  0  0  0
    2.2943    1.4372   -7.1378 C   0  0  0  1  0  0  0  0  0  0  0  0
    1.4649    0.5350   -7.5799 N   0  0  0  1  0  0  0  0  0  0  0  0
    1.1905   -0.3932   -6.5669 N   0  0  0  1  0  0  0  0  0  0  0  0
    0.3061   -1.4624   -6.8417 C   0  0  0  1  0  0  0  0  0  0  0  0
    0.7724   -2.6000   -7.4729 C   0  0  0  1  0  0  0  0  0  0  0  0
   -0.0932   -3.6499   -7.7374 C   0  0  0  1  0  0  0  0  0  0  0  0
   -1.4237   -3.5570   -7.3746 C   0  0  0  1  0  0  0  0  0  0  0  0
   -1.8912   -2.4158   -6.7415 C   0  0  0  1  0  0  0  0  0  0  0  0
   -1.0282   -1.3689   -6.4778 C   0  0  0  1  0  0  0  0  0  0  0  0
   -2.2476   -4.5444   -7.7442 O   0  0  0  1  0  0  0  0  0  0  0  0
   -3.6653   -4.5476   -7.3662 C   0  0  0  1  0  0  0  0  0  0  0  0
    4.2529    1.7221   -2.6952 N   0  0  0  1  0  0  0  0  0  0  0  0
    4.4278    1.1237   -1.3776 C   0  0  0  1  0  0  0  0  0  0  0  0
    5.2818   -0.1883   -1.4735 C   0  0  0  1  0  0  0  0  0  0  0  0
    6.4592   -0.0382   -0.4925 C   0  0  0  1  0  0  0  0  0  0  0  0
    6.6797    1.5112   -0.4509 C   0  0  0  1  0  0  0  0  0  0  0  0
    5.2413    2.0427   -0.4719 C   0  0  0  1  0  0  0  0  0  0  0  0
    6.1073   -0.5637    0.8483 N   0  0  0  1  0  0  0  0  0  0  0  0
    1.5249   -1.3940   -3.8767 H   0  0  0  1  0  0  0  0  0  0  0  0
    2.6626    2.2415   -7.6847 H   0  0  0  1  0  0  0  0  0  0  0  0
    1.7726   -2.6684   -7.7495 H   0  0  0  1  0  0  0  0  0  0  0  0
    0.2585   -4.5076   -8.2087 H   0  0  0  1  0  0  0  0  0  0  0  0
   -2.8914   -2.3475   -6.4649 H   0  0  0  1  0  0  0  0  0  0  0  0
   -1.3799   -0.5112   -6.0064 H   0  0  0  1  0  0  0  0  0  0  0  0
   -3.7509   -4.6017   -6.3010 H   0  0  0  1  0  0  0  0  0  0  0  0
   -4.1496   -5.3943   -7.8061 H   0  0  0  1  0  0  0  0  0  0  0  0
   -4.1294   -3.6492   -7.7158 H   0  0  0  1  0  0  0  0  0  0  0  0
    4.7222    2.5609   -2.8866 H   0  0  0  1  0  0  0  0  0  0  0  0
    3.4693    0.9205   -0.9476 H   0  0  0  1  0  0  0  0  0  0  0  0
    4.6852   -1.0344   -1.2033 H   0  0  0  1  0  0  0  0  0  0  0  0
    5.6493   -0.3142   -2.4705 H   0  0  0  1  0  0  0  0  0  0  0  0
    7.3304   -0.5418   -0.8561 H   0  0  0  1  0  0  0  0  0  0  0  0
    7.2302    1.8478   -1.3044 H   0  0  0  1  0  0  0  0  0  0  0  0
    7.1895    1.8067    0.4422 H   0  0  0  1  0  0  0  0  0  0  0  0
    4.8342    2.0344    0.5176 H   0  0  0  1  0  0  0  0  0  0  0  0
    5.2262    3.0412   -0.8560 H   0  0  0  1  0  0  0  0  0  0  0  0
    6.8734   -0.4618    1.4510 H   0  0  0  1  0  0  0  0  0  0  0  0
    5.8728   -1.5124    0.7759 H   0  0  0  1  0  0  0  0  0  0  0  0
  1  2  4  0  0  0  0
  1  6  4  0  0  0  0
  2  3  4  0  0  0  0
  2 18  1  0  0  0  0
  3  4  4  0  0  0  0
  4  5  4  0  0  0  0
  4  7  4  0  0  0  0
  5  6  4  0  0  0  0
  5  9  4  0  0  0  0
  6 25  1  0  0  0  0
  7  8  4  0  0  0  0
  7 26  1  0  0  0  0
  8  9  4  0  0  0  0
  9 10  1  0  0  0  0
 10 11  4  0  0  0  0
 10 15  4  0  0  0  0
 11 12  4  0  0  0  0
 11 27  1  0  0  0  0
 12 13  4  0  0  0  0
 12 28  1  0  0  0  0
 13 14  4  0  0  0  0
 13 16  1  0  0  0  0
 14 15  4  0  0  0  0
 14 29  1  0  0  0  0
 15 30  1  0  0  0  0
 16 17  1  0  0  0  0
 17 31  1  0  0  0  0
 17 32  1  0  0  0  0
 17 33  1  0  0  0  0
 18 19  1  0  0  0  0
 18 34  1  0  0  0  0
 19 20  1  0  0  0  0
 19 23  1  0  0  0  0
 19 35  1  0  0  0  0
 20 21  1  0  0  0  0
 20 36  1  0  0  0  0
 20 37  1  0  0  0  0
 21 22  1  0  0  0  0
 21 24  1  0  0  0  0
 21 38  1  0  0  0  0
 22 23  1  0  0  0  0
 22 39  1  0  0  0  0
 22 40  1  0  0  0  0
 23 41  1  0  0  0  0
 23 42  1  0  0  0  0
 24 43  1  0  0  0  0
 24 44  1  0  0  0  0
M  END
> <ConfClashScore>
0 

> <ConfOneFourInteractionScore>
-0.986411 

> <ConfScore>
0.0133726 

> <ConfScorePBest>
0.00226041 

> <ConfTolerance>
0.42214 

$$$$
c13.sdf
 OpenBabel04162418043D

 44 47  0  0  0  0  0  0  0  0999 V2000
    4.2254    2.7227   -4.4380 N   0  0  0  1  0  0  0  0  0  0  0  0
    4.7406    2.2353   -3.3220 C   0  0  0  1  0  0  0  0  0  0  0  0
    6.0284    2.2691   -3.0662 N   0  0  0  1  0  0  0  0  0  0  0  0
    6.8770    2.8089   -3.9448 C   0  0  0  1  0  0  0  0  0  0  0  0
    6.3622    3.3390   -5.1470 C   0  0  0  1  0  0  0  0  0  0  0  0
    4.9890    3.2755   -5.3643 C   0  0  0  1  0  0  0  0  0  0  0  0
    8.2756    3.0005   -3.9803 C   0  0  0  1  0  0  0  0  0  0  0  0
    8.5888    3.5919   -5.0981 N   0  0  0  1  0  0  0  0  0  0  0  0
    7.4313    3.8211   -5.8534 N   0  0  0  1  0  0  0  0  0  0  0  0
    7.5037    4.4491   -7.1059 C   0  0  0  1  0  0  0  0  0  0  0  0
    6.4098    4.7638   -7.8898 C   0  0  0  1  0  0  0  0  0  0  0  0
    6.5910    5.3906   -9.1128 C   0  0  0  1  0  0  0  0  0  0  0  0
    7.8658    5.6961   -9.5508 C   0  0  0  1  0  0  0  0  0  0  0  0
    8.9629    5.3803   -8.7644 C   0  0  0  1  0  0  0  0  0  0  0  0
    8.7823    4.7553   -7.5449 C   0  0  0  1  0  0  0  0  0  0  0  0
    8.1653    6.2991  -10.7219 O   0  0  0  1  0  0  0  0  0  0  0  0
    7.1300    6.5070  -11.6952 C   0  0  0  1  0  0  0  0  0  0  0  0
    3.9042    1.6759   -2.4008 N   0  0  0  1  0  0  0  0  0  0  0  0
    4.4125    1.0296   -1.1982 C   0  0  0  1  0  0  0  0  0  0  0  0
    5.2791   -0.1752   -1.5719 C   0  0  0  1  0  0  0  0  0  0  0  0
    6.4877   -0.1212   -0.6342 C   0  0  0  1  0  0  0  0  0  0  0  0
    6.7216    1.3836   -0.4999 C   0  0  0  1  0  0  0  0  0  0  0  0
    5.3179    1.9937   -0.4212 C   0  0  0  1  0  0  0  0  0  0  0  0
    6.1753   -0.7420    0.6898 N   0  0  0  1  0  0  0  0  0  0  0  0
    4.5721    3.6554   -6.2381 H   0  0  0  1  0  0  0  0  0  0  0  0
    8.9451    2.7163   -3.2370 H   0  0  0  1  0  0  0  0  0  0  0  0
    5.4507    4.5303   -7.5621 H   0  0  0  1  0  0  0  0  0  0  0  0
    5.7677    5.6310   -9.7009 H   0  0  0  1  0  0  0  0  0  0  0  0
    9.9219    5.6138   -9.0920 H   0  0  0  1  0  0  0  0  0  0  0  0
    9.6057    4.5149   -6.9568 H   0  0  0  1  0  0  0  0  0  0  0  0
    6.3940    7.1738  -11.2969 H   0  0  0  1  0  0  0  0  0  0  0  0
    6.6709    5.5702  -11.9329 H   0  0  0  1  0  0  0  0  0  0  0  0
    7.5538    6.9320  -12.5811 H   0  0  0  1  0  0  0  0  0  0  0  0
    2.9365    1.7097   -2.5519 H   0  0  0  1  0  0  0  0  0  0  0  0
    3.5920    0.7187   -0.5858 H   0  0  0  1  0  0  0  0  0  0  0  0
    5.5949   -0.1058   -2.5919 H   0  0  0  1  0  0  0  0  0  0  0  0
    4.7352   -1.0853   -1.4276 H   0  0  0  1  0  0  0  0  0  0  0  0
    7.3364   -0.6091   -1.0661 H   0  0  0  1  0  0  0  0  0  0  0  0
    7.2769    1.6005    0.3886 H   0  0  0  1  0  0  0  0  0  0  0  0
    7.2488    1.7602   -1.3514 H   0  0  0  1  0  0  0  0  0  0  0  0
    4.9986    2.0685    0.5973 H   0  0  0  1  0  0  0  0  0  0  0  0
    5.3055    2.9642   -0.8716 H   0  0  0  1  0  0  0  0  0  0  0  0
    5.4509   -0.2434    1.1221 H   0  0  0  1  0  0  0  0  0  0  0  0
    6.9732   -0.7173    1.2583 H   0  0  0  1  0  0  0  0  0  0  0  0
  1  2  4  0  0  0  0
  1  6  4  0  0  0  0
  2  3  4  0  0  0  0
  2 18  1  0  0  0  0
  3  4  4  0  0  0  0
  4  5  4  0  0  0  0
  4  7  4  0  0  0  0
  5  6  4  0  0  0  0
  5  9  4  0  0  0  0
  6 25  1  0  0  0  0
  7  8  4  0  0  0  0
  7 26  1  0  0  0  0
  8  9  4  0  0  0  0
  9 10  1  0  0  0  0
 10 11  4  0  0  0  0
 10 15  4  0  0  0  0
 11 12  4  0  0  0  0
 11 27  1  0  0  0  0
 12 13  4  0  0  0  0
 12 28  1  0  0  0  0
 13 14  4  0  0  0  0
 13 16  1  0  0  0  0
 14 15  4  0  0  0  0
 14 29  1  0  0  0  0
 15 30  1  0  0  0  0
 16 17  1  0  0  0  0
 17 31  1  0  0  0  0
 17 32  1  0  0  0  0
 17 33  1  0  0  0  0
 18 19  1  0  0  0  0
 18 34  1  0  0  0  0
 19 20  1  0  0  0  0
 19 23  1  0  0  0  0
 19 35  1  0  0  0  0
 20 21  1  0  0  0  0
 20 36  1  0  0  0  0
 20 37  1  0  0  0  0
 21 22  1  0  0  0  0
 21 24  1  0  0  0  0
 21 38  1  0  0  0  0
 22 23  1  0  0  0  0
 22 39  1  0  0  0  0
 22 40  1  0  0  0  0
 23 41  1  0  0  0  0
 23 42  1  0  0  0  0
 24 43  1  0  0  0  0
 24 44  1  0  0  0  0
M  END
> <ConfClashScore>
0 

> <ConfOneFourInteractionScore>
-0.980204 

> <ConfScore>
0.0167035 

> <ConfScorePBest>
0.00224709 

> <ConfTolerance>
0.360093 

$$$$
c13.sdf
 OpenBabel04162418043D

 44 47  0  0  0  0  0  0  0  0999 V2000
    5.1093    1.5014   -3.7955 N   0  0  0  1  0  0  0  0  0  0  0  0
    3.8552    1.6459   -3.4024 C   0  0  0  1  0  0  0  0  0  0  0  0
    2.8933    1.9925   -4.2267 N   0  0  0  1  0  0  0  0  0  0  0  0
    3.1575    2.2151   -5.5167 C   0  0  0  1  0  0  0  0  0  0  0  0
    4.4854    2.0702   -5.9716 C   0  0  0  1  0  0  0  0  0  0  0  0
    5.4636    1.7008   -5.0531 C   0  0  0  1  0  0  0  0  0  0  0  0
    2.3816    2.5899   -6.6354 C   0  0  0  1  0  0  0  0  0  0  0  0
    3.1597    2.6674   -7.6775 N   0  0  0  1  0  0  0  0  0  0  0  0
    4.4749    2.3528   -7.3113 N   0  0  0  1  0  0  0  0  0  0  0  0
    5.5159    2.3652   -8.2688 C   0  0  0  1  0  0  0  0  0  0  0  0
    5.2797    2.8538   -9.5399 C   0  0  0  1  0  0  0  0  0  0  0  0
    6.3013    2.8708  -10.4766 C   0  0  0  1  0  0  0  0  0  0  0  0
    7.5547    2.3944  -10.1413 C   0  0  0  1  0  0  0  0  0  0  0  0
    7.7914    1.9044   -8.8663 C   0  0  0  1  0  0  0  0  0  0  0  0
    6.7728    1.8873   -7.9322 C   0  0  0  1  0  0  0  0  0  0  0  0
    8.5251    2.3169  -11.0826 O   0  0  0  1  0  0  0  0  0  0  0  0
    8.2809    2.9800  -12.3329 C   0  0  0  1  0  0  0  0  0  0  0  0
    3.4852    1.4440   -2.1196 N   0  0  0  1  0  0  0  0  0  0  0  0
    4.4183    1.0896   -1.0463 C   0  0  0  1  0  0  0  0  0  0  0  0
    5.2599   -0.1740   -1.4317 C   0  0  0  1  0  0  0  0  0  0  0  0
    6.5374   -0.0340   -0.5370 C   0  0  0  1  0  0  0  0  0  0  0  0
    6.7186    1.4867   -0.2692 C   0  0  0  1  0  0  0  0  0  0  0  0
    5.4816    2.1886   -0.8566 C   0  0  0  1  0  0  0  0  0  0  0  0
    6.3495   -0.7664    0.7500 N   0  0  0  1  0  0  0  0  0  0  0  0
    6.4534    1.5841   -5.3502 H   0  0  0  1  0  0  0  0  0  0  0  0
    1.3580    2.7737   -6.6286 H   0  0  0  1  0  0  0  0  0  0  0  0
    4.3356    3.2086   -9.7936 H   0  0  0  1  0  0  0  0  0  0  0  0
    6.1247    3.2422  -11.4319 H   0  0  0  1  0  0  0  0  0  0  0  0
    8.7355    1.5496   -8.6126 H   0  0  0  1  0  0  0  0  0  0  0  0
    6.9494    1.5160   -6.9770 H   0  0  0  1  0  0  0  0  0  0  0  0
    7.3873    2.5913  -12.7748 H   0  0  0  1  0  0  0  0  0  0  0  0
    9.1067    2.8125  -12.9924 H   0  0  0  1  0  0  0  0  0  0  0  0
    8.1668    4.0302  -12.1630 H   0  0  0  1  0  0  0  0  0  0  0  0
    2.5367    1.5402   -1.8928 H   0  0  0  1  0  0  0  0  0  0  0  0
    3.8740    0.9242   -0.1401 H   0  0  0  1  0  0  0  0  0  0  0  0
    5.5153   -0.1633   -2.4707 H   0  0  0  1  0  0  0  0  0  0  0  0
    4.7280   -1.0740   -1.2039 H   0  0  0  1  0  0  0  0  0  0  0  0
    7.3923   -0.4244   -1.0486 H   0  0  0  1  0  0  0  0  0  0  0  0
    6.7823    1.6709    0.7829 H   0  0  0  1  0  0  0  0  0  0  0  0
    7.6068    1.8424   -0.7484 H   0  0  0  1  0  0  0  0  0  0  0  0
    5.1245    2.9384   -0.1819 H   0  0  0  1  0  0  0  0  0  0  0  0
    5.7217    2.6394   -1.7968 H   0  0  0  1  0  0  0  0  0  0  0  0
    6.2928   -1.7287    0.5735 H   0  0  0  1  0  0  0  0  0  0  0  0
    5.5224   -0.4640    1.1799 H   0  0  0  1  0  0  0  0  0  0  0  0
  1  2  4  0  0  0  0
  1  6  4  0  0  0  0
  2  3  4  0  0  0  0
  2 18  1  0  0  0  0
  3  4  4  0  0  0  0
  4  5  4  0  0  0  0
  4  7  4  0  0  0  0
  5  6  4  0  0  0  0
  5  9  4  0  0  0  0
  6 25  1  0  0  0  0
  7  8  4  0  0  0  0
  7 26  1  0  0  0  0
  8  9  4  0  0  0  0
  9 10  1  0  0  0  0
 10 11  4  0  0  0  0
 10 15  4  0  0  0  0
 11 12  4  0  0  0  0
 11 27  1  0  0  0  0
 12 13  4  0  0  0  0
 12 28  1  0  0  0  0
 13 14  4  0  0  0  0
 13 16  1  0  0  0  0
 14 15  4  0  0  0  0
 14 29  1  0  0  0  0
 15 30  1  0  0  0  0
 16 17  1  0  0  0  0
 17 31  1  0  0  0  0
 17 32  1  0  0  0  0
 17 33  1  0  0  0  0
 18 19  1  0  0  0  0
 18 34  1  0  0  0  0
 19 20  1  0  0  0  0
 19 23  1  0  0  0  0
 19 35  1  0  0  0  0
 20 21  1  0  0  0  0
 20 36  1  0  0  0  0
 20 37  1  0  0  0  0
 21 22  1  0  0  0  0
 21 24  1  0  0  0  0
 21 38  1  0  0  0  0
 22 23  1  0  0  0  0
 22 39  1  0  0  0  0
 22 40  1  0  0  0  0
 23 41  1  0  0  0  0
 23 42  1  0  0  0  0
 24 43  1  0  0  0  0
 24 44  1  0  0  0  0
M  END
> <ConfClashScore>
0 

> <ConfOneFourInteractionScore>
-0.980204 

> <ConfScore>
0.0217969 

> <ConfScorePBest>
0.00223376 

> <ConfTolerance>
0.239967 

$$$$
c13.sdf
 OpenBabel04162418043D

 44 47  0  0  0  0  0  0  0  0999 V2000
    4.1776    2.2400   -4.6671 N   0  0  0  1  0  0  0  0  0  0  0  0
    4.7418    1.8387   -3.5406 C   0  0  0  1  0  0  0  0  0  0  0  0
    6.0406    1.6874   -3.4173 N   0  0  0  1  0  0  0  0  0  0  0  0
    6.8503    1.9396   -4.4489 C   0  0  0  1  0  0  0  0  0  0  0  0
    6.2827    2.3699   -5.6671 C   0  0  0  1  0  0  0  0  0  0  0  0
    4.9002    2.5126   -5.7396 C   0  0  0  1  0  0  0  0  0  0  0  0
    8.2471    1.8806   -4.6480 C   0  0  0  1  0  0  0  0  0  0  0  0
    8.5110    2.2404   -5.8720 N   0  0  0  1  0  0  0  0  0  0  0  0
    7.3205    2.5530   -6.5411 N   0  0  0  1  0  0  0  0  0  0  0  0
    7.3818    3.1179   -7.8470 C   0  0  0  1  0  0  0  0  0  0  0  0
    8.6072    3.3496   -8.4427 C   0  0  0  1  0  0  0  0  0  0  0  0
    8.6668    3.8945   -9.7159 C   0  0  0  1  0  0  0  0  0  0  0  0
    7.5010    4.2109  -10.3875 C   0  0  0  1  0  0  0  0  0  0  0  0
    6.2721    3.9784   -9.7899 C   0  0  0  1  0  0  0  0  0  0  0  0
    6.2125    3.4352   -8.5204 C   0  0  0  1  0  0  0  0  0  0  0  0
    7.4343    4.7502  -11.6279 O   0  0  0  1  0  0  0  0  0  0  0  0
    8.6729    4.9330  -12.3315 C   0  0  0  1  0  0  0  0  0  0  0  0
    3.9572    1.5752   -2.4801 N   0  0  0  1  0  0  0  0  0  0  0  0
    4.4541    1.0443   -1.2087 C   0  0  0  1  0  0  0  0  0  0  0  0
    5.3218   -0.1884   -1.4415 C   0  0  0  1  0  0  0  0  0  0  0  0
    6.5362   -0.0777   -0.5116 C   0  0  0  1  0  0  0  0  0  0  0  0
    6.8260    1.4607   -0.5297 C   0  0  0  1  0  0  0  0  0  0  0  0
    5.4133    2.0734   -0.5152 C   0  0  0  1  0  0  0  0  0  0  0  0
    6.2090   -0.5495    0.8626 N   0  0  0  1  0  0  0  0  0  0  0  0
    4.4448    2.8274   -6.6201 H   0  0  0  1  0  0  0  0  0  0  0  0
    8.9492    1.5967   -3.9352 H   0  0  0  1  0  0  0  0  0  0  0  0
    9.4846    3.1152   -7.9357 H   0  0  0  1  0  0  0  0  0  0  0  0
    9.5888    4.0651  -10.1657 H   0  0  0  1  0  0  0  0  0  0  0  0
    5.3947    4.2128  -10.2968 H   0  0  0  1  0  0  0  0  0  0  0  0
    5.2906    3.2645   -8.0705 H   0  0  0  1  0  0  0  0  0  0  0  0
    9.2984    5.6070  -11.7843 H   0  0  0  1  0  0  0  0  0  0  0  0
    8.4752    5.3383  -13.3018 H   0  0  0  1  0  0  0  0  0  0  0  0
    9.1680    3.9898  -12.4325 H   0  0  0  1  0  0  0  0  0  0  0  0
    2.9963    1.7488   -2.5632 H   0  0  0  1  0  0  0  0  0  0  0  0
    3.6269    0.8098   -0.5719 H   0  0  0  1  0  0  0  0  0  0  0  0
    5.6441   -0.2212   -2.4613 H   0  0  0  1  0  0  0  0  0  0  0  0
    4.7666   -1.0743   -1.2138 H   0  0  0  1  0  0  0  0  0  0  0  0
    7.3678   -0.6337   -0.8916 H   0  0  0  1  0  0  0  0  0  0  0  0
    7.3591    1.7421   -1.4137 H   0  0  0  1  0  0  0  0  0  0  0  0
    7.3838    1.7580    0.3336 H   0  0  0  1  0  0  0  0  0  0  0  0
    5.4094    2.9982   -1.0535 H   0  0  0  1  0  0  0  0  0  0  0  0
    5.0989    2.2455    0.4929 H   0  0  0  1  0  0  0  0  0  0  0  0
    6.0060   -1.5080    0.8397 H   0  0  0  1  0  0  0  0  0  0  0  0
    5.4303   -0.0589    1.1994 H   0  0  0  1  0  0  0  0  0  0  0  0
  1  2  4  0  0  0  0
  1  6  4  0  0  0  0
  2  3  4  0  0  0  0
  2 18  1  0  0  0  0
  3  4  4  0  0  0  0
  4  5  4  0  0  0  0
  4  7  4  0  0  0  0
  5  6  4  0  0  0  0
  5  9  4  0  0  0  0
  6 25  1  0  0  0  0
  7  8  4  0  0  0  0
  7 26  1  0  0  0  0
  8  9  4  0  0  0  0
  9 10  1  0  0  0  0
 10 11  4  0  0  0  0
 10 15  4  0  0  0  0
 11 12  4  0  0  0  0
 11 27  1  0  0  0  0
 12 13  4  0  0  0  0
 12 28  1  0  0  0  0
 13 14  4  0  0  0  0
 13 16  1  0  0  0  0
 14 15  4  0  0  0  0
 14 29  1  0  0  0  0
 15 30  1  0  0  0  0
 16 17  1  0  0  0  0
 17 31  1  0  0  0  0
 17 32  1  0  0  0  0
 17 33  1  0  0  0  0
 18 19  1  0  0  0  0
 18 34  1  0  0  0  0
 19 20  1  0  0  0  0
 19 23  1  0  0  0  0
 19 35  1  0  0  0  0
 20 21  1  0  0  0  0
 20 36  1  0  0  0  0
 20 37  1  0  0  0  0
 21 22  1  0  0  0  0
 21 24  1  0  0  0  0
 21 38  1  0  0  0  0
 22 23  1  0  0  0  0
 22 39  1  0  0  0  0
 22 40  1  0  0  0  0
 23 41  1  0  0  0  0
 23 42  1  0  0  0  0
 24 43  1  0  0  0  0
 24 44  1  0  0  0  0
M  END
> <ConfClashScore>
0 

> <ConfOneFourInteractionScore>
-0.980204 

> <ConfScore>
0.0217969 

> <ConfScorePBest>
0.00222043 

> <ConfTolerance>
0.317946 

$$$$
c13.sdf
 OpenBabel04162418043D

 44 47  0  0  0  0  0  0  0  0999 V2000
    5.1402    1.8362   -3.7147 N   0  0  0  1  0  0  0  0  0  0  0  0
    3.8659    1.7556   -3.3710 C   0  0  0  1  0  0  0  0  0  0  0  0
    2.8906    1.9723   -4.2235 N   0  0  0  1  0  0  0  0  0  0  0  0
    3.1612    2.2879   -5.4926 C   0  0  0  1  0  0  0  0  0  0  0  0
    4.5105    2.3827   -5.8948 C   0  0  0  1  0  0  0  0  0  0  0  0
    5.5021    2.1425   -4.9483 C   0  0  0  1  0  0  0  0  0  0  0  0
    2.3752    2.5750   -6.6301 C   0  0  0  1  0  0  0  0  0  0  0  0
    3.1672    2.8223   -7.6346 N   0  0  0  1  0  0  0  0  0  0  0  0
    4.5022    2.7143   -7.2232 N   0  0  0  1  0  0  0  0  0  0  0  0
    5.5358    2.9475   -8.1746 C   0  0  0  1  0  0  0  0  0  0  0  0
    6.6181    2.0983   -8.3080 C   0  0  0  1  0  0  0  0  0  0  0  0
    7.5459    2.3112   -9.3156 C   0  0  0  1  0  0  0  0  0  0  0  0
    7.3918    3.3758  -10.1835 C   0  0  0  1  0  0  0  0  0  0  0  0
    6.3062    4.2274  -10.0496 C   0  0  0  1  0  0  0  0  0  0  0  0
    5.3810    4.0152   -9.0449 C   0  0  0  1  0  0  0  0  0  0  0  0
    8.3617    3.4859  -11.1220 O   0  0  0  1  0  0  0  0  0  0  0  0
    8.1974    4.5066  -12.1189 C   0  0  0  1  0  0  0  0  0  0  0  0
    3.4880    1.4432   -2.1130 N   0  0  0  1  0  0  0  0  0  0  0  0
    4.4226    1.0799   -1.0467 C   0  0  0  1  0  0  0  0  0  0  0  0
    5.2638   -0.1797   -1.4457 C   0  0  0  1  0  0  0  0  0  0  0  0
    6.5435   -0.0474   -0.5530 C   0  0  0  1  0  0  0  0  0  0  0  0
    6.7247    1.4709   -0.2716 C   0  0  0  1  0  0  0  0  0  0  0  0
    5.4859    2.1776   -0.8495 C   0  0  0  1  0  0  0  0  0  0  0  0
    6.3588   -0.7930    0.7299 N   0  0  0  1  0  0  0  0  0  0  0  0
    6.5078    2.2029   -5.2066 H   0  0  0  1  0  0  0  0  0  0  0  0
    1.3358    2.5870   -6.6610 H   0  0  0  1  0  0  0  0  0  0  0  0
    6.7363    1.2996   -7.6524 H   0  0  0  1  0  0  0  0  0  0  0  0
    8.3581    1.6699   -9.4185 H   0  0  0  1  0  0  0  0  0  0  0  0
    6.1880    5.0261  -10.7051 H   0  0  0  1  0  0  0  0  0  0  0  0
    4.5688    4.6566   -8.9420 H   0  0  0  1  0  0  0  0  0  0  0  0
    7.2066    4.4579  -12.5200 H   0  0  0  1  0  0  0  0  0  0  0  0
    8.9078    4.3551  -12.9046 H   0  0  0  1  0  0  0  0  0  0  0  0
    8.3553    5.4672  -11.6748 H   0  0  0  1  0  0  0  0  0  0  0  0
    2.5313    1.4608   -1.9012 H   0  0  0  1  0  0  0  0  0  0  0  0
    3.8806    0.9059   -0.1407 H   0  0  0  1  0  0  0  0  0  0  0  0
    4.7328   -1.0821   -1.2249 H   0  0  0  1  0  0  0  0  0  0  0  0
    5.5167   -0.1594   -2.4852 H   0  0  0  1  0  0  0  0  0  0  0  0
    7.3972   -0.4327   -1.0703 H   0  0  0  1  0  0  0  0  0  0  0  0
    7.6115    1.8313   -0.7498 H   0  0  0  1  0  0  0  0  0  0  0  0
    6.7909    1.6454    0.7820 H   0  0  0  1  0  0  0  0  0  0  0  0
    5.7235    2.6370   -1.7862 H   0  0  0  1  0  0  0  0  0  0  0  0
    5.1302    2.9209   -0.1671 H   0  0  0  1  0  0  0  0  0  0  0  0
    6.0355   -1.6982    0.5386 H   0  0  0  1  0  0  0  0  0  0  0  0
    5.7044   -0.3240    1.2887 H   0  0  0  1  0  0  0  0  0  0  0  0
  1  2  4  0  0  0  0
  1  6  4  0  0  0  0
  2  3  4  0  0  0  0
  2 18  1  0  0  0  0
  3  4  4  0  0  0  0
  4  5  4  0  0  0  0
  4  7  4  0  0  0  0
  5  6  4  0  0  0  0
  5  9  4  0  0  0  0
  6 25  1  0  0  0  0
  7  8  4  0  0  0  0
  7 26  1  0  0  0  0
  8  9  4  0  0  0  0
  9 10  1  0  0  0  0
 10 11  4  0  0  0  0
 10 15  4  0  0  0  0
 11 12  4  0  0  0  0
 11 27  1  0  0  0  0
 12 13  4  0  0  0  0
 12 28  1  0  0  0  0
 13 14  4  0  0  0  0
 13 16  1  0  0  0  0
 14 15  4  0  0  0  0
 14 29  1  0  0  0  0
 15 30  1  0  0  0  0
 16 17  1  0  0  0  0
 17 31  1  0  0  0  0
 17 32  1  0  0  0  0
 17 33  1  0  0  0  0
 18 19  1  0  0  0  0
 18 34  1  0  0  0  0
 19 20  1  0  0  0  0
 19 23  1  0  0  0  0
 19 35  1  0  0  0  0
 20 21  1  0  0  0  0
 20 36  1  0  0  0  0
 20 37  1  0  0  0  0
 21 22  1  0  0  0  0
 21 24  1  0  0  0  0
 21 38  1  0  0  0  0
 22 23  1  0  0  0  0
 22 39  1  0  0  0  0
 22 40  1  0  0  0  0
 23 41  1  0  0  0  0
 23 42  1  0  0  0  0
 24 43  1  0  0  0  0
 24 44  1  0  0  0  0
M  END
> <ConfClashScore>
0 

> <ConfOneFourInteractionScore>
-0.980204 

> <ConfScore>
0.0221769 

> <ConfScorePBest>
0.0022071 

> <ConfTolerance>
0.249827 

$$$$
c13.sdf
 OpenBabel04162418043D

 44 47  0  0  0  0  0  0  0  0999 V2000
    5.0235    1.5493   -3.9101 N   0  0  0  1  0  0  0  0  0  0  0  0
    3.7789    1.6938   -3.4876 C   0  0  0  1  0  0  0  0  0  0  0  0
    2.8022    2.0625   -4.2845 N   0  0  0  1  0  0  0  0  0  0  0  0
    3.0406    2.3085   -5.5753 C   0  0  0  1  0  0  0  0  0  0  0  0
    4.3576    2.1643   -6.0610 C   0  0  0  1  0  0  0  0  0  0  0  0
    5.3525    1.7710   -5.1707 C   0  0  0  1  0  0  0  0  0  0  0  0
    2.2437    2.7099   -6.6698 C   0  0  0  1  0  0  0  0  0  0  0  0
    3.0001    2.8029   -7.7264 N   0  0  0  1  0  0  0  0  0  0  0  0
    4.3207    2.4731   -7.3944 N   0  0  0  1  0  0  0  0  0  0  0  0
    5.3137    2.5114   -8.4104 C   0  0  0  1  0  0  0  0  0  0  0  0
    6.4177    3.3307   -8.2684 C   0  0  0  1  0  0  0  0  0  0  0  0
    7.3409    3.4339   -9.2972 C   0  0  0  1  0  0  0  0  0  0  0  0
    7.1549    2.7216  -10.4669 C   0  0  0  1  0  0  0  0  0  0  0  0
    6.0475    1.8999  -10.6092 C   0  0  0  1  0  0  0  0  0  0  0  0
    5.1269    1.7969   -9.5835 C   0  0  0  1  0  0  0  0  0  0  0  0
    8.1177    2.9060  -11.4012 O   0  0  0  1  0  0  0  0  0  0  0  0
    7.8973    2.3221  -12.6947 C   0  0  0  1  0  0  0  0  0  0  0  0
    3.5013    1.4546   -2.1933 N   0  0  0  1  0  0  0  0  0  0  0  0
    4.4080    1.0579   -1.1235 C   0  0  0  1  0  0  0  0  0  0  0  0
    5.2582   -0.1332   -1.5335 C   0  0  0  1  0  0  0  0  0  0  0  0
    6.4750   -0.0745   -0.6038 C   0  0  0  1  0  0  0  0  0  0  0  0
    6.6070    1.3887   -0.1608 C   0  0  0  1  0  0  0  0  0  0  0  0
    5.4697    2.1328   -0.8662 C   0  0  0  1  0  0  0  0  0  0  0  0
    6.2624   -0.9579    0.5837 N   0  0  0  1  0  0  0  0  0  0  0  0
    6.3350    1.6540   -5.4911 H   0  0  0  1  0  0  0  0  0  0  0  0
    1.2217    2.8998   -6.6377 H   0  0  0  1  0  0  0  0  0  0  0  0
    6.5557    3.8698   -7.3898 H   0  0  0  1  0  0  0  0  0  0  0  0
    8.1738    4.0473   -9.1888 H   0  0  0  1  0  0  0  0  0  0  0  0
    5.9095    1.3608  -11.4878 H   0  0  0  1  0  0  0  0  0  0  0  0
    4.2941    1.1835   -9.6918 H   0  0  0  1  0  0  0  0  0  0  0  0
    7.7688    1.2648  -12.5921 H   0  0  0  1  0  0  0  0  0  0  0  0
    8.7406    2.5193  -13.3231 H   0  0  0  1  0  0  0  0  0  0  0  0
    7.0184    2.7471  -13.1325 H   0  0  0  1  0  0  0  0  0  0  0  0
    2.5621    1.5615   -1.9348 H   0  0  0  1  0  0  0  0  0  0  0  0
    3.8452    0.8475   -0.2381 H   0  0  0  1  0  0  0  0  0  0  0  0
    5.5597   -0.0482   -2.5566 H   0  0  0  1  0  0  0  0  0  0  0  0
    4.7201   -1.0475   -1.3945 H   0  0  0  1  0  0  0  0  0  0  0  0
    7.3558   -0.3844   -1.1264 H   0  0  0  1  0  0  0  0  0  0  0  0
    6.5041    1.4687    0.9012 H   0  0  0  1  0  0  0  0  0  0  0  0
    7.5549    1.7856   -0.4587 H   0  0  0  1  0  0  0  0  0  0  0  0
    5.8098    2.5563   -1.7881 H   0  0  0  1  0  0  0  0  0  0  0  0
    5.0792    2.9074   -0.2398 H   0  0  0  1  0  0  0  0  0  0  0  0
    5.4085   -0.7340    1.0093 H   0  0  0  1  0  0  0  0  0  0  0  0
    6.9916   -0.8243    1.2247 H   0  0  0  1  0  0  0  0  0  0  0  0
  1  2  4  0  0  0  0
  1  6  4  0  0  0  0
  2  3  4  0  0  0  0
  2 18  1  0  0  0  0
  3  4  4  0  0  0  0
  4  5  4  0  0  0  0
  4  7  4  0  0  0  0
  5  6  4  0  0  0  0
  5  9  4  0  0  0  0
  6 25  1  0  0  0  0
  7  8  4  0  0  0  0
  7 26  1  0  0  0  0
  8  9  4  0  0  0  0
  9 10  1  0  0  0  0
 10 11  4  0  0  0  0
 10 15  4  0  0  0  0
 11 12  4  0  0  0  0
 11 27  1  0  0  0  0
 12 13  4  0  0  0  0
 12 28  1  0  0  0  0
 13 14  4  0  0  0  0
 13 16  1  0  0  0  0
 14 15  4  0  0  0  0
 14 29  1  0  0  0  0
 15 30  1  0  0  0  0
 16 17  1  0  0  0  0
 17 31  1  0  0  0  0
 17 32  1  0  0  0  0
 17 33  1  0  0  0  0
 18 19  1  0  0  0  0
 18 34  1  0  0  0  0
 19 20  1  0  0  0  0
 19 23  1  0  0  0  0
 19 35  1  0  0  0  0
 20 21  1  0  0  0  0
 20 36  1  0  0  0  0
 20 37  1  0  0  0  0
 21 22  1  0  0  0  0
 21 24  1  0  0  0  0
 21 38  1  0  0  0  0
 22 23  1  0  0  0  0
 22 39  1  0  0  0  0
 22 40  1  0  0  0  0
 23 41  1  0  0  0  0
 23 42  1  0  0  0  0
 24 43  1  0  0  0  0
 24 44  1  0  0  0  0
M  END
> <ConfClashScore>
0 

> <ConfOneFourInteractionScore>
-0.982693 

> <ConfScore>
0.0231122 

> <ConfScorePBest>
0.00219377 

> <ConfTolerance>
0.384622 

$$$$
c13.sdf
 OpenBabel04162418043D

 44 47  0  0  0  0  0  0  0  0999 V2000
    2.4367   -0.6367   -1.6881 N   0  0  0  1  0  0  0  0  0  0  0  0
    2.4380    0.5158   -2.3363 C   0  0  0  1  0  0  0  0  0  0  0  0
    1.4962    0.8455   -3.1903 N   0  0  0  1  0  0  0  0  0  0  0  0
    0.4851    0.0085   -3.4365 C   0  0  0  1  0  0  0  0  0  0  0  0
    0.4513   -1.2308   -2.7623 C   0  0  0  1  0  0  0  0  0  0  0  0
    1.4762   -1.5266   -1.8684 C   0  0  0  1  0  0  0  0  0  0  0  0
   -0.6545    0.0512   -4.2692 C   0  0  0  1  0  0  0  0  0  0  0  0
   -1.3237   -1.0567   -4.1200 N   0  0  0  1  0  0  0  0  0  0  0  0
   -0.6731   -1.8821   -3.1935 N   0  0  0  1  0  0  0  0  0  0  0  0
   -1.2064   -3.1580   -2.8533 C   0  0  0  1  0  0  0  0  0  0  0  0
   -1.5405   -3.4399   -1.5422 C   0  0  0  1  0  0  0  0  0  0  0  0
   -2.0645   -4.6800   -1.2120 C   0  0  0  1  0  0  0  0  0  0  0  0
   -2.2480   -5.6363   -2.1928 C   0  0  0  1  0  0  0  0  0  0  0  0
   -1.9128   -5.3534   -3.5078 C   0  0  0  1  0  0  0  0  0  0  0  0
   -1.3903   -4.1169   -3.8372 C   0  0  0  1  0  0  0  0  0  0  0  0
   -2.7450   -6.8796   -1.9903 O   0  0  0  1  0  0  0  0  0  0  0  0
   -3.2636   -7.1743   -0.6839 C   0  0  0  1  0  0  0  0  0  0  0  0
    3.4692    1.4085   -2.1074 N   0  0  0  1  0  0  0  0  0  0  0  0
    4.4313    1.0884   -1.0439 C   0  0  0  1  0  0  0  0  0  0  0  0
    5.2663   -0.1296   -1.4030 C   0  0  0  1  0  0  0  0  0  0  0  0
    6.5227   -0.0033   -0.5348 C   0  0  0  1  0  0  0  0  0  0  0  0
    6.6696    1.4884   -0.2060 C   0  0  0  1  0  0  0  0  0  0  0  0
    5.4999    2.1791   -0.9129 C   0  0  0  1  0  0  0  0  0  0  0  0
    6.3654   -0.7975    0.7223 N   0  0  0  1  0  0  0  0  0  0  0  0
    1.4862   -2.4296   -1.3527 H   0  0  0  1  0  0  0  0  0  0  0  0
   -0.9164    0.8372   -4.8979 H   0  0  0  1  0  0  0  0  0  0  0  0
   -1.3987   -2.7218   -0.8034 H   0  0  0  1  0  0  0  0  0  0  0  0
   -2.3197   -4.8908   -0.2261 H   0  0  0  1  0  0  0  0  0  0  0  0
   -2.0546   -6.0715   -4.2466 H   0  0  0  1  0  0  0  0  0  0  0  0
   -1.1351   -3.9061   -4.8231 H   0  0  0  1  0  0  0  0  0  0  0  0
   -2.6236   -7.8797   -0.1964 H   0  0  0  1  0  0  0  0  0  0  0  0
   -4.2460   -7.5882   -0.7754 H   0  0  0  1  0  0  0  0  0  0  0  0
   -3.3074   -6.2745   -0.1066 H   0  0  0  1  0  0  0  0  0  0  0  0
    3.5555    2.2283   -2.6374 H   0  0  0  1  0  0  0  0  0  0  0  0
    3.9088    0.9433   -0.1214 H   0  0  0  1  0  0  0  0  0  0  0  0
    5.5222   -0.1196   -2.4419 H   0  0  0  1  0  0  0  0  0  0  0  0
    4.7377   -1.0313   -1.1740 H   0  0  0  1  0  0  0  0  0  0  0  0
    7.3806   -0.3506   -1.0717 H   0  0  0  1  0  0  0  0  0  0  0  0
    6.6133    1.6458    0.8508 H   0  0  0  1  0  0  0  0  0  0  0  0
    7.6022    1.8624   -0.5737 H   0  0  0  1  0  0  0  0  0  0  0  0
    5.7977    2.5341   -1.8774 H   0  0  0  1  0  0  0  0  0  0  0  0
    5.1350    2.9975   -0.3281 H   0  0  0  1  0  0  0  0  0  0  0  0
    6.3737   -1.7538    0.5083 H   0  0  0  1  0  0  0  0  0  0  0  0
    5.5148   -0.5662    1.1503 H   0  0  0  1  0  0  0  0  0  0  0  0
  1  2  4  0  0  0  0
  1  6  4  0  0  0  0
  2  3  4  0  0  0  0
  2 18  1  0  0  0  0
  3  4  4  0  0  0  0
  4  5  4  0  0  0  0
  4  7  4  0  0  0  0
  5  6  4  0  0  0  0
  5  9  4  0  0  0  0
  6 25  1  0  0  0  0
  7  8  4  0  0  0  0
  7 26  1  0  0  0  0
  8  9  4  0  0  0  0
  9 10  1  0  0  0  0
 10 11  4  0  0  0  0
 10 15  4  0  0  0  0
 11 12  4  0  0  0  0
 11 27  1  0  0  0  0
 12 13  4  0  0  0  0
 12 28  1  0  0  0  0
 13 14  4  0  0  0  0
 13 16  1  0  0  0  0
 14 15  4  0  0  0  0
 14 29  1  0  0  0  0
 15 30  1  0  0  0  0
 16 17  1  0  0  0  0
 17 31  1  0  0  0  0
 17 32  1  0  0  0  0
 17 33  1  0  0  0  0
 18 19  1  0  0  0  0
 18 34  1  0  0  0  0
 19 20  1  0  0  0  0
 19 23  1  0  0  0  0
 19 35  1  0  0  0  0
 20 21  1  0  0  0  0
 20 36  1  0  0  0  0
 20 37  1  0  0  0  0
 21 22  1  0  0  0  0
 21 24  1  0  0  0  0
 21 38  1  0  0  0  0
 22 23  1  0  0  0  0
 22 39  1  0  0  0  0
 22 40  1  0  0  0  0
 23 41  1  0  0  0  0
 23 42  1  0  0  0  0
 24 43  1  0  0  0  0
 24 44  1  0  0  0  0
M  END
> <ConfClashScore>
0 

> <ConfOneFourInteractionScore>
-0.981848 

> <ConfScore>
0.0239961 

> <ConfScorePBest>
0.00218045 

> <ConfTolerance>
0.397213 

$$$$
c13.sdf
 OpenBabel04162418043D

 44 47  0  0  0  0  0  0  0  0999 V2000
    2.6686   -0.3780   -2.5976 N   0  0  0  1  0  0  0  0  0  0  0  0
    3.1258    0.6015   -3.3591 C   0  0  0  1  0  0  0  0  0  0  0  0
    2.7350    0.7698   -4.6017 N   0  0  0  1  0  0  0  0  0  0  0  0
    1.8436   -0.0617   -5.1473 C   0  0  0  1  0  0  0  0  0  0  0  0
    1.3341   -1.1188   -4.3635 C   0  0  0  1  0  0  0  0  0  0  0  0
    1.7844   -1.2483   -3.0530 C   0  0  0  1  0  0  0  0  0  0  0  0
    1.2295   -0.1609   -6.4150 C   0  0  0  1  0  0  0  0  0  0  0  0
    0.4202   -1.1818   -6.4093 N   0  0  0  1  0  0  0  0  0  0  0  0
    0.4535   -1.8059   -5.1553 N   0  0  0  1  0  0  0  0  0  0  0  0
   -0.3189   -2.9430   -4.8435 C   0  0  0  1  0  0  0  0  0  0  0  0
   -0.7415   -3.8381   -5.8081 C   0  0  0  1  0  0  0  0  0  0  0  0
   -1.4950   -4.9435   -5.4450 C   0  0  0  1  0  0  0  0  0  0  0  0
   -1.8282   -5.1478   -4.1193 C   0  0  0  1  0  0  0  0  0  0  0  0
   -1.4041   -4.2500   -3.1520 C   0  0  0  1  0  0  0  0  0  0  0  0
   -0.6529   -3.1478   -3.5138 C   0  0  0  1  0  0  0  0  0  0  0  0
   -2.5692   -6.2656   -3.9314 O   0  0  0  1  0  0  0  0  0  0  0  0
   -2.9247   -6.5978   -2.5802 C   0  0  0  1  0  0  0  0  0  0  0  0
    4.0484    1.4560   -2.7832 N   0  0  0  1  0  0  0  0  0  0  0  0
    4.4360    1.2084   -1.3908 C   0  0  0  1  0  0  0  0  0  0  0  0
    5.0329   -0.1967   -1.2413 C   0  0  0  1  0  0  0  0  0  0  0  0
    6.4096   -0.0183   -0.5971 C   0  0  0  1  0  0  0  0  0  0  0  0
    6.3924    1.3759    0.0344 C   0  0  0  1  0  0  0  0  0  0  0  0
    5.5512    2.1697   -0.9653 C   0  0  0  1  0  0  0  0  0  0  0  0
    6.6370   -1.0722    0.4597 N   0  0  0  1  0  0  0  0  0  0  0  0
    1.4322   -2.0146   -2.4444 H   0  0  0  1  0  0  0  0  0  0  0  0
    1.3959    0.4759   -7.2202 H   0  0  0  1  0  0  0  0  0  0  0  0
   -0.4943   -3.6822   -6.8061 H   0  0  0  1  0  0  0  0  0  0  0  0
   -1.8097   -5.6192   -6.1703 H   0  0  0  1  0  0  0  0  0  0  0  0
   -1.6514   -4.4058   -2.1539 H   0  0  0  1  0  0  0  0  0  0  0  0
   -0.3382   -2.4720   -2.7885 H   0  0  0  1  0  0  0  0  0  0  0  0
   -3.5210   -5.8127   -2.1645 H   0  0  0  1  0  0  0  0  0  0  0  0
   -2.0357   -6.7172   -1.9968 H   0  0  0  1  0  0  0  0  0  0  0  0
   -3.4822   -7.5110   -2.5726 H   0  0  0  1  0  0  0  0  0  0  0  0
    4.4308    2.2030   -3.2895 H   0  0  0  1  0  0  0  0  0  0  0  0
    3.5817    1.3217   -0.7566 H   0  0  0  1  0  0  0  0  0  0  0  0
    4.4076   -0.7992   -0.6160 H   0  0  0  1  0  0  0  0  0  0  0  0
    5.1312   -0.6603   -2.2007 H   0  0  0  1  0  0  0  0  0  0  0  0
    7.1794   -0.0831   -1.3375 H   0  0  0  1  0  0  0  0  0  0  0  0
    5.9333    1.3587    1.0008 H   0  0  0  1  0  0  0  0  0  0  0  0
    7.3807    1.7776    0.1156 H   0  0  0  1  0  0  0  0  0  0  0  0
    5.1400    3.0423   -0.5023 H   0  0  0  1  0  0  0  0  0  0  0  0
    6.1422    2.4582   -1.8094 H   0  0  0  1  0  0  0  0  0  0  0  0
    5.9131   -1.0357    1.1192 H   0  0  0  1  0  0  0  0  0  0  0  0
    7.4938   -0.9075    0.9060 H   0  0  0  1  0  0  0  0  0  0  0  0
  1  2  4  0  0  0  0
  1  6  4  0  0  0  0
  2  3  4  0  0  0  0
  2 18  1  0  0  0  0
  3  4  4  0  0  0  0
  4  5  4  0  0  0  0
  4  7  4  0  0  0  0
  5  6  4  0  0  0  0
  5  9  4  0  0  0  0
  6 25  1  0  0  0  0
  7  8  4  0  0  0  0
  7 26  1  0  0  0  0
  8  9  4  0  0  0  0
  9 10  1  0  0  0  0
 10 11  4  0  0  0  0
 10 15  4  0  0  0  0
 11 12  4  0  0  0  0
 11 27  1  0  0  0  0
 12 13  4  0  0  0  0
 12 28  1  0  0  0  0
 13 14  4  0  0  0  0
 13 16  1  0  0  0  0
 14 15  4  0  0  0  0
 14 29  1  0  0  0  0
 15 30  1  0  0  0  0
 16 17  1  0  0  0  0
 17 31  1  0  0  0  0
 17 32  1  0  0  0  0
 17 33  1  0  0  0  0
 18 19  1  0  0  0  0
 18 34  1  0  0  0  0
 19 20  1  0  0  0  0
 19 23  1  0  0  0  0
 19 35  1  0  0  0  0
 20 21  1  0  0  0  0
 20 36  1  0  0  0  0
 20 37  1  0  0  0  0
 21 22  1  0  0  0  0
 21 24  1  0  0  0  0
 21 38  1  0  0  0  0
 22 23  1  0  0  0  0
 22 39  1  0  0  0  0
 22 40  1  0  0  0  0
 23 41  1  0  0  0  0
 23 42  1  0  0  0  0
 24 43  1  0  0  0  0
 24 44  1  0  0  0  0
M  END
> <ConfClashScore>
0 

> <ConfOneFourInteractionScore>
-0.981848 

> <ConfScore>
0.0242488 

> <ConfScorePBest>
0.00216712 

> <ConfTolerance>
0.51295 

$$$$
c13.sdf
 OpenBabel04162418043D

 44 47  0  0  0  0  0  0  0  0999 V2000
    3.2682    2.1565   -4.3912 N   0  0  0  1  0  0  0  0  0  0  0  0
    4.1071    1.8402   -3.4193 C   0  0  0  1  0  0  0  0  0  0  0  0
    5.4110    1.8888   -3.5696 N   0  0  0  1  0  0  0  0  0  0  0  0
    5.9424    2.2677   -4.7347 C   0  0  0  1  0  0  0  0  0  0  0  0
    5.0768    2.6126   -5.7945 C   0  0  0  1  0  0  0  0  0  0  0  0
    3.7039    2.5424   -5.5778 C   0  0  0  1  0  0  0  0  0  0  0  0
    7.2604    2.4242   -5.2169 C   0  0  0  1  0  0  0  0  0  0  0  0
    7.2081    2.8269   -6.4548 N   0  0  0  1  0  0  0  0  0  0  0  0
    5.8717    2.9572   -6.8547 N   0  0  0  1  0  0  0  0  0  0  0  0
    5.5435    3.3859   -8.1725 C   0  0  0  1  0  0  0  0  0  0  0  0
    6.0226    4.5927   -8.6459 C   0  0  0  1  0  0  0  0  0  0  0  0
    5.7075    5.0074   -9.9305 C   0  0  0  1  0  0  0  0  0  0  0  0
    4.9099    4.2167  -10.7360 C   0  0  0  1  0  0  0  0  0  0  0  0
    4.4295    3.0062  -10.2610 C   0  0  0  1  0  0  0  0  0  0  0  0
    4.7436    2.5926   -8.9802 C   0  0  0  1  0  0  0  0  0  0  0  0
    4.6786    4.5816  -12.0195 O   0  0  0  1  0  0  0  0  0  0  0  0
    4.0359    3.6190  -12.8697 C   0  0  0  1  0  0  0  0  0  0  0  0
    3.5452    1.4494   -2.2177 N   0  0  0  1  0  0  0  0  0  0  0  0
    4.4019    1.0152   -1.1230 C   0  0  0  1  0  0  0  0  0  0  0  0
    5.2997   -0.1423   -1.5518 C   0  0  0  1  0  0  0  0  0  0  0  0
    6.4738   -0.1251   -0.5886 C   0  0  0  1  0  0  0  0  0  0  0  0
    6.6792    1.3734   -0.3124 C   0  0  0  1  0  0  0  0  0  0  0  0
    5.4207    2.1081   -0.7469 C   0  0  0  1  0  0  0  0  0  0  0  0
    6.1486   -0.8547    0.6576 N   0  0  0  1  0  0  0  0  0  0  0  0
    3.0341    2.7886   -6.3344 H   0  0  0  1  0  0  0  0  0  0  0  0
    8.1293    2.2472   -4.6735 H   0  0  0  1  0  0  0  0  0  0  0  0
    6.6194    5.1897   -8.0384 H   0  0  0  1  0  0  0  0  0  0  0  0
    6.0712    5.9137  -10.2882 H   0  0  0  1  0  0  0  0  0  0  0  0
    3.8326    2.4093  -10.8685 H   0  0  0  1  0  0  0  0  0  0  0  0
    4.3798    1.6864   -8.6224 H   0  0  0  1  0  0  0  0  0  0  0  0
    4.6166    2.7207  -12.8950 H   0  0  0  1  0  0  0  0  0  0  0  0
    3.9522    4.0173  -13.8593 H   0  0  0  1  0  0  0  0  0  0  0  0
    3.0600    3.4020  -12.4883 H   0  0  0  1  0  0  0  0  0  0  0  0
    2.5721    1.4647   -2.1029 H   0  0  0  1  0  0  0  0  0  0  0  0
    3.7978    0.7446   -0.2824 H   0  0  0  1  0  0  0  0  0  0  0  0
    4.7720   -1.0704   -1.4810 H   0  0  0  1  0  0  0  0  0  0  0  0
    5.6387    0.0002   -2.5566 H   0  0  0  1  0  0  0  0  0  0  0  0
    7.3446   -0.5553   -1.0376 H   0  0  0  1  0  0  0  0  0  0  0  0
    6.8485    1.5301    0.7324 H   0  0  0  1  0  0  0  0  0  0  0  0
    7.5197    1.7331   -0.8683 H   0  0  0  1  0  0  0  0  0  0  0  0
    5.6268    2.7312   -1.5920 H   0  0  0  1  0  0  0  0  0  0  0  0
    5.0441    2.7075    0.0554 H   0  0  0  1  0  0  0  0  0  0  0  0
    5.3484   -0.4636    1.0663 H   0  0  0  1  0  0  0  0  0  0  0  0
    6.9009   -0.7859    1.2819 H   0  0  0  1  0  0  0  0  0  0  0  0
  1  2  4  0  0  0  0
  1  6  4  0  0  0  0
  2  3  4  0  0  0  0
  2 18  1  0  0  0  0
  3  4  4  0  0  0  0
  4  5  4  0  0  0  0
  4  7  4  0  0  0  0
  5  6  4  0  0  0  0
  5  9  4  0  0  0  0
  6 25  1  0  0  0  0
  7  8  4  0  0  0  0
  7 26  1  0  0  0  0
  8  9  4  0  0  0  0
  9 10  1  0  0  0  0
 10 11  4  0  0  0  0
 10 15  4  0  0  0  0
 11 12  4  0  0  0  0
 11 27  1  0  0  0  0
 12 13  4  0  0  0  0
 12 28  1  0  0  0  0
 13 14  4  0  0  0  0
 13 16  1  0  0  0  0
 14 15  4  0  0  0  0
 14 29  1  0  0  0  0
 15 30  1  0  0  0  0
 16 17  1  0  0  0  0
 17 31  1  0  0  0  0
 17 32  1  0  0  0  0
 17 33  1  0  0  0  0
 18 19  1  0  0  0  0
 18 34  1  0  0  0  0
 19 20  1  0  0  0  0
 19 23  1  0  0  0  0
 19 35  1  0  0  0  0
 20 21  1  0  0  0  0
 20 36  1  0  0  0  0
 20 37  1  0  0  0  0
 21 22  1  0  0  0  0
 21 24  1  0  0  0  0
 21 38  1  0  0  0  0
 22 23  1  0  0  0  0
 22 39  1  0  0  0  0
 22 40  1  0  0  0  0
 23 41  1  0  0  0  0
 23 42  1  0  0  0  0
 24 43  1  0  0  0  0
 24 44  1  0  0  0  0
M  END
> <ConfClashScore>
0.000108917 

> <ConfOneFourInteractionScore>
-0.980204 

> <ConfScore>
0.025908 

> <ConfScorePBest>
0.00215379 

> <ConfTolerance>
0.289098 

$$$$
c13.sdf
 OpenBabel04162418043D

 44 47  0  0  0  0  0  0  0  0999 V2000
    4.1840    1.6735   -4.9451 N   0  0  0  1  0  0  0  0  0  0  0  0
    4.7243    1.4555   -3.7581 C   0  0  0  1  0  0  0  0  0  0  0  0
    6.0110    1.2470   -3.5966 N   0  0  0  1  0  0  0  0  0  0  0  0
    6.8323    1.2486   -4.6497 C   0  0  0  1  0  0  0  0  0  0  0  0
    6.2901    1.4781   -5.9321 C   0  0  0  1  0  0  0  0  0  0  0  0
    4.9195    1.6930   -6.0429 C   0  0  0  1  0  0  0  0  0  0  0  0
    8.2217    1.0637   -4.8212 C   0  0  0  1  0  0  0  0  0  0  0  0
    8.5048    1.1698   -6.0885 N   0  0  0  1  0  0  0  0  0  0  0  0
    7.3350    1.4269   -6.8154 N   0  0  0  1  0  0  0  0  0  0  0  0
    7.3921    1.4403   -8.2287 C   0  0  0  1  0  0  0  0  0  0  0  0
    6.4887    0.6962   -8.9637 C   0  0  0  1  0  0  0  0  0  0  0  0
    6.5413    0.7136  -10.3488 C   0  0  0  1  0  0  0  0  0  0  0  0
    7.5004    1.4707  -10.9947 C   0  0  0  1  0  0  0  0  0  0  0  0
    8.4065    2.2170  -10.2572 C   0  0  0  1  0  0  0  0  0  0  0  0
    8.3541    2.1997   -8.8762 C   0  0  0  1  0  0  0  0  0  0  0  0
    7.6521    1.5618  -12.3373 O   0  0  0  1  0  0  0  0  0  0  0  0
    6.8964    0.6472  -13.1465 C   0  0  0  1  0  0  0  0  0  0  0  0
    3.9275    1.4466   -2.6744 N   0  0  0  1  0  0  0  0  0  0  0  0
    4.4053    1.2036   -1.3123 C   0  0  0  1  0  0  0  0  0  0  0  0
    5.0138   -0.1859   -1.2055 C   0  0  0  1  0  0  0  0  0  0  0  0
    6.4321   -0.0404   -0.6301 C   0  0  0  1  0  0  0  0  0  0  0  0
    6.4232    1.3570   -0.0353 C   0  0  0  1  0  0  0  0  0  0  0  0
    5.5357    2.1884   -0.9576 C   0  0  0  1  0  0  0  0  0  0  0  0
    6.6891   -1.0597    0.4129 N   0  0  0  1  0  0  0  0  0  0  0  0
    4.4829    1.8655   -6.9710 H   0  0  0  1  0  0  0  0  0  0  0  0
    8.9061    0.8742   -4.0614 H   0  0  0  1  0  0  0  0  0  0  0  0
    5.7695    0.1233   -8.4777 H   0  0  0  1  0  0  0  0  0  0  0  0
    5.8590    0.1568  -10.9020 H   0  0  0  1  0  0  0  0  0  0  0  0
    9.1256    2.7899  -10.7432 H   0  0  0  1  0  0  0  0  0  0  0  0
    9.0364    2.7565   -8.3229 H   0  0  0  1  0  0  0  0  0  0  0  0
    7.0727   -0.3542  -12.8134 H   0  0  0  1  0  0  0  0  0  0  0  0
    7.1994    0.7414  -14.1684 H   0  0  0  1  0  0  0  0  0  0  0  0
    5.8540    0.8730  -13.0608 H   0  0  0  1  0  0  0  0  0  0  0  0
    2.9705    1.6126   -2.8045 H   0  0  0  1  0  0  0  0  0  0  0  0
    3.5920    1.3074   -0.6247 H   0  0  0  1  0  0  0  0  0  0  0  0
    4.4191   -0.7936   -0.5560 H   0  0  0  1  0  0  0  0  0  0  0  0
    5.0597   -0.6375   -2.1744 H   0  0  0  1  0  0  0  0  0  0  0  0
    7.1693   -0.1245   -1.4010 H   0  0  0  1  0  0  0  0  0  0  0  0
    7.4148    1.7583   -0.0094 H   0  0  0  1  0  0  0  0  0  0  0  0
    6.0193    1.3388    0.9553 H   0  0  0  1  0  0  0  0  0  0  0  0
    6.0689    2.4959   -1.8328 H   0  0  0  1  0  0  0  0  0  0  0  0
    5.1528    3.0500   -0.4516 H   0  0  0  1  0  0  0  0  0  0  0  0
    5.9560   -1.0542    1.0633 H   0  0  0  1  0  0  0  0  0  0  0  0
    7.5318   -0.8547    0.8691 H   0  0  0  1  0  0  0  0  0  0  0  0
  1  2  4  0  0  0  0
  1  6  4  0  0  0  0
  2  3  4  0  0  0  0
  2 18  1  0  0  0  0
  3  4  4  0  0  0  0
  4  5  4  0  0  0  0
  4  7  4  0  0  0  0
  5  6  4  0  0  0  0
  5  9  4  0  0  0  0
  6 25  1  0  0  0  0
  7  8  4  0  0  0  0
  7 26  1  0  0  0  0
  8  9  4  0  0  0  0
  9 10  1  0  0  0  0
 10 11  4  0  0  0  0
 10 15  4  0  0  0  0
 11 12  4  0  0  0  0
 11 27  1  0  0  0  0
 12 13  4  0  0  0  0
 12 28  1  0  0  0  0
 13 14  4  0  0  0  0
 13 16  1  0  0  0  0
 14 15  4  0  0  0  0
 14 29  1  0  0  0  0
 15 30  1  0  0  0  0
 16 17  1  0  0  0  0
 17 31  1  0  0  0  0
 17 32  1  0  0  0  0
 17 33  1  0  0  0  0
 18 19  1  0  0  0  0
 18 34  1  0  0  0  0
 19 20  1  0  0  0  0
 19 23  1  0  0  0  0
 19 35  1  0  0  0  0
 20 21  1  0  0  0  0
 20 36  1  0  0  0  0
 20 37  1  0  0  0  0
 21 22  1  0  0  0  0
 21 24  1  0  0  0  0
 21 38  1  0  0  0  0
 22 23  1  0  0  0  0
 22 39  1  0  0  0  0
 22 40  1  0  0  0  0
 23 41  1  0  0  0  0
 23 42  1  0  0  0  0
 24 43  1  0  0  0  0
 24 44  1  0  0  0  0
M  END
> <ConfClashScore>
0 

> <ConfOneFourInteractionScore>
-0.980204 

> <ConfScore>
0.0260996 

> <ConfScorePBest>
0.00214046 

> <ConfTolerance>
0.301979 

$$$$
c13.sdf
 OpenBabel04162418043D

 44 47  0  0  0  0  0  0  0  0999 V2000
    1.8902    0.4326   -0.8644 N   0  0  0  1  0  0  0  0  0  0  0  0
    2.1611    1.1382   -1.9493 C   0  0  0  1  0  0  0  0  0  0  0  0
    1.2301    1.5173   -2.7946 N   0  0  0  1  0  0  0  0  0  0  0  0
   -0.0480    1.1948   -2.5802 C   0  0  0  1  0  0  0  0  0  0  0  0
   -0.3739    0.4422   -1.4319 C   0  0  0  1  0  0  0  0  0  0  0  0
    0.6540    0.0683   -0.5714 C   0  0  0  1  0  0  0  0  0  0  0  0
   -1.2579    1.4353   -3.2675 C   0  0  0  1  0  0  0  0  0  0  0  0
   -2.2333    0.8827   -2.6037 N   0  0  0  1  0  0  0  0  0  0  0  0
   -1.7299    0.2548   -1.4568 N   0  0  0  1  0  0  0  0  0  0  0  0
   -2.6094   -0.3272   -0.5316 C   0  0  0  1  0  0  0  0  0  0  0  0
   -3.9029   -0.7201   -0.8191 C   0  0  0  1  0  0  0  0  0  0  0  0
   -4.6893   -1.2916    0.1691 C   0  0  0  1  0  0  0  0  0  0  0  0
   -4.1818   -1.4636    1.4431 C   0  0  0  1  0  0  0  0  0  0  0  0
   -2.8844   -1.0695    1.7313 C   0  0  0  1  0  0  0  0  0  0  0  0
   -2.1002   -0.4996    0.7461 C   0  0  0  1  0  0  0  0  0  0  0  0
   -4.8546   -2.0033    2.4871 O   0  0  0  1  0  0  0  0  0  0  0  0
   -6.1586   -2.5422    2.2194 C   0  0  0  1  0  0  0  0  0  0  0  0
    3.4993    1.4432   -2.1206 N   0  0  0  1  0  0  0  0  0  0  0  0
    4.4209    1.0864   -1.0510 C   0  0  0  1  0  0  0  0  0  0  0  0
    5.2667   -0.1736   -1.4388 C   0  0  0  1  0  0  0  0  0  0  0  0
    6.5390   -0.0368   -0.5361 C   0  0  0  1  0  0  0  0  0  0  0  0
    6.7162    1.4827   -0.2586 C   0  0  0  1  0  0  0  0  0  0  0  0
    5.4813    2.1860   -0.8490 C   0  0  0  1  0  0  0  0  0  0  0  0
    6.3466   -0.7707    0.7349 N   0  0  0  1  0  0  0  0  0  0  0  0
    0.4535   -0.4867    0.2850 H   0  0  0  1  0  0  0  0  0  0  0  0
   -1.3545    1.9659   -4.1567 H   0  0  0  1  0  0  0  0  0  0  0  0
   -4.2862   -0.5869   -1.7767 H   0  0  0  1  0  0  0  0  0  0  0  0
   -5.6613   -1.5909   -0.0483 H   0  0  0  1  0  0  0  0  0  0  0  0
   -2.5011   -1.2026    2.6889 H   0  0  0  1  0  0  0  0  0  0  0  0
   -1.1282   -0.2003    0.9634 H   0  0  0  1  0  0  0  0  0  0  0  0
   -6.6098   -2.0018    1.4136 H   0  0  0  1  0  0  0  0  0  0  0  0
   -6.7680   -2.4520    3.0943 H   0  0  0  1  0  0  0  0  0  0  0  0
   -6.0696   -3.5741    1.9509 H   0  0  0  1  0  0  0  0  0  0  0  0
    3.8170    1.8851   -2.9355 H   0  0  0  1  0  0  0  0  0  0  0  0
    3.8718    0.9149   -0.1487 H   0  0  0  1  0  0  0  0  0  0  0  0
    5.5280   -0.1566   -2.4762 H   0  0  0  1  0  0  0  0  0  0  0  0
    4.7350   -1.0758   -1.2191 H   0  0  0  1  0  0  0  0  0  0  0  0
    7.3973   -0.4228   -1.0451 H   0  0  0  1  0  0  0  0  0  0  0  0
    7.6064    1.8425   -0.7308 H   0  0  0  1  0  0  0  0  0  0  0  0
    6.7737    1.6609    0.7949 H   0  0  0  1  0  0  0  0  0  0  0  0
    5.1193    2.9313   -0.1720 H   0  0  0  1  0  0  0  0  0  0  0  0
    5.7261    2.6425   -1.7852 H   0  0  0  1  0  0  0  0  0  0  0  0
    6.2358   -1.7262    0.5474 H   0  0  0  1  0  0  0  0  0  0  0  0
    5.5470   -0.4323    1.1894 H   0  0  0  1  0  0  0  0  0  0  0  0
  1  2  4  0  0  0  0
  1  6  4  0  0  0  0
  2  3  4  0  0  0  0
  2 18  1  0  0  0  0
  3  4  4  0  0  0  0
  4  5  4  0  0  0  0
  4  7  4  0  0  0  0
  5  6  4  0  0  0  0
  5  9  4  0  0  0  0
  6 25  1  0  0  0  0
  7  8  4  0  0  0  0
  7 26  1  0  0  0  0
  8  9  4  0  0  0  0
  9 10  1  0  0  0  0
 10 11  4  0  0  0  0
 10 15  4  0  0  0  0
 11 12  4  0  0  0  0
 11 27  1  0  0  0  0
 12 13  4  0  0  0  0
 12 28  1  0  0  0  0
 13 14  4  0  0  0  0
 13 16  1  0  0  0  0
 14 15  4  0  0  0  0
 14 29  1  0  0  0  0
 15 30  1  0  0  0  0
 16 17  1  0  0  0  0
 17 31  1  0  0  0  0
 17 32  1  0  0  0  0
 17 33  1  0  0  0  0
 18 19  1  0  0  0  0
 18 34  1  0  0  0  0
 19 20  1  0  0  0  0
 19 23  1  0  0  0  0
 19 35  1  0  0  0  0
 20 21  1  0  0  0  0
 20 36  1  0  0  0  0
 20 37  1  0  0  0  0
 21 22  1  0  0  0  0
 21 24  1  0  0  0  0
 21 38  1  0  0  0  0
 22 23  1  0  0  0  0
 22 39  1  0  0  0  0
 22 40  1  0  0  0  0
 23 41  1  0  0  0  0
 23 42  1  0  0  0  0
 24 43  1  0  0  0  0
 24 44  1  0  0  0  0
M  END
> <ConfClashScore>
0 

> <ConfOneFourInteractionScore>
-0.984337 

> <ConfScore>
0.0261221 

> <ConfScorePBest>
0.00212713 

> <ConfTolerance>
0.508528 

$$$$
c13.sdf
 OpenBabel04162418043D

 44 47  0  0  0  0  0  0  0  0999 V2000
    1.5150    1.6417   -1.6260 N   0  0  0  1  0  0  0  0  0  0  0  0
    2.3702    1.6286   -2.6344 C   0  0  0  1  0  0  0  0  0  0  0  0
    1.9910    1.7811   -3.8826 N   0  0  0  1  0  0  0  0  0  0  0  0
    0.7010    1.9579   -4.1792 C   0  0  0  1  0  0  0  0  0  0  0  0
   -0.2400    1.9774   -3.1279 C   0  0  0  1  0  0  0  0  0  0  0  0
    0.2194    1.8108   -1.8247 C   0  0  0  1  0  0  0  0  0  0  0  0
   -0.0220    2.1463   -5.3775 C   0  0  0  1  0  0  0  0  0  0  0  0
   -1.2864    2.2696   -5.0885 N   0  0  0  1  0  0  0  0  0  0  0  0
   -1.4675    2.1710   -3.7027 N   0  0  0  1  0  0  0  0  0  0  0  0
   -2.7756    2.2787   -3.1756 C   0  0  0  1  0  0  0  0  0  0  0  0
   -3.8117    1.5642   -3.7466 C   0  0  0  1  0  0  0  0  0  0  0  0
   -5.0926    1.6657   -3.2267 C   0  0  0  1  0  0  0  0  0  0  0  0
   -5.3348    2.4855   -2.1406 C   0  0  0  1  0  0  0  0  0  0  0  0
   -4.2955    3.2021   -1.5679 C   0  0  0  1  0  0  0  0  0  0  0  0
   -3.0183    3.1010   -2.0863 C   0  0  0  1  0  0  0  0  0  0  0  0
   -6.6233    2.5080   -1.7246 O   0  0  0  1  0  0  0  0  0  0  0  0
   -6.9805    3.4990   -0.7483 C   0  0  0  1  0  0  0  0  0  0  0  0
    3.6845    1.4578   -2.4413 N   0  0  0  1  0  0  0  0  0  0  0  0
    4.3997    1.1817   -1.1944 C   0  0  0  1  0  0  0  0  0  0  0  0
    5.1055   -0.1724   -1.2375 C   0  0  0  1  0  0  0  0  0  0  0  0
    6.4651    0.1017   -0.5636 C   0  0  0  1  0  0  0  0  0  0  0  0
    6.5052    1.5034    0.0749 C   0  0  0  1  0  0  0  0  0  0  0  0
    5.6129    2.1281   -1.0097 C   0  0  0  1  0  0  0  0  0  0  0  0
    6.6938   -0.9148    0.4910 N   0  0  0  1  0  0  0  0  0  0  0  0
   -0.4435    1.8192   -1.0234 H   0  0  0  1  0  0  0  0  0  0  0  0
    0.3872    2.1809   -6.3330 H   0  0  0  1  0  0  0  0  0  0  0  0
   -3.6303    0.9504   -4.5664 H   0  0  0  1  0  0  0  0  0  0  0  0
   -5.8715    1.1249   -3.6538 H   0  0  0  1  0  0  0  0  0  0  0  0
   -4.4769    3.8158   -0.7482 H   0  0  0  1  0  0  0  0  0  0  0  0
   -2.2393    3.6417   -1.6591 H   0  0  0  1  0  0  0  0  0  0  0  0
   -6.3925    3.3587    0.1346 H   0  0  0  1  0  0  0  0  0  0  0  0
   -8.0179    3.4018   -0.5049 H   0  0  0  1  0  0  0  0  0  0  0  0
   -6.7971    4.4747   -1.1474 H   0  0  0  1  0  0  0  0  0  0  0  0
    4.2431    1.5270   -3.2436 H   0  0  0  1  0  0  0  0  0  0  0  0
    3.7197    1.2464   -0.3708 H   0  0  0  1  0  0  0  0  0  0  0  0
    5.2396   -0.5005   -2.2471 H   0  0  0  1  0  0  0  0  0  0  0  0
    4.5516   -0.9085   -0.6933 H   0  0  0  1  0  0  0  0  0  0  0  0
    7.2384    0.0328   -1.2999 H   0  0  0  1  0  0  0  0  0  0  0  0
    6.0693    1.5358    1.0515 H   0  0  0  1  0  0  0  0  0  0  0  0
    7.4881    1.9248    0.1083 H   0  0  0  1  0  0  0  0  0  0  0  0
    5.2801    3.0965   -0.6993 H   0  0  0  1  0  0  0  0  0  0  0  0
    6.1554    2.2142   -1.9279 H   0  0  0  1  0  0  0  0  0  0  0  0
    6.4882   -1.8053    0.1370 H   0  0  0  1  0  0  0  0  0  0  0  0
    6.1132   -0.7262    1.2576 H   0  0  0  1  0  0  0  0  0  0  0  0
  1  2  4  0  0  0  0
  1  6  4  0  0  0  0
  2  3  4  0  0  0  0
  2 18  1  0  0  0  0
  3  4  4  0  0  0  0
  4  5  4  0  0  0  0
  4  7  4  0  0  0  0
  5  6  4  0  0  0  0
  5  9  4  0  0  0  0
  6 25  1  0  0  0  0
  7  8  4  0  0  0  0
  7 26  1  0  0  0  0
  8  9  4  0  0  0  0
  9 10  1  0  0  0  0
 10 11  4  0  0  0  0
 10 15  4  0  0  0  0
 11 12  4  0  0  0  0
 11 27  1  0  0  0  0
 12 13  4  0  0  0  0
 12 28  1  0  0  0  0
 13 14  4  0  0  0  0
 13 16  1  0  0  0  0
 14 15  4  0  0  0  0
 14 29  1  0  0  0  0
 15 30  1  0  0  0  0
 16 17  1  0  0  0  0
 17 31  1  0  0  0  0
 17 32  1  0  0  0  0
 17 33  1  0  0  0  0
 18 19  1  0  0  0  0
 18 34  1  0  0  0  0
 19 20  1  0  0  0  0
 19 23  1  0  0  0  0
 19 35  1  0  0  0  0
 20 21  1  0  0  0  0
 20 36  1  0  0  0  0
 20 37  1  0  0  0  0
 21 22  1  0  0  0  0
 21 24  1  0  0  0  0
 21 38  1  0  0  0  0
 22 23  1  0  0  0  0
 22 39  1  0  0  0  0
 22 40  1  0  0  0  0
 23 41  1  0  0  0  0
 23 42  1  0  0  0  0
 24 43  1  0  0  0  0
 24 44  1  0  0  0  0
M  END
> <ConfClashScore>
0 

> <ConfOneFourInteractionScore>
-0.984337 

> <ConfScore>
0.0268583 

> <ConfScorePBest>
0.0021138 

> <ConfTolerance>
0.475136 

$$$$
c13.sdf
 OpenBabel04162418043D

 44 47  0  0  0  0  0  0  0  0999 V2000
    2.7702    2.9136   -3.9298 N   0  0  0  1  0  0  0  0  0  0  0  0
    2.9977    2.4201   -2.7244 C   0  0  0  1  0  0  0  0  0  0  0  0
    2.1932    2.6387   -1.7095 N   0  0  0  1  0  0  0  0  0  0  0  0
    1.0955    3.3830   -1.8667 C   0  0  0  1  0  0  0  0  0  0  0  0
    0.8210    3.9260   -3.1399 C   0  0  0  1  0  0  0  0  0  0  0  0
    1.7090    3.6611   -4.1783 C   0  0  0  1  0  0  0  0  0  0  0  0
    0.0520    3.8001   -1.0116 C   0  0  0  1  0  0  0  0  0  0  0  0
   -0.7832    4.5295   -1.6955 N   0  0  0  1  0  0  0  0  0  0  0  0
   -0.3448    4.6341   -3.0220 N   0  0  0  1  0  0  0  0  0  0  0  0
   -1.0876    5.3836   -3.9784 C   0  0  0  1  0  0  0  0  0  0  0  0
   -2.0637    6.2672   -3.5582 C   0  0  0  1  0  0  0  0  0  0  0  0
   -2.8455    6.9309   -4.4908 C   0  0  0  1  0  0  0  0  0  0  0  0
   -2.6526    6.7050   -5.8407 C   0  0  0  1  0  0  0  0  0  0  0  0
   -1.6735    5.8187   -6.2620 C   0  0  0  1  0  0  0  0  0  0  0  0
   -0.8939    5.1569   -5.3322 C   0  0  0  1  0  0  0  0  0  0  0  0
   -3.3557    7.2887   -6.8401 O   0  0  0  1  0  0  0  0  0  0  0  0
   -4.3153    8.2907   -6.4690 C   0  0  0  1  0  0  0  0  0  0  0  0
    4.1095    1.6549   -2.5259 N   0  0  0  1  0  0  0  0  0  0  0  0
    4.4392    1.1120   -1.2195 C   0  0  0  1  0  0  0  0  0  0  0  0
    5.2380   -0.2301   -1.3624 C   0  0  0  1  0  0  0  0  0  0  0  0
    6.5378   -0.0752   -0.5513 C   0  0  0  1  0  0  0  0  0  0  0  0
    6.8029    1.4665   -0.6135 C   0  0  0  1  0  0  0  0  0  0  0  0
    5.3889    2.0432   -0.4727 C   0  0  0  1  0  0  0  0  0  0  0  0
    6.3532   -0.5248    0.8348 N   0  0  0  1  0  0  0  0  0  0  0  0
    1.5408    4.0436   -5.1307 H   0  0  0  1  0  0  0  0  0  0  0  0
   -0.0354    3.5640   -0.0026 H   0  0  0  1  0  0  0  0  0  0  0  0
   -2.2116    6.4342   -2.5424 H   0  0  0  1  0  0  0  0  0  0  0  0
   -3.5774    7.5988   -4.1748 H   0  0  0  1  0  0  0  0  0  0  0  0
   -1.5256    5.6517   -7.2777 H   0  0  0  1  0  0  0  0  0  0  0  0
   -0.1621    4.4890   -5.6481 H   0  0  0  1  0  0  0  0  0  0  0  0
   -4.1657    8.5670   -5.4461 H   0  0  0  1  0  0  0  0  0  0  0  0
   -5.3039    7.9001   -6.5917 H   0  0  0  1  0  0  0  0  0  0  0  0
   -4.1913    9.1513   -7.0925 H   0  0  0  1  0  0  0  0  0  0  0  0
    4.7011    1.4666   -3.2842 H   0  0  0  1  0  0  0  0  0  0  0  0
    3.5406    0.9595   -0.6590 H   0  0  0  1  0  0  0  0  0  0  0  0
    5.4677   -0.4120   -2.3915 H   0  0  0  1  0  0  0  0  0  0  0  0
    4.6599   -1.0435   -0.9763 H   0  0  0  1  0  0  0  0  0  0  0  0
    7.3399   -0.6227   -1.0005 H   0  0  0  1  0  0  0  0  0  0  0  0
    7.4334    1.7845    0.1903 H   0  0  0  1  0  0  0  0  0  0  0  0
    7.2451    1.7468   -1.5467 H   0  0  0  1  0  0  0  0  0  0  0  0
    5.3499    3.0237   -0.8992 H   0  0  0  1  0  0  0  0  0  0  0  0
    5.1154    2.0920    0.5606 H   0  0  0  1  0  0  0  0  0  0  0  0
    6.2219   -1.4958    0.8490 H   0  0  0  1  0  0  0  0  0  0  0  0
    5.5672   -0.0835    1.2192 H   0  0  0  1  0  0  0  0  0  0  0  0
  1  2  4  0  0  0  0
  1  6  4  0  0  0  0
  2  3  4  0  0  0  0
  2 18  1  0  0  0  0
  3  4  4  0  0  0  0
  4  5  4  0  0  0  0
  4  7  4  0  0  0  0
  5  6  4  0  0  0  0
  5  9  4  0  0  0  0
  6 25  1  0  0  0  0
  7  8  4  0  0  0  0
  7 26  1  0  0  0  0
  8  9  4  0  0  0  0
  9 10  1  0  0  0  0
 10 11  4  0  0  0  0
 10 15  4  0  0  0  0
 11 12  4  0  0  0  0
 11 27  1  0  0  0  0
 12 13  4  0  0  0  0
 12 28  1  0  0  0  0
 13 14  4  0  0  0  0
 13 16  1  0  0  0  0
 14 15  4  0  0  0  0
 14 29  1  0  0  0  0
 15 30  1  0  0  0  0
 16 17  1  0  0  0  0
 17 31  1  0  0  0  0
 17 32  1  0  0  0  0
 17 33  1  0  0  0  0
 18 19  1  0  0  0  0
 18 34  1  0  0  0  0
 19 20  1  0  0  0  0
 19 23  1  0  0  0  0
 19 35  1  0  0  0  0
 20 21  1  0  0  0  0
 20 36  1  0  0  0  0
 20 37  1  0  0  0  0
 21 22  1  0  0  0  0
 21 24  1  0  0  0  0
 21 38  1  0  0  0  0
 22 23  1  0  0  0  0
 22 39  1  0  0  0  0
 22 40  1  0  0  0  0
 23 41  1  0  0  0  0
 23 42  1  0  0  0  0
 24 43  1  0  0  0  0
 24 44  1  0  0  0  0
M  END
> <ConfClashScore>
0 

> <ConfOneFourInteractionScore>
-0.984337 

> <ConfScore>
0.0278907 

> <ConfScorePBest>
0.00210048 

> <ConfTolerance>
0.488685 

$$$$
c13.sdf
 OpenBabel04162418043D

 44 47  0  0  0  0  0  0  0  0999 V2000
    5.0122    1.2418   -5.0426 N   0  0  0  1  0  0  0  0  0  0  0  0
    5.2062    1.1682   -3.7368 C   0  0  0  1  0  0  0  0  0  0  0  0
    6.3801    0.8999   -3.2123 N   0  0  0  1  0  0  0  0  0  0  0  0
    7.4383    0.6881   -3.9991 C   0  0  0  1  0  0  0  0  0  0  0  0
    7.2680    0.7588   -5.3981 C   0  0  0  1  0  0  0  0  0  0  0  0
    6.0012    1.0468   -5.8974 C   0  0  0  1  0  0  0  0  0  0  0  0
    8.7983    0.3862   -3.7683 C   0  0  0  1  0  0  0  0  0  0  0  0
    9.4046    0.2817   -4.9167 N   0  0  0  1  0  0  0  0  0  0  0  0
    8.4923    0.5054   -5.9562 N   0  0  0  1  0  0  0  0  0  0  0  0
    8.9484    0.4380   -7.2882 C   0  0  0  1  0  0  0  0  0  0  0  0
   10.2534    0.0344   -7.4987 C   0  0  0  1  0  0  0  0  0  0  0  0
   10.7516   -0.0546   -8.7891 C   0  0  0  1  0  0  0  0  0  0  0  0
    9.9452    0.2653   -9.8651 C   0  0  0  1  0  0  0  0  0  0  0  0
    8.6364    0.6700   -9.6538 C   0  0  0  1  0  0  0  0  0  0  0  0
    8.1394    0.7588   -8.3672 C   0  0  0  1  0  0  0  0  0  0  0  0
   10.5770    0.1331  -11.0476 O   0  0  0  1  0  0  0  0  0  0  0  0
    9.8366    0.6127  -12.1941 C   0  0  0  1  0  0  0  0  0  0  0  0
    4.1769    1.3708   -2.8358 N   0  0  0  1  0  0  0  0  0  0  0  0
    4.4193    1.2104   -1.4083 C   0  0  0  1  0  0  0  0  0  0  0  0
    4.9900   -0.1846   -1.1197 C   0  0  0  1  0  0  0  0  0  0  0  0
    6.3702    0.0588   -0.5029 C   0  0  0  1  0  0  0  0  0  0  0  0
    6.2737    1.4572    0.1167 C   0  0  0  1  0  0  0  0  0  0  0  0
    5.4765    2.2130   -0.9336 C   0  0  0  1  0  0  0  0  0  0  0  0
    6.6674   -0.9631    0.5449 N   0  0  0  1  0  0  0  0  0  0  0  0
    5.8362    1.1073   -6.9224 H   0  0  0  1  0  0  0  0  0  0  0  0
    9.2427    0.2670   -2.8356 H   0  0  0  1  0  0  0  0  0  0  0  0
   10.8615   -0.2025   -6.6889 H   0  0  0  1  0  0  0  0  0  0  0  0
   11.7324   -0.3622   -8.9477 H   0  0  0  1  0  0  0  0  0  0  0  0
    8.0283    0.9069  -10.4636 H   0  0  0  1  0  0  0  0  0  0  0  0
    7.1587    1.0664   -8.2085 H   0  0  0  1  0  0  0  0  0  0  0  0
    9.5938    1.6456  -12.0559 H   0  0  0  1  0  0  0  0  0  0  0  0
    8.9353    0.0456  -12.2990 H   0  0  0  1  0  0  0  0  0  0  0  0
   10.4331    0.5016  -13.0754 H   0  0  0  1  0  0  0  0  0  0  0  0
    3.2858    1.6220   -3.1571 H   0  0  0  1  0  0  0  0  0  0  0  0
    3.5046    1.3548   -0.8722 H   0  0  0  1  0  0  0  0  0  0  0  0
    5.0790   -0.7470   -2.0255 H   0  0  0  1  0  0  0  0  0  0  0  0
    4.3610   -0.7112   -0.4327 H   0  0  0  1  0  0  0  0  0  0  0  0
    7.1306    0.0305   -1.2552 H   0  0  0  1  0  0  0  0  0  0  0  0
    7.2429    1.8891    0.2545 H   0  0  0  1  0  0  0  0  0  0  0  0
    5.7572    1.4325    1.0535 H   0  0  0  1  0  0  0  0  0  0  0  0
    6.1071    2.5102   -1.7454 H   0  0  0  1  0  0  0  0  0  0  0  0
    5.0128    3.0775   -0.5065 H   0  0  0  1  0  0  0  0  0  0  0  0
    7.5238   -0.7535    0.9727 H   0  0  0  1  0  0  0  0  0  0  0  0
    6.7177   -1.8500    0.1310 H   0  0  0  1  0  0  0  0  0  0  0  0
  1  2  4  0  0  0  0
  1  6  4  0  0  0  0
  2  3  4  0  0  0  0
  2 18  1  0  0  0  0
  3  4  4  0  0  0  0
  4  5  4  0  0  0  0
  4  7  4  0  0  0  0
  5  6  4  0  0  0  0
  5  9  4  0  0  0  0
  6 25  1  0  0  0  0
  7  8  4  0  0  0  0
  7 26  1  0  0  0  0
  8  9  4  0  0  0  0
  9 10  1  0  0  0  0
 10 11  4  0  0  0  0
 10 15  4  0  0  0  0
 11 12  4  0  0  0  0
 11 27  1  0  0  0  0
 12 13  4  0  0  0  0
 12 28  1  0  0  0  0
 13 14  4  0  0  0  0
 13 16  1  0  0  0  0
 14 15  4  0  0  0  0
 14 29  1  0  0  0  0
 15 30  1  0  0  0  0
 16 17  1  0  0  0  0
 17 31  1  0  0  0  0
 17 32  1  0  0  0  0
 17 33  1  0  0  0  0
 18 19  1  0  0  0  0
 18 34  1  0  0  0  0
 19 20  1  0  0  0  0
 19 23  1  0  0  0  0
 19 35  1  0  0  0  0
 20 21  1  0  0  0  0
 20 36  1  0  0  0  0
 20 37  1  0  0  0  0
 21 22  1  0  0  0  0
 21 24  1  0  0  0  0
 21 38  1  0  0  0  0
 22 23  1  0  0  0  0
 22 39  1  0  0  0  0
 22 40  1  0  0  0  0
 23 41  1  0  0  0  0
 23 42  1  0  0  0  0
 24 43  1  0  0  0  0
 24 44  1  0  0  0  0
M  END
> <ConfClashScore>
0 

> <ConfOneFourInteractionScore>
-0.980204 

> <ConfScore>
0.0310637 

> <ConfScorePBest>
0.00208715 

> <ConfTolerance>
0.367724 

$$$$
c13.sdf
 OpenBabel04162418043D

 44 47  0  0  0  0  0  0  0  0999 V2000
    3.4459    0.8414   -4.9552 N   0  0  0  1  0  0  0  0  0  0  0  0
    3.6018    0.5417   -3.6768 C   0  0  0  1  0  0  0  0  0  0  0  0
    3.1235   -0.5612   -3.1478 N   0  0  0  1  0  0  0  0  0  0  0  0
    2.4495   -1.4340   -3.9011 C   0  0  0  1  0  0  0  0  0  0  0  0
    2.2640   -1.1466   -5.2702 C   0  0  0  1  0  0  0  0  0  0  0  0
    2.7930    0.0372   -5.7760 C   0  0  0  1  0  0  0  0  0  0  0  0
    1.8227   -2.6754   -3.6562 C   0  0  0  1  0  0  0  0  0  0  0  0
    1.3022   -3.1083   -4.7694 N   0  0  0  1  0  0  0  0  0  0  0  0
    1.5521   -2.1903   -5.7978 N   0  0  0  1  0  0  0  0  0  0  0  0
    1.0843   -2.4326   -7.1209 C   0  0  0  1  0  0  0  0  0  0  0  0
    1.4703   -1.5991   -8.1536 C   0  0  0  1  0  0  0  0  0  0  0  0
    1.0192   -1.8381   -9.4424 C   0  0  0  1  0  0  0  0  0  0  0  0
    0.1793   -2.9066   -9.6938 C   0  0  0  1  0  0  0  0  0  0  0  0
   -0.2077   -3.7424   -8.6578 C   0  0  0  1  0  0  0  0  0  0  0  0
    0.2420   -3.5042   -7.3727 C   0  0  0  1  0  0  0  0  0  0  0  0
   -0.2655   -3.1369  -10.9519 O   0  0  0  1  0  0  0  0  0  0  0  0
    0.1452   -2.2136  -11.9724 C   0  0  0  1  0  0  0  0  0  0  0  0
    4.2754    1.3975   -2.8873 N   0  0  0  1  0  0  0  0  0  0  0  0
    4.4517    1.2124   -1.4575 C   0  0  0  1  0  0  0  0  0  0  0  0
    5.0245   -0.1816   -1.1687 C   0  0  0  1  0  0  0  0  0  0  0  0
    6.3713    0.0646   -0.4829 C   0  0  0  1  0  0  0  0  0  0  0  0
    6.2292    1.4495    0.1580 C   0  0  0  1  0  0  0  0  0  0  0  0
    5.4735    2.2170   -0.9143 C   0  0  0  1  0  0  0  0  0  0  0  0
    6.6311   -0.9755    0.5594 N   0  0  0  1  0  0  0  0  0  0  0  0
    2.6769    0.2839   -6.7796 H   0  0  0  1  0  0  0  0  0  0  0  0
    1.7831   -3.1636   -2.7388 H   0  0  0  1  0  0  0  0  0  0  0  0
    2.0991   -0.7928   -7.9639 H   0  0  0  1  0  0  0  0  0  0  0  0
    1.3129   -1.2134  -10.2202 H   0  0  0  1  0  0  0  0  0  0  0  0
   -0.8365   -4.5488   -8.8475 H   0  0  0  1  0  0  0  0  0  0  0  0
   -0.0516   -4.1290   -6.5949 H   0  0  0  1  0  0  0  0  0  0  0  0
   -0.5912   -2.1881  -12.7483 H   0  0  0  1  0  0  0  0  0  0  0  0
    1.0827   -2.5280  -12.3811 H   0  0  0  1  0  0  0  0  0  0  0  0
    0.2499   -1.2369  -11.5482 H   0  0  0  1  0  0  0  0  0  0  0  0
    4.6705    2.1930   -3.3014 H   0  0  0  1  0  0  0  0  0  0  0  0
    3.5111    1.3363   -0.9626 H   0  0  0  1  0  0  0  0  0  0  0  0
    5.1627   -0.7253   -2.0799 H   0  0  0  1  0  0  0  0  0  0  0  0
    4.3701   -0.7284   -0.5224 H   0  0  0  1  0  0  0  0  0  0  0  0
    7.1665    0.0593   -1.1988 H   0  0  0  1  0  0  0  0  0  0  0  0
    5.6695    1.4009    1.0686 H   0  0  0  1  0  0  0  0  0  0  0  0
    7.1856    1.8892    0.3496 H   0  0  0  1  0  0  0  0  0  0  0  0
    6.1380    2.5368   -1.6895 H   0  0  0  1  0  0  0  0  0  0  0  0
    4.9800    3.0679   -0.4933 H   0  0  0  1  0  0  0  0  0  0  0  0
    7.4690   -0.7703    1.0245 H   0  0  0  1  0  0  0  0  0  0  0  0
    6.7015   -1.8549    0.1326 H   0  0  0  1  0  0  0  0  0  0  0  0
  1  2  4  0  0  0  0
  1  6  4  0  0  0  0
  2  3  4  0  0  0  0
  2 18  1  0  0  0  0
  3  4  4  0  0  0  0
  4  5  4  0  0  0  0
  4  7  4  0  0  0  0
  5  6  4  0  0  0  0
  5  9  4  0  0  0  0
  6 25  1  0  0  0  0
  7  8  4  0  0  0  0
  7 26  1  0  0  0  0
  8  9  4  0  0  0  0
  9 10  1  0  0  0  0
 10 11  4  0  0  0  0
 10 15  4  0  0  0  0
 11 12  4  0  0  0  0
 11 27  1  0  0  0  0
 12 13  4  0  0  0  0
 12 28  1  0  0  0  0
 13 14  4  0  0  0  0
 13 16  1  0  0  0  0
 14 15  4  0  0  0  0
 14 29  1  0  0  0  0
 15 30  1  0  0  0  0
 16 17  1  0  0  0  0
 17 31  1  0  0  0  0
 17 32  1  0  0  0  0
 17 33  1  0  0  0  0
 18 19  1  0  0  0  0
 18 34  1  0  0  0  0
 19 20  1  0  0  0  0
 19 23  1  0  0  0  0
 19 35  1  0  0  0  0
 20 21  1  0  0  0  0
 20 36  1  0  0  0  0
 20 37  1  0  0  0  0
 21 22  1  0  0  0  0
 21 24  1  0  0  0  0
 21 38  1  0  0  0  0
 22 23  1  0  0  0  0
 22 39  1  0  0  0  0
 22 40  1  0  0  0  0
 23 41  1  0  0  0  0
 23 42  1  0  0  0  0
 24 43  1  0  0  0  0
 24 44  1  0  0  0  0
M  END
> <ConfClashScore>
0 

> <ConfOneFourInteractionScore>
-0.985399 

> <ConfScore>
0.0311794 

> <ConfScorePBest>
0.00207382 

> <ConfTolerance>
0.35438 

$$$$
c13.sdf
 OpenBabel04162418043D

 44 47  0  0  0  0  0  0  0  0999 V2000
    1.9380   -0.0166   -1.1878 N   0  0  0  1  0  0  0  0  0  0  0  0
    2.2071    0.9359   -2.0645 C   0  0  0  1  0  0  0  0  0  0  0  0
    1.3062    1.4006   -2.8996 N   0  0  0  1  0  0  0  0  0  0  0  0
    0.0622    0.9147   -2.8894 C   0  0  0  1  0  0  0  0  0  0  0  0
   -0.2607   -0.1029   -1.9667 C   0  0  0  1  0  0  0  0  0  0  0  0
    0.7344   -0.5565   -1.1058 C   0  0  0  1  0  0  0  0  0  0  0  0
   -1.1107    1.1824   -3.6287 C   0  0  0  1  0  0  0  0  0  0  0  0
   -2.0626    0.4030   -3.2001 N   0  0  0  1  0  0  0  0  0  0  0  0
   -1.5791   -0.4121   -2.1682 N   0  0  0  1  0  0  0  0  0  0  0  0
   -2.4163   -1.3440   -1.5371 C   0  0  0  1  0  0  0  0  0  0  0  0
   -1.7686   -2.3487   -0.8433 C   0  0  0  1  0  0  0  0  0  0  0  0
   -2.5044   -3.3178   -0.1793 C   0  0  0  1  0  0  0  0  0  0  0  0
   -3.8856   -3.2825   -0.2154 C   0  0  0  1  0  0  0  0  0  0  0  0
   -4.5351   -2.2748   -0.9113 C   0  0  0  1  0  0  0  0  0  0  0  0
   -3.8016   -1.3085   -1.5734 C   0  0  0  1  0  0  0  0  0  0  0  0
   -4.6621   -4.2010    0.4070 O   0  0  0  1  0  0  0  0  0  0  0  0
   -3.9940   -5.2046    1.1874 C   0  0  0  1  0  0  0  0  0  0  0  0
    3.4848    1.4638   -2.1047 N   0  0  0  1  0  0  0  0  0  0  0  0
    4.4233    1.0728   -1.0430 C   0  0  0  1  0  0  0  0  0  0  0  0
    5.2628   -0.1781   -1.4716 C   0  0  0  1  0  0  0  0  0  0  0  0
    6.5430   -0.0683   -0.5765 C   0  0  0  1  0  0  0  0  0  0  0  0
    6.7262    1.4429   -0.2599 C   0  0  0  1  0  0  0  0  0  0  0  0
    5.4880    2.1643   -0.8207 C   0  0  0  1  0  0  0  0  0  0  0  0
    6.3604   -0.8321    0.6705 N   0  0  0  1  0  0  0  0  0  0  0  0
    0.5349   -1.3051   -0.4121 H   0  0  0  1  0  0  0  0  0  0  0  0
   -1.2000    1.8856   -4.3897 H   0  0  0  1  0  0  0  0  0  0  0  0
   -0.7293   -2.3775   -0.8194 H   0  0  0  1  0  0  0  0  0  0  0  0
   -2.0171   -4.0715    0.3461 H   0  0  0  1  0  0  0  0  0  0  0  0
   -5.5744   -2.2459   -0.9352 H   0  0  0  1  0  0  0  0  0  0  0  0
   -4.2888   -0.5548   -2.0989 H   0  0  0  1  0  0  0  0  0  0  0  0
   -3.2857   -5.7211    0.5739 H   0  0  0  1  0  0  0  0  0  0  0  0
   -4.7138   -5.9008    1.5641 H   0  0  0  1  0  0  0  0  0  0  0  0
   -3.4848   -4.7395    2.0054 H   0  0  0  1  0  0  0  0  0  0  0  0
    3.7558    2.0786   -2.8181 H   0  0  0  1  0  0  0  0  0  0  0  0
    3.8814    0.8785   -0.1411 H   0  0  0  1  0  0  0  0  0  0  0  0
    5.5154   -0.1339   -2.5104 H   0  0  0  1  0  0  0  0  0  0  0  0
    4.7309   -1.0847   -1.2717 H   0  0  0  1  0  0  0  0  0  0  0  0
    7.3961   -0.4424   -1.1029 H   0  0  0  1  0  0  0  0  0  0  0  0
    7.6132    1.8132   -0.7298 H   0  0  0  1  0  0  0  0  0  0  0  0
    6.7929    1.5927    0.7975 H   0  0  0  1  0  0  0  0  0  0  0  0
    5.1335    2.8920   -0.1209 H   0  0  0  1  0  0  0  0  0  0  0  0
    5.7259    2.6452   -1.7464 H   0  0  0  1  0  0  0  0  0  0  0  0
    5.7522   -1.5832    0.5081 H   0  0  0  1  0  0  0  0  0  0  0  0
    5.9803   -0.2473    1.3589 H   0  0  0  1  0  0  0  0  0  0  0  0
  1  2  4  0  0  0  0
  1  6  4  0  0  0  0
  2  3  4  0  0  0  0
  2 18  1  0  0  0  0
  3  4  4  0  0  0  0
  4  5  4  0  0  0  0
  4  7  4  0  0  0  0
  5  6  4  0  0  0  0
  5  9  4  0  0  0  0
  6 25  1  0  0  0  0
  7  8  4  0  0  0  0
  7 26  1  0  0  0  0
  8  9  4  0  0  0  0
  9 10  1  0  0  0  0
 10 11  4  0  0  0  0
 10 15  4  0  0  0  0
 11 12  4  0  0  0  0
 11 27  1  0  0  0  0
 12 13  4  0  0  0  0
 12 28  1  0  0  0  0
 13 14  4  0  0  0  0
 13 16  1  0  0  0  0
 14 15  4  0  0  0  0
 14 29  1  0  0  0  0
 15 30  1  0  0  0  0
 16 17  1  0  0  0  0
 17 31  1  0  0  0  0
 17 32  1  0  0  0  0
 17 33  1  0  0  0  0
 18 19  1  0  0  0  0
 18 34  1  0  0  0  0
 19 20  1  0  0  0  0
 19 23  1  0  0  0  0
 19 35  1  0  0  0  0
 20 21  1  0  0  0  0
 20 36  1  0  0  0  0
 20 37  1  0  0  0  0
 21 22  1  0  0  0  0
 21 24  1  0  0  0  0
 21 38  1  0  0  0  0
 22 23  1  0  0  0  0
 22 39  1  0  0  0  0
 22 40  1  0  0  0  0
 23 41  1  0  0  0  0
 23 42  1  0  0  0  0
 24 43  1  0  0  0  0
 24 44  1  0  0  0  0
M  END
> <ConfClashScore>
0 

> <ConfOneFourInteractionScore>
-0.984337 

> <ConfScore>
0.0323861 

> <ConfScorePBest>
0.00206049 

> <ConfTolerance>
0.632728 

$$$$
c13.sdf
 OpenBabel04162418043D

 44 47  0  0  0  0  0  0  0  0999 V2000
    4.2037    1.4291   -4.9321 N   0  0  0  1  0  0  0  0  0  0  0  0
    4.7389    1.2408   -3.7378 C   0  0  0  1  0  0  0  0  0  0  0  0
    5.9934    0.8875   -3.5750 N   0  0  0  1  0  0  0  0  0  0  0  0
    6.7856    0.7031   -4.6343 C   0  0  0  1  0  0  0  0  0  0  0  0
    6.2478    0.8955   -5.9247 C   0  0  0  1  0  0  0  0  0  0  0  0
    4.9120    1.2697   -6.0365 C   0  0  0  1  0  0  0  0  0  0  0  0
    8.1376    0.3339   -4.8065 C   0  0  0  1  0  0  0  0  0  0  0  0
    8.4039    0.3028   -6.0814 N   0  0  0  1  0  0  0  0  0  0  0  0
    7.2590    0.6447   -6.8131 N   0  0  0  1  0  0  0  0  0  0  0  0
    7.2206    0.5981   -8.2262 C   0  0  0  1  0  0  0  0  0  0  0  0
    7.0615    1.7320   -9.0002 C   0  0  0  1  0  0  0  0  0  0  0  0
    7.0361    1.6296  -10.3824 C   0  0  0  1  0  0  0  0  0  0  0  0
    7.1645    0.3931  -10.9864 C   0  0  0  1  0  0  0  0  0  0  0  0
    7.3241   -0.7441  -10.2099 C   0  0  0  1  0  0  0  0  0  0  0  0
    7.3494   -0.6421   -8.8318 C   0  0  0  1  0  0  0  0  0  0  0  0
    7.1197    0.4167  -12.3363 O   0  0  0  1  0  0  0  0  0  0  0  0
    7.1278   -0.8294  -13.0711 C   0  0  0  1  0  0  0  0  0  0  0  0
    3.9709    1.4173   -2.6476 N   0  0  0  1  0  0  0  0  0  0  0  0
    4.4356    1.2086   -1.2873 C   0  0  0  1  0  0  0  0  0  0  0  0
    5.0837   -0.1747   -1.1476 C   0  0  0  1  0  0  0  0  0  0  0  0
    6.4866    0.0574   -0.5816 C   0  0  0  1  0  0  0  0  0  0  0  0
    6.4591    1.4614    0.0273 C   0  0  0  1  0  0  0  0  0  0  0  0
    5.5410    2.2111   -0.9382 C   0  0  0  1  0  0  0  0  0  0  0  0
    6.7956   -0.9451    0.4525 N   0  0  0  1  0  0  0  0  0  0  0  0
    4.4798    1.4207   -6.9703 H   0  0  0  1  0  0  0  0  0  0  0  0
    8.8099    0.1218   -4.0418 H   0  0  0  1  0  0  0  0  0  0  0  0
    6.9608    2.6620   -8.5457 H   0  0  0  1  0  0  0  0  0  0  0  0
    6.9204    2.4834  -10.9649 H   0  0  0  1  0  0  0  0  0  0  0  0
    7.4248   -1.6741  -10.6644 H   0  0  0  1  0  0  0  0  0  0  0  0
    7.4651   -1.4958   -8.2492 H   0  0  0  1  0  0  0  0  0  0  0  0
    7.7983   -0.7502  -13.9012 H   0  0  0  1  0  0  0  0  0  0  0  0
    6.1412   -1.0387  -13.4285 H   0  0  0  1  0  0  0  0  0  0  0  0
    7.4498   -1.6208  -12.4271 H   0  0  0  1  0  0  0  0  0  0  0  0
    3.0429    1.7037   -2.7789 H   0  0  0  1  0  0  0  0  0  0  0  0
    3.6132    1.3070   -0.6099 H   0  0  0  1  0  0  0  0  0  0  0  0
    5.1452   -0.6521   -2.1033 H   0  0  0  1  0  0  0  0  0  0  0  0
    4.5121   -0.7848   -0.4798 H   0  0  0  1  0  0  0  0  0  0  0  0
    7.2173    0.0031   -1.3614 H   0  0  0  1  0  0  0  0  0  0  0  0
    6.0531    1.4474    1.0172 H   0  0  0  1  0  0  0  0  0  0  0  0
    7.4372    1.8947    0.0485 H   0  0  0  1  0  0  0  0  0  0  0  0
    5.1277    3.0788   -0.4679 H   0  0  0  1  0  0  0  0  0  0  0  0
    6.0766    2.5024   -1.8176 H   0  0  0  1  0  0  0  0  0  0  0  0
    6.6303   -1.8433    0.0972 H   0  0  0  1  0  0  0  0  0  0  0  0
    6.2253   -0.7935    1.2349 H   0  0  0  1  0  0  0  0  0  0  0  0
  1  2  4  0  0  0  0
  1  6  4  0  0  0  0
  2  3  4  0  0  0  0
  2 18  1  0  0  0  0
  3  4  4  0  0  0  0
  4  5  4  0  0  0  0
  4  7  4  0  0  0  0
  5  6  4  0  0  0  0
  5  9  4  0  0  0  0
  6 25  1  0  0  0  0
  7  8  4  0  0  0  0
  7 26  1  0  0  0  0
  8  9  4  0  0  0  0
  9 10  1  0  0  0  0
 10 11  4  0  0  0  0
 10 15  4  0  0  0  0
 11 12  4  0  0  0  0
 11 27  1  0  0  0  0
 12 13  4  0  0  0  0
 12 28  1  0  0  0  0
 13 14  4  0  0  0  0
 13 16  1  0  0  0  0
 14 15  4  0  0  0  0
 14 29  1  0  0  0  0
 15 30  1  0  0  0  0
 16 17  1  0  0  0  0
 17 31  1  0  0  0  0
 17 32  1  0  0  0  0
 17 33  1  0  0  0  0
 18 19  1  0  0  0  0
 18 34  1  0  0  0  0
 19 20  1  0  0  0  0
 19 23  1  0  0  0  0
 19 35  1  0  0  0  0
 20 21  1  0  0  0  0
 20 36  1  0  0  0  0
 20 37  1  0  0  0  0
 21 22  1  0  0  0  0
 21 24  1  0  0  0  0
 21 38  1  0  0  0  0
 22 23  1  0  0  0  0
 22 39  1  0  0  0  0
 22 40  1  0  0  0  0
 23 41  1  0  0  0  0
 23 42  1  0  0  0  0
 24 43  1  0  0  0  0
 24 44  1  0  0  0  0
M  END
> <ConfClashScore>
0 

> <ConfOneFourInteractionScore>
-0.980204 

> <ConfScore>
0.0329795 

> <ConfScorePBest>
0.00204716 

> <ConfTolerance>
0.312394 

$$$$
c13.sdf
 OpenBabel04162418043D

 44 47  0  0  0  0  0  0  0  0999 V2000
    5.9972    1.6304   -3.3865 N   0  0  0  1  0  0  0  0  0  0  0  0
    4.7013    1.8786   -3.4712 C   0  0  0  1  0  0  0  0  0  0  0  0
    4.1538    2.4117   -4.5395 N   0  0  0  1  0  0  0  0  0  0  0  0
    4.9057    2.7269   -5.5973 C   0  0  0  1  0  0  0  0  0  0  0  0
    6.2932    2.4757   -5.5420 C   0  0  0  1  0  0  0  0  0  0  0  0
    6.8180    1.9092   -4.3841 C   0  0  0  1  0  0  0  0  0  0  0  0
    4.6440    3.2951   -6.8633 C   0  0  0  1  0  0  0  0  0  0  0  0
    5.7646    3.3839   -7.5219 N   0  0  0  1  0  0  0  0  0  0  0  0
    6.8149    2.8866   -6.7393 N   0  0  0  1  0  0  0  0  0  0  0  0
    8.1500    2.8726   -7.2347 C   0  0  0  1  0  0  0  0  0  0  0  0
    8.9127    1.7245   -7.1330 C   0  0  0  1  0  0  0  0  0  0  0  0
   10.2103    1.7093   -7.6201 C   0  0  0  1  0  0  0  0  0  0  0  0
   10.7434    2.8437   -8.2026 C   0  0  0  1  0  0  0  0  0  0  0  0
    9.9782    3.9952   -8.3045 C   0  0  0  1  0  0  0  0  0  0  0  0
    8.6843    4.0105   -7.8189 C   0  0  0  1  0  0  0  0  0  0  0  0
   11.9778    2.7983   -8.7575 O   0  0  0  1  0  0  0  0  0  0  0  0
   12.5304    4.0365   -9.2310 C   0  0  0  1  0  0  0  0  0  0  0  0
    3.9015    1.5700   -2.4100 N   0  0  0  1  0  0  0  0  0  0  0  0
    4.4556    1.0590   -1.1487 C   0  0  0  1  0  0  0  0  0  0  0  0
    5.2829   -0.2023   -1.4075 C   0  0  0  1  0  0  0  0  0  0  0  0
    6.5326   -0.0625   -0.5347 C   0  0  0  1  0  0  0  0  0  0  0  0
    6.7994    1.4415   -0.5960 C   0  0  0  1  0  0  0  0  0  0  0  0
    5.4117    2.0892   -0.5343 C   0  0  0  1  0  0  0  0  0  0  0  0
    6.2680   -0.5099    0.8673 N   0  0  0  1  0  0  0  0  0  0  0  0
    7.8356    1.7093   -4.3056 H   0  0  0  1  0  0  0  0  0  0  0  0
    3.7109    3.5934   -7.2123 H   0  0  0  1  0  0  0  0  0  0  0  0
    8.5130    0.8721   -6.6911 H   0  0  0  1  0  0  0  0  0  0  0  0
   10.7829    0.8442   -7.5472 H   0  0  0  1  0  0  0  0  0  0  0  0
   10.3779    4.8476   -8.7464 H   0  0  0  1  0  0  0  0  0  0  0  0
    8.1117    4.8755   -7.8917 H   0  0  0  1  0  0  0  0  0  0  0  0
   13.3125    3.8335   -9.9323 H   0  0  0  1  0  0  0  0  0  0  0  0
   12.9269    4.5888   -8.4048 H   0  0  0  1  0  0  0  0  0  0  0  0
   11.7633    4.6096   -9.7086 H   0  0  0  1  0  0  0  0  0  0  0  0
    2.9326    1.6922   -2.4910 H   0  0  0  1  0  0  0  0  0  0  0  0
    3.6575    0.8443   -0.4690 H   0  0  0  1  0  0  0  0  0  0  0  0
    5.5544   -0.2650   -2.4406 H   0  0  0  1  0  0  0  0  0  0  0  0
    4.7296   -1.0750   -1.1299 H   0  0  0  1  0  0  0  0  0  0  0  0
    7.3524   -0.6191   -0.9385 H   0  0  0  1  0  0  0  0  0  0  0  0
    7.3973    1.7522    0.2352 H   0  0  0  1  0  0  0  0  0  0  0  0
    7.2950    1.6992   -1.5086 H   0  0  0  1  0  0  0  0  0  0  0  0
    5.3969    2.9976   -1.0995 H   0  0  0  1  0  0  0  0  0  0  0  0
    5.1392    2.2951    0.4797 H   0  0  0  1  0  0  0  0  0  0  0  0
    6.2176   -1.4883    0.8945 H   0  0  0  1  0  0  0  0  0  0  0  0
    5.4189   -0.1306    1.1762 H   0  0  0  1  0  0  0  0  0  0  0  0
  1  2  4  0  0  0  0
  1  6  4  0  0  0  0
  2  3  4  0  0  0  0
  2 18  1  0  0  0  0
  3  4  4  0  0  0  0
  4  5  4  0  0  0  0
  4  7  4  0  0  0  0
  5  6  4  0  0  0  0
  5  9  4  0  0  0  0
  6 25  1  0  0  0  0
  7  8  4  0  0  0  0
  7 26  1  0  0  0  0
  8  9  4  0  0  0  0
  9 10  1  0  0  0  0
 10 11  4  0  0  0  0
 10 15  4  0  0  0  0
 11 12  4  0  0  0  0
 11 27  1  0  0  0  0
 12 13  4  0  0  0  0
 12 28  1  0  0  0  0
 13 14  4  0  0  0  0
 13 16  1  0  0  0  0
 14 15  4  0  0  0  0
 14 29  1  0  0  0  0
 15 30  1  0  0  0  0
 16 17  1  0  0  0  0
 17 31  1  0  0  0  0
 17 32  1  0  0  0  0
 17 33  1  0  0  0  0
 18 19  1  0  0  0  0
 18 34  1  0  0  0  0
 19 20  1  0  0  0  0
 19 23  1  0  0  0  0
 19 35  1  0  0  0  0
 20 21  1  0  0  0  0
 20 36  1  0  0  0  0
 20 37  1  0  0  0  0
 21 22  1  0  0  0  0
 21 24  1  0  0  0  0
 21 38  1  0  0  0  0
 22 23  1  0  0  0  0
 22 39  1  0  0  0  0
 22 40  1  0  0  0  0
 23 41  1  0  0  0  0
 23 42  1  0  0  0  0
 24 43  1  0  0  0  0
 24 44  1  0  0  0  0
M  END
> <ConfClashScore>
0 

> <ConfOneFourInteractionScore>
-0.980204 

> <ConfScore>
0.0329795 

> <ConfScorePBest>
0.00203384 

> <ConfTolerance>
0.301946 

$$$$
c13.sdf
 OpenBabel04162418043D

 44 47  0  0  0  0  0  0  0  0999 V2000
    2.1320    2.2793   -0.9554 N   0  0  0  1  0  0  0  0  0  0  0  0
    2.6706    2.3549   -2.1607 C   0  0  0  1  0  0  0  0  0  0  0  0
    2.1193    3.0378   -3.1378 N   0  0  0  1  0  0  0  0  0  0  0  0
    0.9718    3.6919   -2.9404 C   0  0  0  1  0  0  0  0  0  0  0  0
    0.3685    3.6334   -1.6661 C   0  0  0  1  0  0  0  0  0  0  0  0
    0.9978    2.8943   -0.6687 C   0  0  0  1  0  0  0  0  0  0  0  0
    0.1385    4.4946   -3.7499 C   0  0  0  1  0  0  0  0  0  0  0  0
   -0.8792    4.8908   -3.0395 N   0  0  0  1  0  0  0  0  0  0  0  0
   -0.7772    4.3794   -1.7392 N   0  0  0  1  0  0  0  0  0  0  0  0
   -1.6469    4.8156   -0.7193 C   0  0  0  1  0  0  0  0  0  0  0  0
   -1.1865    5.2685    0.5026 C   0  0  0  1  0  0  0  0  0  0  0  0
   -2.0862    5.6911    1.4688 C   0  0  0  1  0  0  0  0  0  0  0  0
   -3.4439    5.6545    1.2122 C   0  0  0  1  0  0  0  0  0  0  0  0
   -3.9055    5.2003   -0.0134 C   0  0  0  1  0  0  0  0  0  0  0  0
   -3.0085    4.7789   -0.9768 C   0  0  0  1  0  0  0  0  0  0  0  0
   -4.2243    6.0863    2.2312 O   0  0  0  1  0  0  0  0  0  0  0  0
   -5.6367    5.8503    2.1215 C   0  0  0  1  0  0  0  0  0  0  0  0
    3.8568    1.6590   -2.3077 N   0  0  0  1  0  0  0  0  0  0  0  0
    4.4348    1.0305   -1.1157 C   0  0  0  1  0  0  0  0  0  0  0  0
    5.2775   -0.1833   -1.5143 C   0  0  0  1  0  0  0  0  0  0  0  0
    6.5369   -0.1142   -0.6472 C   0  0  0  1  0  0  0  0  0  0  0  0
    6.7800    1.3923   -0.5552 C   0  0  0  1  0  0  0  0  0  0  0  0
    5.3837    2.0071   -0.4094 C   0  0  0  1  0  0  0  0  0  0  0  0
    6.3009   -0.7035    0.6915 N   0  0  0  1  0  0  0  0  0  0  0  0
    0.5840    2.8274    0.2830 H   0  0  0  1  0  0  0  0  0  0  0  0
    0.3090    4.7306   -4.7483 H   0  0  0  1  0  0  0  0  0  0  0  0
   -0.1652    5.2922    0.6972 H   0  0  0  1  0  0  0  0  0  0  0  0
   -1.7397    6.0356    2.3868 H   0  0  0  1  0  0  0  0  0  0  0  0
   -4.9268    5.1765   -0.2080 H   0  0  0  1  0  0  0  0  0  0  0  0
   -3.3550    4.4343   -1.8949 H   0  0  0  1  0  0  0  0  0  0  0  0
   -6.1450    6.3467    2.9216 H   0  0  0  1  0  0  0  0  0  0  0  0
   -5.8276    4.7988    2.1760 H   0  0  0  1  0  0  0  0  0  0  0  0
   -5.9897    6.2294    1.1853 H   0  0  0  1  0  0  0  0  0  0  0  0
    4.2968    1.5883   -3.1805 H   0  0  0  1  0  0  0  0  0  0  0  0
    3.6496    0.7333   -0.4523 H   0  0  0  1  0  0  0  0  0  0  0  0
    5.5355   -0.1341   -2.5516 H   0  0  0  1  0  0  0  0  0  0  0  0
    4.7414   -1.0891   -1.3222 H   0  0  0  1  0  0  0  0  0  0  0  0
    7.3594   -0.6123   -1.1167 H   0  0  0  1  0  0  0  0  0  0  0  0
    7.3847    1.6249    0.2964 H   0  0  0  1  0  0  0  0  0  0  0  0
    7.2589    1.7514   -1.4421 H   0  0  0  1  0  0  0  0  0  0  0  0
    5.1223    2.1021    0.6238 H   0  0  0  1  0  0  0  0  0  0  0  0
    5.3473    2.9689   -0.8769 H   0  0  0  1  0  0  0  0  0  0  0  0
    5.3725   -1.0108    0.7546 H   0  0  0  1  0  0  0  0  0  0  0  0
    6.4682   -0.0266    1.3802 H   0  0  0  1  0  0  0  0  0  0  0  0
  1  2  4  0  0  0  0
  1  6  4  0  0  0  0
  2  3  4  0  0  0  0
  2 18  1  0  0  0  0
  3  4  4  0  0  0  0
  4  5  4  0  0  0  0
  4  7  4  0  0  0  0
  5  6  4  0  0  0  0
  5  9  4  0  0  0  0
  6 25  1  0  0  0  0
  7  8  4  0  0  0  0
  7 26  1  0  0  0  0
  8  9  4  0  0  0  0
  9 10  1  0  0  0  0
 10 11  4  0  0  0  0
 10 15  4  0  0  0  0
 11 12  4  0  0  0  0
 11 27  1  0  0  0  0
 12 13  4  0  0  0  0
 12 28  1  0  0  0  0
 13 14  4  0  0  0  0
 13 16  1  0  0  0  0
 14 15  4  0  0  0  0
 14 29  1  0  0  0  0
 15 30  1  0  0  0  0
 16 17  1  0  0  0  0
 17 31  1  0  0  0  0
 17 32  1  0  0  0  0
 17 33  1  0  0  0  0
 18 19  1  0  0  0  0
 18 34  1  0  0  0  0
 19 20  1  0  0  0  0
 19 23  1  0  0  0  0
 19 35  1  0  0  0  0
 20 21  1  0  0  0  0
 20 36  1  0  0  0  0
 20 37  1  0  0  0  0
 21 22  1  0  0  0  0
 21 24  1  0  0  0  0
 21 38  1  0  0  0  0
 22 23  1  0  0  0  0
 22 39  1  0  0  0  0
 22 40  1  0  0  0  0
 23 41  1  0  0  0  0
 23 42  1  0  0  0  0
 24 43  1  0  0  0  0
 24 44  1  0  0  0  0
M  END
> <ConfClashScore>
0 

> <ConfOneFourInteractionScore>
-0.984337 

> <ConfScore>
0.0346772 

> <ConfScorePBest>
0.00202051 

> <ConfTolerance>
0.529754 

$$$$
c13.sdf
 OpenBabel04162418043D

 44 47  0  0  0  0  0  0  0  0999 V2000
    6.2649    1.4869   -3.5883 N   0  0  0  1  0  0  0  0  0  0  0  0
    4.9685    1.5713   -3.8343 C   0  0  0  1  0  0  0  0  0  0  0  0
    4.4893    1.7170   -5.0484 N   0  0  0  1  0  0  0  0  0  0  0  0
    5.3146    1.7861   -6.0961 C   0  0  0  1  0  0  0  0  0  0  0  0
    6.7050    1.6994   -5.8707 C   0  0  0  1  0  0  0  0  0  0  0  0
    7.1556    1.5454   -4.5629 C   0  0  0  1  0  0  0  0  0  0  0  0
    5.1356    1.9363   -7.4887 C   0  0  0  1  0  0  0  0  0  0  0  0
    6.3051    1.9412   -8.0629 N   0  0  0  1  0  0  0  0  0  0  0  0
    7.3084    1.7966   -7.0958 N   0  0  0  1  0  0  0  0  0  0  0  0
    8.6814    1.7662   -7.4133 C   0  0  0  1  0  0  0  0  0  0  0  0
    9.1925    2.8196   -8.1476 C   0  0  0  1  0  0  0  0  0  0  0  0
   10.5373    2.8427   -8.4827 C   0  0  0  1  0  0  0  0  0  0  0  0
   11.3661    1.8096   -8.0873 C   0  0  0  1  0  0  0  0  0  0  0  0
   10.8533    0.7531   -7.3509 C   0  0  0  1  0  0  0  0  0  0  0  0
    9.5124    0.7300   -7.0166 C   0  0  0  1  0  0  0  0  0  0  0  0
   12.6740    1.7217   -8.3556 O   0  0  0  1  0  0  0  0  0  0  0  0
   13.3460    2.6814   -9.2389 C   0  0  0  1  0  0  0  0  0  0  0  0
    4.1117    1.5061   -2.8091 N   0  0  0  1  0  0  0  0  0  0  0  0
    4.4443    1.2033   -1.4162 C   0  0  0  1  0  0  0  0  0  0  0  0
    5.0783   -0.1891   -1.3060 C   0  0  0  1  0  0  0  0  0  0  0  0
    6.4187   -0.0015   -0.5916 C   0  0  0  1  0  0  0  0  0  0  0  0
    6.3292    1.3593    0.1035 C   0  0  0  1  0  0  0  0  0  0  0  0
    5.5084    2.1755   -0.8952 C   0  0  0  1  0  0  0  0  0  0  0  0
    6.6282   -1.0766    0.4036 N   0  0  0  1  0  0  0  0  0  0  0  0
    8.1727    1.4778   -4.3568 H   0  0  0  1  0  0  0  0  0  0  0  0
    4.2212    2.0278   -7.9756 H   0  0  0  1  0  0  0  0  0  0  0  0
    8.5682    3.5950   -8.4486 H   0  0  0  1  0  0  0  0  0  0  0  0
   10.9228    3.6374   -9.0318 H   0  0  0  1  0  0  0  0  0  0  0  0
   11.4776   -0.0223   -7.0498 H   0  0  0  1  0  0  0  0  0  0  0  0
    9.1269   -0.0647   -6.4675 H   0  0  0  1  0  0  0  0  0  0  0  0
   12.6711    2.9912  -10.0091 H   0  0  0  1  0  0  0  0  0  0  0  0
   14.2035    2.2188   -9.6812 H   0  0  0  1  0  0  0  0  0  0  0  0
   13.6536    3.5341   -8.6703 H   0  0  0  1  0  0  0  0  0  0  0  0
    3.1682    1.6779   -3.0105 H   0  0  0  1  0  0  0  0  0  0  0  0
    3.5594    1.2604   -0.8172 H   0  0  0  1  0  0  0  0  0  0  0  0
    5.2337   -0.6024   -2.2806 H   0  0  0  1  0  0  0  0  0  0  0  0
    4.4454   -0.8394   -0.7390 H   0  0  0  1  0  0  0  0  0  0  0  0
    7.2222   -0.0074   -1.2983 H   0  0  0  1  0  0  0  0  0  0  0  0
    5.8285    1.2816    1.0459 H   0  0  0  1  0  0  0  0  0  0  0  0
    7.2997    1.7857    0.2487 H   0  0  0  1  0  0  0  0  0  0  0  0
    5.0495    3.0120   -0.4109 H   0  0  0  1  0  0  0  0  0  0  0  0
    6.1267    2.5219   -1.6968 H   0  0  0  1  0  0  0  0  0  0  0  0
    5.9863   -0.9732    1.1369 H   0  0  0  1  0  0  0  0  0  0  0  0
    7.5402   -1.0205    0.7578 H   0  0  0  1  0  0  0  0  0  0  0  0
  1  2  4  0  0  0  0
  1  6  4  0  0  0  0
  2  3  4  0  0  0  0
  2 18  1  0  0  0  0
  3  4  4  0  0  0  0
  4  5  4  0  0  0  0
  4  7  4  0  0  0  0
  5  6  4  0  0  0  0
  5  9  4  0  0  0  0
  6 25  1  0  0  0  0
  7  8  4  0  0  0  0
  7 26  1  0  0  0  0
  8  9  4  0  0  0  0
  9 10  1  0  0  0  0
 10 11  4  0  0  0  0
 10 15  4  0  0  0  0
 11 12  4  0  0  0  0
 11 27  1  0  0  0  0
 12 13  4  0  0  0  0
 12 28  1  0  0  0  0
 13 14  4  0  0  0  0
 13 16  1  0  0  0  0
 14 15  4  0  0  0  0
 14 29  1  0  0  0  0
 15 30  1  0  0  0  0
 16 17  1  0  0  0  0
 17 31  1  0  0  0  0
 17 32  1  0  0  0  0
 17 33  1  0  0  0  0
 18 19  1  0  0  0  0
 18 34  1  0  0  0  0
 19 20  1  0  0  0  0
 19 23  1  0  0  0  0
 19 35  1  0  0  0  0
 20 21  1  0  0  0  0
 20 36  1  0  0  0  0
 20 37  1  0  0  0  0
 21 22  1  0  0  0  0
 21 24  1  0  0  0  0
 21 38  1  0  0  0  0
 22 23  1  0  0  0  0
 22 39  1  0  0  0  0
 22 40  1  0  0  0  0
 23 41  1  0  0  0  0
 23 42  1  0  0  0  0
 24 43  1  0  0  0  0
 24 44  1  0  0  0  0
M  END
> <ConfClashScore>
0 

> <ConfOneFourInteractionScore>
-0.980204 

> <ConfScore>
0.035982 

> <ConfScorePBest>
0.00200718 

> <ConfTolerance>
0.246166 

$$$$
c13.sdf
 OpenBabel04162418043D

 44 47  0  0  0  0  0  0  0  0999 V2000
    3.1034   -0.2720   -3.1165 N   0  0  0  1  0  0  0  0  0  0  0  0
    3.3498    0.9983   -3.3888 C   0  0  0  1  0  0  0  0  0  0  0  0
    2.9742    1.5641   -4.5130 N   0  0  0  1  0  0  0  0  0  0  0  0
    2.3171    0.8586   -5.4370 C   0  0  0  1  0  0  0  0  0  0  0  0
    2.0367   -0.5003   -5.1801 C   0  0  0  1  0  0  0  0  0  0  0  0
    2.4589   -1.0466   -3.9716 C   0  0  0  1  0  0  0  0  0  0  0  0
    1.7866    1.1505   -6.7128 C   0  0  0  1  0  0  0  0  0  0  0  0
    1.2335    0.0730   -7.1926 N   0  0  0  1  0  0  0  0  0  0  0  0
    1.3655   -0.9767   -6.2741 N   0  0  0  1  0  0  0  0  0  0  0  0
    0.8409   -2.2687   -6.5633 C   0  0  0  1  0  0  0  0  0  0  0  0
   -0.5008   -2.5310   -6.3600 C   0  0  0  1  0  0  0  0  0  0  0  0
   -1.0124   -3.7871   -6.6465 C   0  0  0  1  0  0  0  0  0  0  0  0
   -0.1799   -4.7787   -7.1303 C   0  0  0  1  0  0  0  0  0  0  0  0
    1.1657   -4.5154   -7.3341 C   0  0  0  1  0  0  0  0  0  0  0  0
    1.6760   -3.2630   -7.0485 C   0  0  0  1  0  0  0  0  0  0  0  0
   -0.7902   -5.9639   -7.3682 O   0  0  0  1  0  0  0  0  0  0  0  0
    0.0442   -7.0638   -7.7638 C   0  0  0  1  0  0  0  0  0  0  0  0
    4.0217    1.7088   -2.4376 N   0  0  0  1  0  0  0  0  0  0  0  0
    4.4151    1.1048   -1.1572 C   0  0  0  1  0  0  0  0  0  0  0  0
    5.2274   -0.2159   -1.3935 C   0  0  0  1  0  0  0  0  0  0  0  0
    6.5558   -0.0770   -0.6271 C   0  0  0  1  0  0  0  0  0  0  0  0
    6.7955    1.4701   -0.6274 C   0  0  0  1  0  0  0  0  0  0  0  0
    5.3798    2.0161   -0.4051 C   0  0  0  1  0  0  0  0  0  0  0  0
    6.4308   -0.6014    0.7648 N   0  0  0  1  0  0  0  0  0  0  0  0
    2.2710   -2.0443   -3.7461 H   0  0  0  1  0  0  0  0  0  0  0  0
    1.8303    2.0733   -7.1904 H   0  0  0  1  0  0  0  0  0  0  0  0
   -1.1264   -1.7862   -5.9922 H   0  0  0  1  0  0  0  0  0  0  0  0
   -2.0227   -3.9834   -6.4974 H   0  0  0  1  0  0  0  0  0  0  0  0
    1.7914   -5.2602   -7.7020 H   0  0  0  1  0  0  0  0  0  0  0  0
    2.6863   -3.0667   -7.1976 H   0  0  0  1  0  0  0  0  0  0  0  0
    0.8785   -6.6959   -8.3237 H   0  0  0  1  0  0  0  0  0  0  0  0
   -0.5214   -7.7402   -8.3700 H   0  0  0  1  0  0  0  0  0  0  0  0
    0.3972   -7.5749   -6.8925 H   0  0  0  1  0  0  0  0  0  0  0  0
    4.2477    2.6461   -2.6128 H   0  0  0  1  0  0  0  0  0  0  0  0
    3.5417    0.9117   -0.5700 H   0  0  0  1  0  0  0  0  0  0  0  0
    4.6771   -1.0557   -1.0237 H   0  0  0  1  0  0  0  0  0  0  0  0
    5.4190   -0.3463   -2.4381 H   0  0  0  1  0  0  0  0  0  0  0  0
    7.3476   -0.5897   -1.1322 H   0  0  0  1  0  0  0  0  0  0  0  0
    7.4525    1.7611    0.1654 H   0  0  0  1  0  0  0  0  0  0  0  0
    7.1962    1.8005   -1.5629 H   0  0  0  1  0  0  0  0  0  0  0  0
    5.1466    2.0128    0.6392 H   0  0  0  1  0  0  0  0  0  0  0  0
    5.3095    3.0145   -0.7835 H   0  0  0  1  0  0  0  0  0  0  0  0
    6.0520   -1.5049    0.7412 H   0  0  0  1  0  0  0  0  0  0  0  0
    5.8421   -0.0141    1.2833 H   0  0  0  1  0  0  0  0  0  0  0  0
  1  2  4  0  0  0  0
  1  6  4  0  0  0  0
  2  3  4  0  0  0  0
  2 18  1  0  0  0  0
  3  4  4  0  0  0  0
  4  5  4  0  0  0  0
  4  7  4  0  0  0  0
  5  6  4  0  0  0  0
  5  9  4  0  0  0  0
  6 25  1  0  0  0  0
  7  8  4  0  0  0  0
  7 26  1  0  0  0  0
  8  9  4  0  0  0  0
  9 10  1  0  0  0  0
 10 11  4  0  0  0  0
 10 15  4  0  0  0  0
 11 12  4  0  0  0  0
 11 27  1  0  0  0  0
 12 13  4  0  0  0  0
 12 28  1  0  0  0  0
 13 14  4  0  0  0  0
 13 16  1  0  0  0  0
 14 15  4  0  0  0  0
 14 29  1  0  0  0  0
 15 30  1  0  0  0  0
 16 17  1  0  0  0  0
 17 31  1  0  0  0  0
 17 32  1  0  0  0  0
 17 33  1  0  0  0  0
 18 19  1  0  0  0  0
 18 34  1  0  0  0  0
 19 20  1  0  0  0  0
 19 23  1  0  0  0  0
 19 35  1  0  0  0  0
 20 21  1  0  0  0  0
 20 36  1  0  0  0  0
 20 37  1  0  0  0  0
 21 22  1  0  0  0  0
 21 24  1  0  0  0  0
 21 38  1  0  0  0  0
 22 23  1  0  0  0  0
 22 39  1  0  0  0  0
 22 40  1  0  0  0  0
 23 41  1  0  0  0  0
 23 42  1  0  0  0  0
 24 43  1  0  0  0  0
 24 44  1  0  0  0  0
M  END
> <ConfClashScore>
0 

> <ConfOneFourInteractionScore>
-0.985399 

> <ConfScore>
0.0389307 

> <ConfScorePBest>
0.00199385 

> <ConfTolerance>
0.513633 

$$$$
c13.sdf
 OpenBabel04162418043D

 44 47  0  0  0  0  0  0  0  0999 V2000
    5.3285    1.7721   -3.6481 N   0  0  0  1  0  0  0  0  0  0  0  0
    4.0211    1.8233   -3.4578 C   0  0  0  1  0  0  0  0  0  0  0  0
    3.1848    2.1879   -4.4027 N   0  0  0  1  0  0  0  0  0  0  0  0
    3.6388    2.5260   -5.6122 C   0  0  0  1  0  0  0  0  0  0  0  0
    5.0289    2.4829   -5.8511 C   0  0  0  1  0  0  0  0  0  0  0  0
    5.8674    2.0890   -4.8125 C   0  0  0  1  0  0  0  0  0  0  0  0
    3.0313    2.9512   -6.8140 C   0  0  0  1  0  0  0  0  0  0  0  0
    3.9605    3.1500   -7.7052 N   0  0  0  1  0  0  0  0  0  0  0  0
    5.2165    2.8713   -7.1505 N   0  0  0  1  0  0  0  0  0  0  0  0
    6.3685    3.0250   -7.9568 C   0  0  0  1  0  0  0  0  0  0  0  0
    7.5349    3.5230   -7.4076 C   0  0  0  1  0  0  0  0  0  0  0  0
    8.6653    3.6685   -8.1965 C   0  0  0  1  0  0  0  0  0  0  0  0
    8.6246    3.3207   -9.5335 C   0  0  0  1  0  0  0  0  0  0  0  0
    7.4546    2.8212  -10.0843 C   0  0  0  1  0  0  0  0  0  0  0  0
    6.3274    2.6761   -9.2977 C   0  0  0  1  0  0  0  0  0  0  0  0
    9.6327    3.4064  -10.4337 O   0  0  0  1  0  0  0  0  0  0  0  0
   10.8977    3.8919   -9.9579 C   0  0  0  1  0  0  0  0  0  0  0  0
    3.5205    1.4851   -2.2347 N   0  0  0  1  0  0  0  0  0  0  0  0
    4.3914    1.0567   -1.1390 C   0  0  0  1  0  0  0  0  0  0  0  0
    5.2550   -0.1798   -1.5618 C   0  0  0  1  0  0  0  0  0  0  0  0
    6.4803   -0.1041   -0.5897 C   0  0  0  1  0  0  0  0  0  0  0  0
    6.6442    1.3944   -0.2093 C   0  0  0  1  0  0  0  0  0  0  0  0
    5.4409    2.1377   -0.8158 C   0  0  0  1  0  0  0  0  0  0  0  0
    6.2236   -0.9159    0.6228 N   0  0  0  1  0  0  0  0  0  0  0  0
    6.8974    2.0448   -4.9500 H   0  0  0  1  0  0  0  0  0  0  0  0
    2.0106    3.0838   -6.9630 H   0  0  0  1  0  0  0  0  0  0  0  0
    7.5644    3.7885   -6.4025 H   0  0  0  1  0  0  0  0  0  0  0  0
    9.5442    4.0394   -7.7823 H   0  0  0  1  0  0  0  0  0  0  0  0
    7.4250    2.5557  -11.0894 H   0  0  0  1  0  0  0  0  0  0  0  0
    5.4485    2.3052   -9.7119 H   0  0  0  1  0  0  0  0  0  0  0  0
   10.7397    4.7401   -9.3251 H   0  0  0  1  0  0  0  0  0  0  0  0
   11.5062    4.1768  -10.7906 H   0  0  0  1  0  0  0  0  0  0  0  0
   11.3899    3.1203   -9.4034 H   0  0  0  1  0  0  0  0  0  0  0  0
    2.5529    1.5300   -2.0858 H   0  0  0  1  0  0  0  0  0  0  0  0
    3.7975    0.8313   -0.2779 H   0  0  0  1  0  0  0  0  0  0  0  0
    4.7124   -1.0919   -1.4260 H   0  0  0  1  0  0  0  0  0  0  0  0
    5.5681   -0.0990   -2.5818 H   0  0  0  1  0  0  0  0  0  0  0  0
    7.3630   -0.4609   -1.0781 H   0  0  0  1  0  0  0  0  0  0  0  0
    6.6486    1.5064    0.8548 H   0  0  0  1  0  0  0  0  0  0  0  0
    7.5572    1.7797   -0.6128 H   0  0  0  1  0  0  0  0  0  0  0  0
    5.7327    2.6508   -1.7082 H   0  0  0  1  0  0  0  0  0  0  0  0
    5.0457    2.8406   -0.1126 H   0  0  0  1  0  0  0  0  0  0  0  0
    5.4310   -0.5718    1.0851 H   0  0  0  1  0  0  0  0  0  0  0  0
    6.9985   -0.8638    1.2206 H   0  0  0  1  0  0  0  0  0  0  0  0
  1  2  4  0  0  0  0
  1  6  4  0  0  0  0
  2  3  4  0  0  0  0
  2 18  1  0  0  0  0
  3  4  4  0  0  0  0
  4  5  4  0  0  0  0
  4  7  4  0  0  0  0
  5  6  4  0  0  0  0
  5  9  4  0  0  0  0
  6 25  1  0  0  0  0
  7  8  4  0  0  0  0
  7 26  1  0  0  0  0
  8  9  4  0  0  0  0
  9 10  1  0  0  0  0
 10 11  4  0  0  0  0
 10 15  4  0  0  0  0
 11 12  4  0  0  0  0
 11 27  1  0  0  0  0
 12 13  4  0  0  0  0
 12 28  1  0  0  0  0
 13 14  4  0  0  0  0
 13 16  1  0  0  0  0
 14 15  4  0  0  0  0
 14 29  1  0  0  0  0
 15 30  1  0  0  0  0
 16 17  1  0  0  0  0
 17 31  1  0  0  0  0
 17 32  1  0  0  0  0
 17 33  1  0  0  0  0
 18 19  1  0  0  0  0
 18 34  1  0  0  0  0
 19 20  1  0  0  0  0
 19 23  1  0  0  0  0
 19 35  1  0  0  0  0
 20 21  1  0  0  0  0
 20 36  1  0  0  0  0
 20 37  1  0  0  0  0
 21 22  1  0  0  0  0
 21 24  1  0  0  0  0
 21 38  1  0  0  0  0
 22 23  1  0  0  0  0
 22 39  1  0  0  0  0
 22 40  1  0  0  0  0
 23 41  1  0  0  0  0
 23 42  1  0  0  0  0
 24 43  1  0  0  0  0
 24 44  1  0  0  0  0
M  END
> <ConfClashScore>
0 

> <ConfOneFourInteractionScore>
-0.980204 

> <ConfScore>
0.040639 

> <ConfScorePBest>
0.00198052 

> <ConfTolerance>
0.187004 

$$$$
c13.sdf
 OpenBabel04162418043D

 44 47  0  0  0  0  0  0  0  0999 V2000
    5.8935    1.2945   -3.6648 N   0  0  0  1  0  0  0  0  0  0  0  0
    4.5939    1.5209   -3.7546 C   0  0  0  1  0  0  0  0  0  0  0  0
    3.9990    1.7704   -4.8987 N   0  0  0  1  0  0  0  0  0  0  0  0
    4.7037    1.8041   -6.0326 C   0  0  0  1  0  0  0  0  0  0  0  0
    6.0936    1.5668   -5.9744 C   0  0  0  1  0  0  0  0  0  0  0  0
    6.6698    1.3077   -4.7343 C   0  0  0  1  0  0  0  0  0  0  0  0
    4.3859    2.0359   -7.3888 C   0  0  0  1  0  0  0  0  0  0  0  0
    5.4771    1.9492   -8.0952 N   0  0  0  1  0  0  0  0  0  0  0  0
    6.5620    1.6593   -7.2576 N   0  0  0  1  0  0  0  0  0  0  0  0
    7.8760    1.6067   -7.7787 C   0  0  0  1  0  0  0  0  0  0  0  0
    8.0802    1.2801   -9.1061 C   0  0  0  1  0  0  0  0  0  0  0  0
    9.3675    1.2338   -9.6181 C   0  0  0  1  0  0  0  0  0  0  0  0
   10.4471    1.5090   -8.8001 C   0  0  0  1  0  0  0  0  0  0  0  0
   10.2420    1.8365   -7.4688 C   0  0  0  1  0  0  0  0  0  0  0  0
    8.9585    1.8827   -6.9582 C   0  0  0  1  0  0  0  0  0  0  0  0
   11.6477    1.4278   -9.4058 O   0  0  0  1  0  0  0  0  0  0  0  0
   12.7650    1.8612   -8.6056 C   0  0  0  1  0  0  0  0  0  0  0  0
    3.8414    1.4947   -2.6171 N   0  0  0  1  0  0  0  0  0  0  0  0
    4.4301    1.1839   -1.3111 C   0  0  0  1  0  0  0  0  0  0  0  0
    5.1057   -0.1891   -1.3434 C   0  0  0  1  0  0  0  0  0  0  0  0
    6.4316   -0.0405   -0.5864 C   0  0  0  1  0  0  0  0  0  0  0  0
    6.4117    1.3791   -0.0091 C   0  0  0  1  0  0  0  0  0  0  0  0
    5.5403    2.1825   -0.9748 C   0  0  0  1  0  0  0  0  0  0  0  0
    6.5241   -1.0600    0.5219 N   0  0  0  1  0  0  0  0  0  0  0  0
    7.6908    1.1282   -4.6509 H   0  0  0  1  0  0  0  0  0  0  0  0
    3.4373    2.2420   -7.7620 H   0  0  0  1  0  0  0  0  0  0  0  0
    7.2682    1.0691   -9.7206 H   0  0  0  1  0  0  0  0  0  0  0  0
    9.5210    0.9920  -10.6179 H   0  0  0  1  0  0  0  0  0  0  0  0
   11.0541    2.0474   -6.8542 H   0  0  0  1  0  0  0  0  0  0  0  0
    8.8050    2.1245   -5.9584 H   0  0  0  1  0  0  0  0  0  0  0  0
   12.4563    2.6598   -7.9638 H   0  0  0  1  0  0  0  0  0  0  0  0
   13.5512    2.2024   -9.2462 H   0  0  0  1  0  0  0  0  0  0  0  0
   13.1172    1.0432   -8.0125 H   0  0  0  1  0  0  0  0  0  0  0  0
    2.8825    1.6887   -2.6744 H   0  0  0  1  0  0  0  0  0  0  0  0
    3.6676    1.2070   -0.5609 H   0  0  0  1  0  0  0  0  0  0  0  0
    4.4858   -0.9172   -0.8633 H   0  0  0  1  0  0  0  0  0  0  0  0
    5.2890   -0.4870   -2.3546 H   0  0  0  1  0  0  0  0  0  0  0  0
    7.2593   -0.1619   -1.2535 H   0  0  0  1  0  0  0  0  0  0  0  0
    5.9859    1.3806    0.9725 H   0  0  0  1  0  0  0  0  0  0  0  0
    7.4016    1.7835    0.0303 H   0  0  0  1  0  0  0  0  0  0  0  0
    5.1452    3.0584   -0.5042 H   0  0  0  1  0  0  0  0  0  0  0  0
    6.0881    2.4634   -1.8500 H   0  0  0  1  0  0  0  0  0  0  0  0
    5.8093   -0.9010    1.1731 H   0  0  0  1  0  0  0  0  0  0  0  0
    7.3940   -0.9811    0.9662 H   0  0  0  1  0  0  0  0  0  0  0  0
  1  2  4  0  0  0  0
  1  6  4  0  0  0  0
  2  3  4  0  0  0  0
  2 18  1  0  0  0  0
  3  4  4  0  0  0  0
  4  5  4  0  0  0  0
  4  7  4  0  0  0  0
  5  6  4  0  0  0  0
  5  9  4  0  0  0  0
  6 25  1  0  0  0  0
  7  8  4  0  0  0  0
  7 26  1  0  0  0  0
  8  9  4  0  0  0  0
  9 10  1  0  0  0  0
 10 11  4  0  0  0  0
 10 15  4  0  0  0  0
 11 12  4  0  0  0  0
 11 27  1  0  0  0  0
 12 13  4  0  0  0  0
 12 28  1  0  0  0  0
 13 14  4  0  0  0  0
 13 16  1  0  0  0  0
 14 15  4  0  0  0  0
 14 29  1  0  0  0  0
 15 30  1  0  0  0  0
 16 17  1  0  0  0  0
 17 31  1  0  0  0  0
 17 32  1  0  0  0  0
 17 33  1  0  0  0  0
 18 19  1  0  0  0  0
 18 34  1  0  0  0  0
 19 20  1  0  0  0  0
 19 23  1  0  0  0  0
 19 35  1  0  0  0  0
 20 21  1  0  0  0  0
 20 36  1  0  0  0  0
 20 37  1  0  0  0  0
 21 22  1  0  0  0  0
 21 24  1  0  0  0  0
 21 38  1  0  0  0  0
 22 23  1  0  0  0  0
 22 39  1  0  0  0  0
 22 40  1  0  0  0  0
 23 41  1  0  0  0  0
 23 42  1  0  0  0  0
 24 43  1  0  0  0  0
 24 44  1  0  0  0  0
M  END
> <ConfClashScore>
0 

> <ConfOneFourInteractionScore>
-0.980204 

> <ConfScore>
0.040639 

> <ConfScorePBest>
0.00196719 

> <ConfTolerance>
0.264041 

$$$$
c13.sdf
 OpenBabel04162418043D

 44 47  0  0  0  0  0  0  0  0999 V2000
    3.4573    3.6697   -1.6169 N   0  0  0  1  0  0  0  0  0  0  0  0
    3.7076    2.9919   -2.7243 C   0  0  0  1  0  0  0  0  0  0  0  0
    3.4770    3.4844   -3.9198 N   0  0  0  1  0  0  0  0  0  0  0  0
    2.9711    4.7126   -4.0577 C   0  0  0  1  0  0  0  0  0  0  0  0
    2.6916    5.4651   -2.8970 C   0  0  0  1  0  0  0  0  0  0  0  0
    2.9563    4.8920   -1.6566 C   0  0  0  1  0  0  0  0  0  0  0  0
    2.6147    5.5179   -5.1616 C   0  0  0  1  0  0  0  0  0  0  0  0
    2.1600    6.6560   -4.7200 N   0  0  0  1  0  0  0  0  0  0  0  0
    2.1897    6.6668   -3.3193 N   0  0  0  1  0  0  0  0  0  0  0  0
    1.9308    7.8631   -2.5913 C   0  0  0  1  0  0  0  0  0  0  0  0
    1.1264    7.8279   -1.4680 C   0  0  0  1  0  0  0  0  0  0  0  0
    0.8787    8.9914   -0.7563 C   0  0  0  1  0  0  0  0  0  0  0  0
    1.4318   10.1876   -1.1731 C   0  0  0  1  0  0  0  0  0  0  0  0
    2.2386   10.2226   -2.2998 C   0  0  0  1  0  0  0  0  0  0  0  0
    2.4856    9.0626   -3.0094 C   0  0  0  1  0  0  0  0  0  0  0  0
    1.2581   11.2666   -0.3790 O   0  0  0  1  0  0  0  0  0  0  0  0
    0.4324   11.1579    0.7910 C   0  0  0  1  0  0  0  0  0  0  0  0
    4.2248    1.7336   -2.6227 N   0  0  0  1  0  0  0  0  0  0  0  0
    4.4523    1.0972   -1.3223 C   0  0  0  1  0  0  0  0  0  0  0  0
    5.2513   -0.2416   -1.4925 C   0  0  0  1  0  0  0  0  0  0  0  0
    6.4863   -0.1547   -0.5768 C   0  0  0  1  0  0  0  0  0  0  0  0
    6.7651    1.3847   -0.5169 C   0  0  0  1  0  0  0  0  0  0  0  0
    5.3481    1.9668   -0.4459 C   0  0  0  1  0  0  0  0  0  0  0  0
    6.1884   -0.7014    0.7826 N   0  0  0  1  0  0  0  0  0  0  0  0
    2.7637    5.4152   -0.7787 H   0  0  0  1  0  0  0  0  0  0  0  0
    2.7011    5.2470   -6.1620 H   0  0  0  1  0  0  0  0  0  0  0  0
    0.7069    6.9286   -1.1566 H   0  0  0  1  0  0  0  0  0  0  0  0
    0.2767    8.9643    0.0913 H   0  0  0  1  0  0  0  0  0  0  0  0
    2.6581   11.1219   -2.6111 H   0  0  0  1  0  0  0  0  0  0  0  0
    3.0876    9.0897   -3.8570 H   0  0  0  1  0  0  0  0  0  0  0  0
   -0.5284   10.7758    0.5159 H   0  0  0  1  0  0  0  0  0  0  0  0
    0.3176   12.1236    1.2372 H   0  0  0  1  0  0  0  0  0  0  0  0
    0.8930   10.4932    1.4918 H   0  0  0  1  0  0  0  0  0  0  0  0
    4.4499    1.2426   -3.4404 H   0  0  0  1  0  0  0  0  0  0  0  0
    3.5126    0.9186   -0.8427 H   0  0  0  1  0  0  0  0  0  0  0  0
    4.6403   -1.0719   -1.2058 H   0  0  0  1  0  0  0  0  0  0  0  0
    5.5577   -0.3585   -2.5110 H   0  0  0  1  0  0  0  0  0  0  0  0
    7.3170   -0.6806   -0.9992 H   0  0  0  1  0  0  0  0  0  0  0  0
    7.2789    1.7204   -1.3934 H   0  0  0  1  0  0  0  0  0  0  0  0
    7.3344    1.6424    0.3516 H   0  0  0  1  0  0  0  0  0  0  0  0
    5.3479    2.9735   -0.8085 H   0  0  0  1  0  0  0  0  0  0  0  0
    4.9968    1.9512    0.5647 H   0  0  0  1  0  0  0  0  0  0  0  0
    5.2793   -0.4470    1.0455 H   0  0  0  1  0  0  0  0  0  0  0  0
    6.8290   -0.3370    1.4286 H   0  0  0  1  0  0  0  0  0  0  0  0
  1  2  4  0  0  0  0
  1  6  4  0  0  0  0
  2  3  4  0  0  0  0
  2 18  1  0  0  0  0
  3  4  4  0  0  0  0
  4  5  4  0  0  0  0
  4  7  4  0  0  0  0
  5  6  4  0  0  0  0
  5  9  4  0  0  0  0
  6 25  1  0  0  0  0
  7  8  4  0  0  0  0
  7 26  1  0  0  0  0
  8  9  4  0  0  0  0
  9 10  1  0  0  0  0
 10 11  4  0  0  0  0
 10 15  4  0  0  0  0
 11 12  4  0  0  0  0
 11 27  1  0  0  0  0
 12 13  4  0  0  0  0
 12 28  1  0  0  0  0
 13 14  4  0  0  0  0
 13 16  1  0  0  0  0
 14 15  4  0  0  0  0
 14 29  1  0  0  0  0
 15 30  1  0  0  0  0
 16 17  1  0  0  0  0
 17 31  1  0  0  0  0
 17 32  1  0  0  0  0
 17 33  1  0  0  0  0
 18 19  1  0  0  0  0
 18 34  1  0  0  0  0
 19 20  1  0  0  0  0
 19 23  1  0  0  0  0
 19 35  1  0  0  0  0
 20 21  1  0  0  0  0
 20 36  1  0  0  0  0
 20 37  1  0  0  0  0
 21 22  1  0  0  0  0
 21 24  1  0  0  0  0
 21 38  1  0  0  0  0
 22 23  1  0  0  0  0
 22 39  1  0  0  0  0
 22 40  1  0  0  0  0
 23 41  1  0  0  0  0
 23 42  1  0  0  0  0
 24 43  1  0  0  0  0
 24 44  1  0  0  0  0
M  END
> <ConfClashScore>
0 

> <ConfOneFourInteractionScore>
-0.985399 

> <ConfScore>
0.0409967 

> <ConfScorePBest>
0.00195387 

> <ConfTolerance>
0.452235 

$$$$
c13.sdf
 OpenBabel04162418043D

 44 47  0  0  0  0  0  0  0  0999 V2000
    1.9815    2.8267   -3.1355 N   0  0  0  1  0  0  0  0  0  0  0  0
    2.8493    2.6055   -2.1627 C   0  0  0  1  0  0  0  0  0  0  0  0
    3.1203    3.5023   -1.2421 N   0  0  0  1  0  0  0  0  0  0  0  0
    2.5144    4.6923   -1.2601 C   0  0  0  1  0  0  0  0  0  0  0  0
    1.5820    4.9630   -2.2842 C   0  0  0  1  0  0  0  0  0  0  0  0
    1.3346    3.9750   -3.2327 C   0  0  0  1  0  0  0  0  0  0  0  0
    2.5740    5.8454   -0.4473 C   0  0  0  1  0  0  0  0  0  0  0  0
    1.7558    6.7386   -0.9272 N   0  0  0  1  0  0  0  0  0  0  0  0
    1.1186    6.2331   -2.0680 N   0  0  0  1  0  0  0  0  0  0  0  0
    0.1661    6.9770   -2.8157 C   0  0  0  1  0  0  0  0  0  0  0  0
    0.0279    8.3356   -2.6031 C   0  0  0  1  0  0  0  0  0  0  0  0
   -0.9601    9.0442   -3.2688 C   0  0  0  1  0  0  0  0  0  0  0  0
   -1.8104    8.3912   -4.1412 C   0  0  0  1  0  0  0  0  0  0  0  0
   -1.6716    7.0285   -4.3544 C   0  0  0  1  0  0  0  0  0  0  0  0
   -0.6865    6.3219   -3.6906 C   0  0  0  1  0  0  0  0  0  0  0  0
   -2.8095    8.9732   -4.8398 O   0  0  0  1  0  0  0  0  0  0  0  0
   -3.1253   10.3543   -4.6049 C   0  0  0  1  0  0  0  0  0  0  0  0
    3.4879    1.4011   -2.1120 N   0  0  0  1  0  0  0  0  0  0  0  0
    4.4258    1.0758   -1.0446 C   0  0  0  1  0  0  0  0  0  0  0  0
    5.2810   -0.1381   -1.4084 C   0  0  0  1  0  0  0  0  0  0  0  0
    6.5265   -0.0204   -0.5231 C   0  0  0  1  0  0  0  0  0  0  0  0
    6.7016    1.4819   -0.2670 C   0  0  0  1  0  0  0  0  0  0  0  0
    5.4804    2.1726   -0.8785 C   0  0  0  1  0  0  0  0  0  0  0  0
    6.3251   -0.7445    0.7547 N   0  0  0  1  0  0  0  0  0  0  0  0
    0.6543    4.1372   -4.0025 H   0  0  0  1  0  0  0  0  0  0  0  0
    3.1722    5.9625    0.3953 H   0  0  0  1  0  0  0  0  0  0  0  0
    0.6650    8.8263   -1.9436 H   0  0  0  1  0  0  0  0  0  0  0  0
   -1.0617   10.0673   -3.1119 H   0  0  0  1  0  0  0  0  0  0  0  0
   -2.3087    6.5379   -5.0138 H   0  0  0  1  0  0  0  0  0  0  0  0
   -0.5849    5.2989   -3.8475 H   0  0  0  1  0  0  0  0  0  0  0  0
   -3.5975   10.4554   -3.6501 H   0  0  0  1  0  0  0  0  0  0  0  0
   -3.7881   10.7033   -5.3690 H   0  0  0  1  0  0  0  0  0  0  0  0
   -2.2256   10.9333   -4.6207 H   0  0  0  1  0  0  0  0  0  0  0  0
    3.3116    0.7375   -2.8113 H   0  0  0  1  0  0  0  0  0  0  0  0
    3.8880    0.9130   -0.1340 H   0  0  0  1  0  0  0  0  0  0  0  0
    4.7546   -1.0459   -1.1992 H   0  0  0  1  0  0  0  0  0  0  0  0
    5.5508   -0.1120   -2.4435 H   0  0  0  1  0  0  0  0  0  0  0  0
    7.3830   -0.4167   -1.0271 H   0  0  0  1  0  0  0  0  0  0  0  0
    7.5976    1.8342   -0.7339 H   0  0  0  1  0  0  0  0  0  0  0  0
    6.7471    1.6746    0.7845 H   0  0  0  1  0  0  0  0  0  0  0  0
    5.7289    2.5983   -1.8282 H   0  0  0  1  0  0  0  0  0  0  0  0
    5.1204    2.9406   -0.2261 H   0  0  0  1  0  0  0  0  0  0  0  0
    6.3609   -1.7104    0.5925 H   0  0  0  1  0  0  0  0  0  0  0  0
    5.4508   -0.5086    1.1294 H   0  0  0  1  0  0  0  0  0  0  0  0
  1  2  4  0  0  0  0
  1  6  4  0  0  0  0
  2  3  4  0  0  0  0
  2 18  1  0  0  0  0
  3  4  4  0  0  0  0
  4  5  4  0  0  0  0
  4  7  4  0  0  0  0
  5  6  4  0  0  0  0
  5  9  4  0  0  0  0
  6 25  1  0  0  0  0
  7  8  4  0  0  0  0
  7 26  1  0  0  0  0
  8  9  4  0  0  0  0
  9 10  1  0  0  0  0
 10 11  4  0  0  0  0
 10 15  4  0  0  0  0
 11 12  4  0  0  0  0
 11 27  1  0  0  0  0
 12 13  4  0  0  0  0
 12 28  1  0  0  0  0
 13 14  4  0  0  0  0
 13 16  1  0  0  0  0
 14 15  4  0  0  0  0
 14 29  1  0  0  0  0
 15 30  1  0  0  0  0
 16 17  1  0  0  0  0
 17 31  1  0  0  0  0
 17 32  1  0  0  0  0
 17 33  1  0  0  0  0
 18 19  1  0  0  0  0
 18 34  1  0  0  0  0
 19 20  1  0  0  0  0
 19 23  1  0  0  0  0
 19 35  1  0  0  0  0
 20 21  1  0  0  0  0
 20 36  1  0  0  0  0
 20 37  1  0  0  0  0
 21 22  1  0  0  0  0
 21 24  1  0  0  0  0
 21 38  1  0  0  0  0
 22 23  1  0  0  0  0
 22 39  1  0  0  0  0
 22 40  1  0  0  0  0
 23 41  1  0  0  0  0
 23 42  1  0  0  0  0
 24 43  1  0  0  0  0
 24 44  1  0  0  0  0
M  END
> <ConfClashScore>
0 

> <ConfOneFourInteractionScore>
-0.985399 

> <ConfScore>
0.0459834 

> <ConfScorePBest>
0.00194054 

> <ConfTolerance>
0.413288 

$$$$
c13.sdf
 OpenBabel04162418043D

 44 47  0  0  0  0  0  0  0  0999 V2000
    3.2638    1.6648   -4.5816 N   0  0  0  1  0  0  0  0  0  0  0  0
    4.0557    1.4448   -3.5459 C   0  0  0  1  0  0  0  0  0  0  0  0
    5.3445    1.2283   -3.6770 N   0  0  0  1  0  0  0  0  0  0  0  0
    5.9082    1.2233   -4.8877 C   0  0  0  1  0  0  0  0  0  0  0  0
    5.0932    1.4547   -6.0161 C   0  0  0  1  0  0  0  0  0  0  0  0
    3.7340    1.6783   -5.8167 C   0  0  0  1  0  0  0  0  0  0  0  0
    7.2225    1.0293   -5.3665 C   0  0  0  1  0  0  0  0  0  0  0  0
    7.2142    1.1320   -6.6652 N   0  0  0  1  0  0  0  0  0  0  0  0
    5.9126    1.3958   -7.1114 N   0  0  0  1  0  0  0  0  0  0  0  0
    5.5865    1.5592   -8.4730 C   0  0  0  1  0  0  0  0  0  0  0  0
    6.5938    1.9634   -9.3287 C   0  0  0  1  0  0  0  0  0  0  0  0
    6.3292    2.1343  -10.6785 C   0  0  0  1  0  0  0  0  0  0  0  0
    5.0570    1.9058  -11.1679 C   0  0  0  1  0  0  0  0  0  0  0  0
    4.0468    1.5004  -10.3095 C   0  0  0  1  0  0  0  0  0  0  0  0
    4.3105    1.3299   -8.9636 C   0  0  0  1  0  0  0  0  0  0  0  0
    4.7973    2.0779  -12.4858 O   0  0  0  1  0  0  0  0  0  0  0  0
    5.8927    2.4790  -13.3235 C   0  0  0  1  0  0  0  0  0  0  0  0
    3.5832    1.4294   -2.2812 N   0  0  0  1  0  0  0  0  0  0  0  0
    4.4141    1.1781   -1.1027 C   0  0  0  1  0  0  0  0  0  0  0  0
    5.1251   -0.1729   -1.2204 C   0  0  0  1  0  0  0  0  0  0  0  0
    6.4992    0.0300   -0.5679 C   0  0  0  1  0  0  0  0  0  0  0  0
    6.5459    1.4922   -0.1120 C   0  0  0  1  0  0  0  0  0  0  0  0
    5.5492    2.2038   -1.0120 C   0  0  0  1  0  0  0  0  0  0  0  0
    6.6529   -0.8704    0.5886 N   0  0  0  1  0  0  0  0  0  0  0  0
    3.1012    1.8525   -6.6234 H   0  0  0  1  0  0  0  0  0  0  0  0
    8.0589    0.8363   -4.7793 H   0  0  0  1  0  0  0  0  0  0  0  0
    7.5501    2.1393   -8.9598 H   0  0  0  1  0  0  0  0  0  0  0  0
    7.0881    2.4346  -11.3232 H   0  0  0  1  0  0  0  0  0  0  0  0
    3.0904    1.3246  -10.6784 H   0  0  0  1  0  0  0  0  0  0  0  0
    3.5516    1.0297   -8.3189 H   0  0  0  1  0  0  0  0  0  0  0  0
    6.5418    3.1296  -12.7756 H   0  0  0  1  0  0  0  0  0  0  0  0
    5.5148    2.9932  -14.1825 H   0  0  0  1  0  0  0  0  0  0  0  0
    6.4376    1.6130  -13.6367 H   0  0  0  1  0  0  0  0  0  0  0  0
    2.6273    1.5964   -2.1442 H   0  0  0  1  0  0  0  0  0  0  0  0
    3.8054    1.2094   -0.2232 H   0  0  0  1  0  0  0  0  0  0  0  0
    4.5745   -0.9315   -0.7045 H   0  0  0  1  0  0  0  0  0  0  0  0
    5.2362   -0.4487   -2.2482 H   0  0  0  1  0  0  0  0  0  0  0  0
    7.2778   -0.1623   -1.2763 H   0  0  0  1  0  0  0  0  0  0  0  0
    7.5279    1.8972   -0.2408 H   0  0  0  1  0  0  0  0  0  0  0  0
    6.2562    1.5775    0.9145 H   0  0  0  1  0  0  0  0  0  0  0  0
    5.9696    2.4045   -1.9753 H   0  0  0  1  0  0  0  0  0  0  0  0
    5.2121    3.1189   -0.5717 H   0  0  0  1  0  0  0  0  0  0  0  0
    6.6933   -1.7988    0.2773 H   0  0  0  1  0  0  0  0  0  0  0  0
    5.8879   -0.7612    1.1913 H   0  0  0  1  0  0  0  0  0  0  0  0
  1  2  4  0  0  0  0
  1  6  4  0  0  0  0
  2  3  4  0  0  0  0
  2 18  1  0  0  0  0
  3  4  4  0  0  0  0
  4  5  4  0  0  0  0
  4  7  4  0  0  0  0
  5  6  4  0  0  0  0
  5  9  4  0  0  0  0
  6 25  1  0  0  0  0
  7  8  4  0  0  0  0
  7 26  1  0  0  0  0
  8  9  4  0  0  0  0
  9 10  1  0  0  0  0
 10 11  4  0  0  0  0
 10 15  4  0  0  0  0
 11 12  4  0  0  0  0
 11 27  1  0  0  0  0
 12 13  4  0  0  0  0
 12 28  1  0  0  0  0
 13 14  4  0  0  0  0
 13 16  1  0  0  0  0
 14 15  4  0  0  0  0
 14 29  1  0  0  0  0
 15 30  1  0  0  0  0
 16 17  1  0  0  0  0
 17 31  1  0  0  0  0
 17 32  1  0  0  0  0
 17 33  1  0  0  0  0
 18 19  1  0  0  0  0
 18 34  1  0  0  0  0
 19 20  1  0  0  0  0
 19 23  1  0  0  0  0
 19 35  1  0  0  0  0
 20 21  1  0  0  0  0
 20 36  1  0  0  0  0
 20 37  1  0  0  0  0
 21 22  1  0  0  0  0
 21 24  1  0  0  0  0
 21 38  1  0  0  0  0
 22 23  1  0  0  0  0
 22 39  1  0  0  0  0
 22 40  1  0  0  0  0
 23 41  1  0  0  0  0
 23 42  1  0  0  0  0
 24 43  1  0  0  0  0
 24 44  1  0  0  0  0
M  END
> <ConfClashScore>
0 

> <ConfOneFourInteractionScore>
-0.980204 

> <ConfScore>
0.0523473 

> <ConfScorePBest>
0.00192721 

> <ConfTolerance>
0.26778 

$$$$
c13.sdf
 OpenBabel04162418043D

 44 47  0  0  0  0  0  0  0  0999 V2000
    4.1893    3.5087   -2.9568 N   0  0  0  1  0  0  0  0  0  0  0  0
    4.3678    2.3618   -3.5902 C   0  0  0  1  0  0  0  0  0  0  0  0
    4.4194    2.2803   -4.9000 N   0  0  0  1  0  0  0  0  0  0  0  0
    4.2901    3.3777   -5.6501 C   0  0  0  1  0  0  0  0  0  0  0  0
    4.0982    4.6194   -5.0077 C   0  0  0  1  0  0  0  0  0  0  0  0
    4.0518    4.6453   -3.6170 C   0  0  0  1  0  0  0  0  0  0  0  0
    4.2972    3.6336   -7.0389 C   0  0  0  1  0  0  0  0  0  0  0  0
    4.1260    4.9109   -7.2300 N   0  0  0  1  0  0  0  0  0  0  0  0
    3.9978    5.5617   -5.9959 N   0  0  0  1  0  0  0  0  0  0  0  0
    3.9003    6.9830   -5.9455 C   0  0  0  1  0  0  0  0  0  0  0  0
    3.2824    7.7137   -6.9427 C   0  0  0  1  0  0  0  0  0  0  0  0
    3.1230    9.0833   -6.8007 C   0  0  0  1  0  0  0  0  0  0  0  0
    3.5867    9.7190   -5.6644 C   0  0  0  1  0  0  0  0  0  0  0  0
    4.2064    8.9860   -4.6643 C   0  0  0  1  0  0  0  0  0  0  0  0
    4.3654    7.6203   -4.8058 C   0  0  0  1  0  0  0  0  0  0  0  0
    3.3803   11.0539   -5.6401 O   0  0  0  1  0  0  0  0  0  0  0  0
    3.6986   11.7971   -4.4532 C   0  0  0  1  0  0  0  0  0  0  0  0
    4.5124    1.1681   -2.9068 N   0  0  0  1  0  0  0  0  0  0  0  0
    4.4589    1.2062   -1.4431 C   0  0  0  1  0  0  0  0  0  0  0  0
    4.8940   -0.1757   -0.8488 C   0  0  0  1  0  0  0  0  0  0  0  0
    6.4319    0.0084   -0.6153 C   0  0  0  1  0  0  0  0  0  0  0  0
    6.5535    1.4687   -0.1389 C   0  0  0  1  0  0  0  0  0  0  0  0
    5.4677    2.2546   -0.8949 C   0  0  0  1  0  0  0  0  0  0  0  0
    6.9300   -0.9374    0.4302 N   0  0  0  1  0  0  0  0  0  0  0  0
    3.9119    5.5411   -3.1075 H   0  0  0  1  0  0  0  0  0  0  0  0
    4.4191    2.9202   -7.7857 H   0  0  0  1  0  0  0  0  0  0  0  0
    2.9371    7.2360   -7.7996 H   0  0  0  1  0  0  0  0  0  0  0  0
    2.6545    9.6326   -7.5493 H   0  0  0  1  0  0  0  0  0  0  0  0
    4.5517    9.4636   -3.8074 H   0  0  0  1  0  0  0  0  0  0  0  0
    4.8339    7.0710   -4.0573 H   0  0  0  1  0  0  0  0  0  0  0  0
    2.8540   11.7999   -3.7963 H   0  0  0  1  0  0  0  0  0  0  0  0
    3.9469   12.8035   -4.7187 H   0  0  0  1  0  0  0  0  0  0  0  0
    4.5320   11.3417   -3.9603 H   0  0  0  1  0  0  0  0  0  0  0  0
    4.6463    0.3239   -3.3862 H   0  0  0  1  0  0  0  0  0  0  0  0
    3.4654    1.4484   -1.1282 H   0  0  0  1  0  0  0  0  0  0  0  0
    4.3867   -0.3748    0.0721 H   0  0  0  1  0  0  0  0  0  0  0  0
    4.7026   -0.9690   -1.5408 H   0  0  0  1  0  0  0  0  0  0  0  0
    6.9770   -0.1438   -1.5235 H   0  0  0  1  0  0  0  0  0  0  0  0
    7.5231    1.8562   -0.3726 H   0  0  0  1  0  0  0  0  0  0  0  0
    6.3893    1.5299    0.9167 H   0  0  0  1  0  0  0  0  0  0  0  0
    4.9719    2.9311   -0.2304 H   0  0  0  1  0  0  0  0  0  0  0  0
    5.9047    2.8034   -1.7028 H   0  0  0  1  0  0  0  0  0  0  0  0
    6.8328   -1.8588    0.1109 H   0  0  0  1  0  0  0  0  0  0  0  0
    6.4087   -0.8199    1.2517 H   0  0  0  1  0  0  0  0  0  0  0  0
  1  2  4  0  0  0  0
  1  6  4  0  0  0  0
  2  3  4  0  0  0  0
  2 18  1  0  0  0  0
  3  4  4  0  0  0  0
  4  5  4  0  0  0  0
  4  7  4  0  0  0  0
  5  6  4  0  0  0  0
  5  9  4  0  0  0  0
  6 25  1  0  0  0  0
  7  8  4  0  0  0  0
  7 26  1  0  0  0  0
  8  9  4  0  0  0  0
  9 10  1  0  0  0  0
 10 11  4  0  0  0  0
 10 15  4  0  0  0  0
 11 12  4  0  0  0  0
 11 27  1  0  0  0  0
 12 13  4  0  0  0  0
 12 28  1  0  0  0  0
 13 14  4  0  0  0  0
 13 16  1  0  0  0  0
 14 15  4  0  0  0  0
 14 29  1  0  0  0  0
 15 30  1  0  0  0  0
 16 17  1  0  0  0  0
 17 31  1  0  0  0  0
 17 32  1  0  0  0  0
 17 33  1  0  0  0  0
 18 19  1  0  0  0  0
 18 34  1  0  0  0  0
 19 20  1  0  0  0  0
 19 23  1  0  0  0  0
 19 35  1  0  0  0  0
 20 21  1  0  0  0  0
 20 36  1  0  0  0  0
 20 37  1  0  0  0  0
 21 22  1  0  0  0  0
 21 24  1  0  0  0  0
 21 38  1  0  0  0  0
 22 23  1  0  0  0  0
 22 39  1  0  0  0  0
 22 40  1  0  0  0  0
 23 41  1  0  0  0  0
 23 42  1  0  0  0  0
 24 43  1  0  0  0  0
 24 44  1  0  0  0  0
M  END
> <ConfClashScore>
0 

> <ConfOneFourInteractionScore>
-0.981848 

> <ConfScore>
0.0581278 

> <ConfScorePBest>
0.00191388 

> <ConfTolerance>
0.46196 

$$$$
c13.sdf
 OpenBabel04162418043D

 44 47  0  0  0  0  0  0  0  0999 V2000
    4.5403    1.6624   -4.9407 N   0  0  0  1  0  0  0  0  0  0  0  0
    4.8956    1.3289   -3.7115 C   0  0  0  1  0  0  0  0  0  0  0  0
    6.1088    0.9234   -3.4137 N   0  0  0  1  0  0  0  0  0  0  0  0
    7.0426    0.8331   -4.3642 C   0  0  0  1  0  0  0  0  0  0  0  0
    6.6987    1.1812   -5.6878 C   0  0  0  1  0  0  0  0  0  0  0  0
    5.3979    1.6042   -5.9447 C   0  0  0  1  0  0  0  0  0  0  0  0
    8.4003    0.4456   -4.3838 C   0  0  0  1  0  0  0  0  0  0  0  0
    8.8468    0.5465   -5.6036 N   0  0  0  1  0  0  0  0  0  0  0  0
    7.8237    0.9997   -6.4467 N   0  0  0  1  0  0  0  0  0  0  0  0
    8.0554    1.1919   -7.8237 C   0  0  0  1  0  0  0  0  0  0  0  0
    7.3747    0.4824   -8.7950 C   0  0  0  1  0  0  0  0  0  0  0  0
    7.6383    0.7152  -10.1358 C   0  0  0  1  0  0  0  0  0  0  0  0
    8.5856    1.6529  -10.5014 C   0  0  0  1  0  0  0  0  0  0  0  0
    9.2683    2.3644   -9.5271 C   0  0  0  1  0  0  0  0  0  0  0  0
    9.0056    2.1324   -8.1901 C   0  0  0  1  0  0  0  0  0  0  0  0
    8.9307    1.9616  -11.7740 O   0  0  0  1  0  0  0  0  0  0  0  0
    8.2596    1.2514  -12.8265 C   0  0  0  1  0  0  0  0  0  0  0  0
    3.9845    1.3961   -2.6734 N   0  0  0  1  0  0  0  0  0  0  0  0
    4.4342    1.2094   -1.2984 C   0  0  0  1  0  0  0  0  0  0  0  0
    5.0818   -0.1706   -1.1280 C   0  0  0  1  0  0  0  0  0  0  0  0
    6.4773    0.0723   -0.5483 C   0  0  0  1  0  0  0  0  0  0  0  0
    6.4408    1.4861    0.0371 C   0  0  0  1  0  0  0  0  0  0  0  0
    5.5342    2.2188   -0.9520 C   0  0  0  1  0  0  0  0  0  0  0  0
    6.7760   -0.9185    0.5120 N   0  0  0  1  0  0  0  0  0  0  0  0
    5.1066    1.8691   -6.9072 H   0  0  0  1  0  0  0  0  0  0  0  0
    8.9527    0.1316   -3.5605 H   0  0  0  1  0  0  0  0  0  0  0  0
    6.6648   -0.2261   -8.5199 H   0  0  0  1  0  0  0  0  0  0  0  0
    7.1232    0.1842  -10.8668 H   0  0  0  1  0  0  0  0  0  0  0  0
    9.9782    3.0729   -9.8021 H   0  0  0  1  0  0  0  0  0  0  0  0
    9.5206    2.6634   -7.4591 H   0  0  0  1  0  0  0  0  0  0  0  0
    7.2296    1.1196  -12.5681 H   0  0  0  1  0  0  0  0  0  0  0  0
    8.7189    0.2943  -12.9599 H   0  0  0  1  0  0  0  0  0  0  0  0
    8.3302    1.8113  -13.7356 H   0  0  0  1  0  0  0  0  0  0  0  0
    3.0383    1.5688   -2.8611 H   0  0  0  1  0  0  0  0  0  0  0  0
    3.6033    1.3179   -0.6330 H   0  0  0  1  0  0  0  0  0  0  0  0
    5.1557   -0.6635   -2.0748 H   0  0  0  1  0  0  0  0  0  0  0  0
    4.5025   -0.7703   -0.4574 H   0  0  0  1  0  0  0  0  0  0  0  0
    7.2178    0.0061   -1.3179 H   0  0  0  1  0  0  0  0  0  0  0  0
    6.0225    1.4878    1.0219 H   0  0  0  1  0  0  0  0  0  0  0  0
    7.4182    1.9208    0.0634 H   0  0  0  1  0  0  0  0  0  0  0  0
    5.1143    3.0936   -0.5011 H   0  0  0  1  0  0  0  0  0  0  0  0
    6.0805    2.4963   -1.8292 H   0  0  0  1  0  0  0  0  0  0  0  0
    6.9619   -1.7894    0.1029 H   0  0  0  1  0  0  0  0  0  0  0  0
    6.0050   -0.9973    1.1117 H   0  0  0  1  0  0  0  0  0  0  0  0
  1  2  4  0  0  0  0
  1  6  4  0  0  0  0
  2  3  4  0  0  0  0
  2 18  1  0  0  0  0
  3  4  4  0  0  0  0
  4  5  4  0  0  0  0
  4  7  4  0  0  0  0
  5  6  4  0  0  0  0
  5  9  4  0  0  0  0
  6 25  1  0  0  0  0
  7  8  4  0  0  0  0
  7 26  1  0  0  0  0
  8  9  4  0  0  0  0
  9 10  1  0  0  0  0
 10 11  4  0  0  0  0
 10 15  4  0  0  0  0
 11 12  4  0  0  0  0
 11 27  1  0  0  0  0
 12 13  4  0  0  0  0
 12 28  1  0  0  0  0
 13 14  4  0  0  0  0
 13 16  1  0  0  0  0
 14 15  4  0  0  0  0
 14 29  1  0  0  0  0
 15 30  1  0  0  0  0
 16 17  1  0  0  0  0
 17 31  1  0  0  0  0
 17 32  1  0  0  0  0
 17 33  1  0  0  0  0
 18 19  1  0  0  0  0
 18 34  1  0  0  0  0
 19 20  1  0  0  0  0
 19 23  1  0  0  0  0
 19 35  1  0  0  0  0
 20 21  1  0  0  0  0
 20 36  1  0  0  0  0
 20 37  1  0  0  0  0
 21 22  1  0  0  0  0
 21 24  1  0  0  0  0
 21 38  1  0  0  0  0
 22 23  1  0  0  0  0
 22 39  1  0  0  0  0
 22 40  1  0  0  0  0
 23 41  1  0  0  0  0
 23 42  1  0  0  0  0
 24 43  1  0  0  0  0
 24 44  1  0  0  0  0
M  END
> <ConfClashScore>
0 

> <ConfOneFourInteractionScore>
-0.980204 

> <ConfScore>
0.0602085 

> <ConfScorePBest>
0.00190055 

> <ConfTolerance>
0.470718 

$$$$
c13.sdf
 OpenBabel04162418043D

 44 47  0  0  0  0  0  0  0  0999 V2000
    4.9054    1.5190   -3.7851 N   0  0  0  1  0  0  0  0  0  0  0  0
    3.6682    1.6341   -3.3328 C   0  0  0  1  0  0  0  0  0  0  0  0
    2.6555    1.9272   -4.1161 N   0  0  0  1  0  0  0  0  0  0  0  0
    2.8477    2.1227   -5.4231 C   0  0  0  1  0  0  0  0  0  0  0  0
    4.1554    2.0078   -5.9408 C   0  0  0  1  0  0  0  0  0  0  0  0
    5.1898    1.6951   -5.0637 C   0  0  0  1  0  0  0  0  0  0  0  0
    2.0050    2.4417   -6.5104 C   0  0  0  1  0  0  0  0  0  0  0  0
    2.7273    2.5155   -7.5922 N   0  0  0  1  0  0  0  0  0  0  0  0
    4.0689    2.2532   -7.2850 N   0  0  0  1  0  0  0  0  0  0  0  0
    5.0230    2.2832   -8.3221 C   0  0  0  1  0  0  0  0  0  0  0  0
    6.3340    1.8883   -8.1336 C   0  0  0  1  0  0  0  0  0  0  0  0
    7.2299    1.9331   -9.1903 C   0  0  0  1  0  0  0  0  0  0  0  0
    6.8137    2.3775  -10.4311 C   0  0  0  1  0  0  0  0  0  0  0  0
    5.4988    2.7735  -10.6200 C   0  0  0  1  0  0  0  0  0  0  0  0
    4.6053    2.7289   -9.5665 C   0  0  0  1  0  0  0  0  0  0  0  0
    7.5965    2.4698  -11.5323 O   0  0  0  1  0  0  0  0  0  0  0  0
    8.9674    2.0632  -11.3988 C   0  0  0  1  0  0  0  0  0  0  0  0
    3.4367    1.4441   -2.0214 N   0  0  0  1  0  0  0  0  0  0  0  0
    4.4282    1.0729   -1.0067 C   0  0  0  1  0  0  0  0  0  0  0  0
    5.2755   -0.1724   -1.4652 C   0  0  0  1  0  0  0  0  0  0  0  0
    6.5384   -0.0333   -0.5556 C   0  0  0  1  0  0  0  0  0  0  0  0
    6.7261    1.4609   -0.2847 C   0  0  0  1  0  0  0  0  0  0  0  0
    5.4947    2.1493   -0.8573 C   0  0  0  1  0  0  0  0  0  0  0  0
    6.3296   -0.7671    0.7303 N   0  0  0  1  0  0  0  0  0  0  0  0
    6.1669    1.6020   -5.4075 H   0  0  0  1  0  0  0  0  0  0  0  0
    0.9775    2.5929   -6.4565 H   0  0  0  1  0  0  0  0  0  0  0  0
    6.6482    1.5577   -7.1989 H   0  0  0  1  0  0  0  0  0  0  0  0
    8.2154    1.6322   -9.0495 H   0  0  0  1  0  0  0  0  0  0  0  0
    5.1845    3.1042  -11.5547 H   0  0  0  1  0  0  0  0  0  0  0  0
    3.6198    3.0298   -9.7072 H   0  0  0  1  0  0  0  0  0  0  0  0
    9.0571    1.3700  -10.5887 H   0  0  0  1  0  0  0  0  0  0  0  0
    9.5761    2.9211  -11.2028 H   0  0  0  1  0  0  0  0  0  0  0  0
    9.2904    1.5957  -12.3054 H   0  0  0  1  0  0  0  0  0  0  0  0
    2.5142    1.5658   -1.7137 H   0  0  0  1  0  0  0  0  0  0  0  0
    3.9340    0.8847   -0.0765 H   0  0  0  1  0  0  0  0  0  0  0  0
    4.7570   -1.0894   -1.2781 H   0  0  0  1  0  0  0  0  0  0  0  0
    5.5312   -0.1118   -2.5025 H   0  0  0  1  0  0  0  0  0  0  0  0
    7.3979   -0.4275   -1.0563 H   0  0  0  1  0  0  0  0  0  0  0  0
    7.6107    1.8182   -0.7693 H   0  0  0  1  0  0  0  0  0  0  0  0
    6.7975    1.6417    0.7675 H   0  0  0  1  0  0  0  0  0  0  0  0
    5.1561    2.9151   -0.1910 H   0  0  0  1  0  0  0  0  0  0  0  0
    5.7215    2.5797   -1.8103 H   0  0  0  1  0  0  0  0  0  0  0  0
    6.0125   -1.6749    0.5412 H   0  0  0  1  0  0  0  0  0  0  0  0
    5.6629   -0.2946    1.2713 H   0  0  0  1  0  0  0  0  0  0  0  0
  1  2  4  0  0  0  0
  1  6  4  0  0  0  0
  2  3  4  0  0  0  0
  2 18  1  0  0  0  0
  3  4  4  0  0  0  0
  4  5  4  0  0  0  0
  4  7  4  0  0  0  0
  5  6  4  0  0  0  0
  5  9  4  0  0  0  0
  6 25  1  0  0  0  0
  7  8  4  0  0  0  0
  7 26  1  0  0  0  0
  8  9  4  0  0  0  0
  9 10  1  0  0  0  0
 10 11  4  0  0  0  0
 10 15  4  0  0  0  0
 11 12  4  0  0  0  0
 11 27  1  0  0  0  0
 12 13  4  0  0  0  0
 12 28  1  0  0  0  0
 13 14  4  0  0  0  0
 13 16  1  0  0  0  0
 14 15  4  0  0  0  0
 14 29  1  0  0  0  0
 15 30  1  0  0  0  0
 16 17  1  0  0  0  0
 17 31  1  0  0  0  0
 17 32  1  0  0  0  0
 17 33  1  0  0  0  0
 18 19  1  0  0  0  0
 18 34  1  0  0  0  0
 19 20  1  0  0  0  0
 19 23  1  0  0  0  0
 19 35  1  0  0  0  0
 20 21  1  0  0  0  0
 20 36  1  0  0  0  0
 20 37  1  0  0  0  0
 21 22  1  0  0  0  0
 21 24  1  0  0  0  0
 21 38  1  0  0  0  0
 22 23  1  0  0  0  0
 22 39  1  0  0  0  0
 22 40  1  0  0  0  0
 23 41  1  0  0  0  0
 23 42  1  0  0  0  0
 24 43  1  0  0  0  0
 24 44  1  0  0  0  0
M  END
> <ConfClashScore>
0 

> <ConfOneFourInteractionScore>
-0.980204 

> <ConfScore>
0.0618957 

> <ConfScorePBest>
0.00188723 

> <ConfTolerance>
0.293116 

$$$$
c13.sdf
 OpenBabel04162418043D

 44 47  0  0  0  0  0  0  0  0999 V2000
    5.9029    1.9941   -3.2229 N   0  0  0  1  0  0  0  0  0  0  0  0
    4.5999    1.9602   -3.4451 C   0  0  0  1  0  0  0  0  0  0  0  0
    4.0727    2.2951   -4.6005 N   0  0  0  1  0  0  0  0  0  0  0  0
    4.8534    2.6891   -5.6098 C   0  0  0  1  0  0  0  0  0  0  0  0
    6.2493    2.7373   -5.4083 C   0  0  0  1  0  0  0  0  0  0  0  0
    6.7518    2.3711   -4.1632 C   0  0  0  1  0  0  0  0  0  0  0  0
    4.6184    3.1046   -6.9387 C   0  0  0  1  0  0  0  0  0  0  0  0
    5.7615    3.3813   -7.4992 N   0  0  0  1  0  0  0  0  0  0  0  0
    6.8015    3.1674   -6.5851 N   0  0  0  1  0  0  0  0  0  0  0  0
    8.1569    3.3994   -6.9554 C   0  0  0  1  0  0  0  0  0  0  0  0
    8.8230    4.5133   -6.4805 C   0  0  0  1  0  0  0  0  0  0  0  0
   10.1125    4.7851   -6.9103 C   0  0  0  1  0  0  0  0  0  0  0  0
   10.7302    3.9453   -7.8177 C   0  0  0  1  0  0  0  0  0  0  0  0
   10.0619    2.8280   -8.2939 C   0  0  0  1  0  0  0  0  0  0  0  0
    8.7761    2.5569   -7.8654 C   0  0  0  1  0  0  0  0  0  0  0  0
   11.9801    4.1106   -8.3119 O   0  0  0  1  0  0  0  0  0  0  0  0
   12.7067    5.2728   -7.8832 C   0  0  0  1  0  0  0  0  0  0  0  0
    3.8588    1.5551   -2.3917 N   0  0  0  1  0  0  0  0  0  0  0  0
    4.4275    1.0411   -1.1415 C   0  0  0  1  0  0  0  0  0  0  0  0
    5.2636   -0.2076   -1.4028 C   0  0  0  1  0  0  0  0  0  0  0  0
    6.5346   -0.0959   -0.5519 C   0  0  0  1  0  0  0  0  0  0  0  0
    6.8419    1.4377   -0.6184 C   0  0  0  1  0  0  0  0  0  0  0  0
    5.4406    2.0699   -0.5291 C   0  0  0  1  0  0  0  0  0  0  0  0
    6.2864   -0.5382    0.8529 N   0  0  0  1  0  0  0  0  0  0  0  0
    7.7746    2.3936   -3.9764 H   0  0  0  1  0  0  0  0  0  0  0  0
    3.6866    3.1777   -7.3948 H   0  0  0  1  0  0  0  0  0  0  0  0
    8.3568    5.1476   -5.8008 H   0  0  0  1  0  0  0  0  0  0  0  0
   10.6153    5.6212   -6.5499 H   0  0  0  1  0  0  0  0  0  0  0  0
   10.5281    2.1938   -8.9736 H   0  0  0  1  0  0  0  0  0  0  0  0
    8.2733    1.7208   -8.2258 H   0  0  0  1  0  0  0  0  0  0  0  0
   12.0374    6.1040   -7.8054 H   0  0  0  1  0  0  0  0  0  0  0  0
   13.4724    5.4974   -8.5961 H   0  0  0  1  0  0  0  0  0  0  0  0
   13.1518    5.0830   -6.9289 H   0  0  0  1  0  0  0  0  0  0  0  0
    2.8831    1.6076   -2.4670 H   0  0  0  1  0  0  0  0  0  0  0  0
    3.6384    0.8301   -0.4503 H   0  0  0  1  0  0  0  0  0  0  0  0
    4.7126   -1.0814   -1.1237 H   0  0  0  1  0  0  0  0  0  0  0  0
    5.5217   -0.2643   -2.4396 H   0  0  0  1  0  0  0  0  0  0  0  0
    7.3340   -0.6704   -0.9713 H   0  0  0  1  0  0  0  0  0  0  0  0
    7.4558    1.7437    0.2028 H   0  0  0  1  0  0  0  0  0  0  0  0
    7.3227    1.6949   -1.5390 H   0  0  0  1  0  0  0  0  0  0  0  0
    5.4150    2.9842   -1.0843 H   0  0  0  1  0  0  0  0  0  0  0  0
    5.1914    2.2656    0.4930 H   0  0  0  1  0  0  0  0  0  0  0  0
    5.9124   -1.4440    0.8495 H   0  0  0  1  0  0  0  0  0  0  0  0
    5.6531    0.0749    1.2811 H   0  0  0  1  0  0  0  0  0  0  0  0
  1  2  4  0  0  0  0
  1  6  4  0  0  0  0
  2  3  4  0  0  0  0
  2 18  1  0  0  0  0
  3  4  4  0  0  0  0
  4  5  4  0  0  0  0
  4  7  4  0  0  0  0
  5  6  4  0  0  0  0
  5  9  4  0  0  0  0
  6 25  1  0  0  0  0
  7  8  4  0  0  0  0
  7 26  1  0  0  0  0
  8  9  4  0  0  0  0
  9 10  1  0  0  0  0
 10 11  4  0  0  0  0
 10 15  4  0  0  0  0
 11 12  4  0  0  0  0
 11 27  1  0  0  0  0
 12 13  4  0  0  0  0
 12 28  1  0  0  0  0
 13 14  4  0  0  0  0
 13 16  1  0  0  0  0
 14 15  4  0  0  0  0
 14 29  1  0  0  0  0
 15 30  1  0  0  0  0
 16 17  1  0  0  0  0
 17 31  1  0  0  0  0
 17 32  1  0  0  0  0
 17 33  1  0  0  0  0
 18 19  1  0  0  0  0
 18 34  1  0  0  0  0
 19 20  1  0  0  0  0
 19 23  1  0  0  0  0
 19 35  1  0  0  0  0
 20 21  1  0  0  0  0
 20 36  1  0  0  0  0
 20 37  1  0  0  0  0
 21 22  1  0  0  0  0
 21 24  1  0  0  0  0
 21 38  1  0  0  0  0
 22 23  1  0  0  0  0
 22 39  1  0  0  0  0
 22 40  1  0  0  0  0
 23 41  1  0  0  0  0
 23 42  1  0  0  0  0
 24 43  1  0  0  0  0
 24 44  1  0  0  0  0
M  END
> <ConfClashScore>
0 

> <ConfOneFourInteractionScore>
-0.980204 

> <ConfScore>
0.0630305 

> <ConfScorePBest>
0.0018739 

> <ConfTolerance>
0.385935 

$$$$
c13.sdf
 OpenBabel04162418043D

 44 47  0  0  0  0  0  0  0  0999 V2000
    3.8279    2.5331   -4.4116 N   0  0  0  1  0  0  0  0  0  0  0  0
    4.5154    2.0282   -3.4013 C   0  0  0  1  0  0  0  0  0  0  0  0
    5.8234    1.9116   -3.4268 N   0  0  0  1  0  0  0  0  0  0  0  0
    6.5155    2.3080   -4.4979 C   0  0  0  1  0  0  0  0  0  0  0  0
    5.8144    2.8519   -5.5951 C   0  0  0  1  0  0  0  0  0  0  0  0
    4.4286    2.9513   -5.5120 C   0  0  0  1  0  0  0  0  0  0  0  0
    7.8852    2.3228   -4.8411 C   0  0  0  1  0  0  0  0  0  0  0  0
    8.0121    2.8279   -6.0353 N   0  0  0  1  0  0  0  0  0  0  0  0
    6.7513    3.1703   -6.5413 N   0  0  0  1  0  0  0  0  0  0  0  0
    6.6175    3.7443   -7.8360 C   0  0  0  1  0  0  0  0  0  0  0  0
    5.8259    4.8525   -8.0711 C   0  0  0  1  0  0  0  0  0  0  0  0
    5.8068    5.4363   -9.3281 C   0  0  0  1  0  0  0  0  0  0  0  0
    6.5751    4.9071  -10.3479 C   0  0  0  1  0  0  0  0  0  0  0  0
    7.3691    3.7956  -10.1119 C   0  0  0  1  0  0  0  0  0  0  0  0
    7.3883    3.2133   -8.8585 C   0  0  0  1  0  0  0  0  0  0  0  0
    6.4920    5.3585  -11.6219 O   0  0  0  1  0  0  0  0  0  0  0  0
    7.1254    4.5687  -12.6405 C   0  0  0  1  0  0  0  0  0  0  0  0
    3.8516    1.6183   -2.3055 N   0  0  0  1  0  0  0  0  0  0  0  0
    4.4429    1.0454   -1.0930 C   0  0  0  1  0  0  0  0  0  0  0  0
    5.2818   -0.1853   -1.4449 C   0  0  0  1  0  0  0  0  0  0  0  0
    6.5508   -0.0765   -0.5960 C   0  0  0  1  0  0  0  0  0  0  0  0
    6.7940    1.4326   -0.5759 C   0  0  0  1  0  0  0  0  0  0  0  0
    5.3991    2.0534   -0.4429 C   0  0  0  1  0  0  0  0  0  0  0  0
    6.3360   -0.5894    0.7336 N   0  0  0  1  0  0  0  0  0  0  0  0
    3.8770    3.3466   -6.3001 H   0  0  0  1  0  0  0  0  0  0  0  0
    8.6641    1.9862   -4.2398 H   0  0  0  1  0  0  0  0  0  0  0  0
    5.2446    5.2484   -7.3049 H   0  0  0  1  0  0  0  0  0  0  0  0
    5.2141    6.2727   -9.5040 H   0  0  0  1  0  0  0  0  0  0  0  0
    7.9504    3.3997  -10.8780 H   0  0  0  1  0  0  0  0  0  0  0  0
    7.9809    2.3770   -8.6826 H   0  0  0  1  0  0  0  0  0  0  0  0
    6.9552    5.0166  -13.5972 H   0  0  0  1  0  0  0  0  0  0  0  0
    6.7153    3.5804  -12.6317 H   0  0  0  1  0  0  0  0  0  0  0  0
    8.1774    4.5206  -12.4516 H   0  0  0  1  0  0  0  0  0  0  0  0
    2.8762    1.7119   -2.3192 H   0  0  0  1  0  0  0  0  0  0  0  0
    3.6654    0.7789   -0.4080 H   0  0  0  1  0  0  0  0  0  0  0  0
    5.5282   -0.1837   -2.4862 H   0  0  0  1  0  0  0  0  0  0  0  0
    4.7484   -1.0814   -1.2055 H   0  0  0  1  0  0  0  0  0  0  0  0
    7.3682   -0.5955   -1.0513 H   0  0  0  1  0  0  0  0  0  0  0  0
    7.4080    1.7041    0.2574 H   0  0  0  1  0  0  0  0  0  0  0  0
    7.2628    1.7507   -1.4836 H   0  0  0  1  0  0  0  0  0  0  0  0
    5.1491    2.1957    0.5877 H   0  0  0  1  0  0  0  0  0  0  0  0
    5.3569    2.9927   -0.9536 H   0  0  0  1  0  0  0  0  0  0  0  0
    5.9277   -1.4786    0.6792 H   0  0  0  1  0  0  0  0  0  0  0  0
    5.7397    0.0142    1.2239 H   0  0  0  1  0  0  0  0  0  0  0  0
  1  2  4  0  0  0  0
  1  6  4  0  0  0  0
  2  3  4  0  0  0  0
  2 18  1  0  0  0  0
  3  4  4  0  0  0  0
  4  5  4  0  0  0  0
  4  7  4  0  0  0  0
  5  6  4  0  0  0  0
  5  9  4  0  0  0  0
  6 25  1  0  0  0  0
  7  8  4  0  0  0  0
  7 26  1  0  0  0  0
  8  9  4  0  0  0  0
  9 10  1  0  0  0  0
 10 11  4  0  0  0  0
 10 15  4  0  0  0  0
 11 12  4  0  0  0  0
 11 27  1  0  0  0  0
 12 13  4  0  0  0  0
 12 28  1  0  0  0  0
 13 14  4  0  0  0  0
 13 16  1  0  0  0  0
 14 15  4  0  0  0  0
 14 29  1  0  0  0  0
 15 30  1  0  0  0  0
 16 17  1  0  0  0  0
 17 31  1  0  0  0  0
 17 32  1  0  0  0  0
 17 33  1  0  0  0  0
 18 19  1  0  0  0  0
 18 34  1  0  0  0  0
 19 20  1  0  0  0  0
 19 23  1  0  0  0  0
 19 35  1  0  0  0  0
 20 21  1  0  0  0  0
 20 36  1  0  0  0  0
 20 37  1  0  0  0  0
 21 22  1  0  0  0  0
 21 24  1  0  0  0  0
 21 38  1  0  0  0  0
 22 23  1  0  0  0  0
 22 39  1  0  0  0  0
 22 40  1  0  0  0  0
 23 41  1  0  0  0  0
 23 42  1  0  0  0  0
 24 43  1  0  0  0  0
 24 44  1  0  0  0  0
M  END
> <ConfClashScore>
0 

> <ConfOneFourInteractionScore>
-0.980204 

> <ConfScore>
0.0636507 

> <ConfScorePBest>
0.00186057 

> <ConfTolerance>
0.320023 

$$$$
c13.sdf
 OpenBabel04162418043D

 44 47  0  0  0  0  0  0  0  0999 V2000
    5.3118    2.3449   -5.0396 N   0  0  0  1  0  0  0  0  0  0  0  0
    4.9752    2.4092   -3.7625 C   0  0  0  1  0  0  0  0  0  0  0  0
    4.7308    3.5472   -3.1542 N   0  0  0  1  0  0  0  0  0  0  0  0
    4.8163    4.7010   -3.8211 C   0  0  0  1  0  0  0  0  0  0  0  0
    5.1731    4.6703   -5.1861 C   0  0  0  1  0  0  0  0  0  0  0  0
    5.4207    3.4354   -5.7783 C   0  0  0  1  0  0  0  0  0  0  0  0
    4.6247    6.0578   -3.4799 C   0  0  0  1  0  0  0  0  0  0  0  0
    4.8431    6.7897   -4.5354 N   0  0  0  1  0  0  0  0  0  0  0  0
    5.1865    5.9695   -5.6180 N   0  0  0  1  0  0  0  0  0  0  0  0
    5.4725    6.5246   -6.8817 C   0  0  0  1  0  0  0  0  0  0  0  0
    5.3915    5.7889   -8.0489 C   0  0  0  1  0  0  0  0  0  0  0  0
    5.6787    6.3867   -9.2661 C   0  0  0  1  0  0  0  0  0  0  0  0
    6.0514    7.7169   -9.3121 C   0  0  0  1  0  0  0  0  0  0  0  0
    6.1327    8.4546   -8.1413 C   0  0  0  1  0  0  0  0  0  0  0  0
    5.8462    7.8587   -6.9276 C   0  0  0  1  0  0  0  0  0  0  0  0
    6.3371    8.2994  -10.5008 O   0  0  0  1  0  0  0  0  0  0  0  0
    6.7137    9.6851  -10.4788 C   0  0  0  1  0  0  0  0  0  0  0  0
    4.8793    1.2668   -3.0587 N   0  0  0  1  0  0  0  0  0  0  0  0
    4.5527    1.2114   -1.6143 C   0  0  0  1  0  0  0  0  0  0  0  0
    4.8622   -0.2113   -1.0473 C   0  0  0  1  0  0  0  0  0  0  0  0
    6.3627   -0.0441   -0.6006 C   0  0  0  1  0  0  0  0  0  0  0  0
    6.3609    1.3483    0.0153 C   0  0  0  1  0  0  0  0  0  0  0  0
    5.4287    2.1972   -0.8383 C   0  0  0  1  0  0  0  0  0  0  0  0
    6.7441   -1.0719    0.3961 N   0  0  0  1  0  0  0  0  0  0  0  0
    5.6861    3.3721   -6.7818 H   0  0  0  1  0  0  0  0  0  0  0  0
    4.3539    6.4140   -2.5411 H   0  0  0  1  0  0  0  0  0  0  0  0
    5.1150    4.7870   -8.0140 H   0  0  0  1  0  0  0  0  0  0  0  0
    5.6139    5.8342  -10.1448 H   0  0  0  1  0  0  0  0  0  0  0  0
    6.4092    9.4566   -8.1762 H   0  0  0  1  0  0  0  0  0  0  0  0
    5.9111    8.4111   -6.0488 H   0  0  0  1  0  0  0  0  0  0  0  0
    7.7229    9.7755  -10.1348 H   0  0  0  1  0  0  0  0  0  0  0  0
    6.0631   10.2208   -9.8195 H   0  0  0  1  0  0  0  0  0  0  0  0
    6.6358   10.0913  -11.4656 H   0  0  0  1  0  0  0  0  0  0  0  0
    5.0346    0.4212   -3.5290 H   0  0  0  1  0  0  0  0  0  0  0  0
    3.5187    1.4473   -1.4727 H   0  0  0  1  0  0  0  0  0  0  0  0
    4.2303   -0.4481   -0.2170 H   0  0  0  1  0  0  0  0  0  0  0  0
    4.7593   -0.9642   -1.8006 H   0  0  0  1  0  0  0  0  0  0  0  0
    7.0252   -0.0965   -1.4392 H   0  0  0  1  0  0  0  0  0  0  0  0
    6.0035    1.3062    1.0230 H   0  0  0  1  0  0  0  0  0  0  0  0
    7.3490    1.7588    0.0037 H   0  0  0  1  0  0  0  0  0  0  0  0
    4.8229    2.8233   -0.2170 H   0  0  0  1  0  0  0  0  0  0  0  0
    5.9936    2.8043   -1.5144 H   0  0  0  1  0  0  0  0  0  0  0  0
    6.2194   -0.9450    1.2140 H   0  0  0  1  0  0  0  0  0  0  0  0
    7.6981   -0.9869    0.6038 H   0  0  0  1  0  0  0  0  0  0  0  0
  1  2  4  0  0  0  0
  1  6  4  0  0  0  0
  2  3  4  0  0  0  0
  2 18  1  0  0  0  0
  3  4  4  0  0  0  0
  4  5  4  0  0  0  0
  4  7  4  0  0  0  0
  5  6  4  0  0  0  0
  5  9  4  0  0  0  0
  6 25  1  0  0  0  0
  7  8  4  0  0  0  0
  7 26  1  0  0  0  0
  8  9  4  0  0  0  0
  9 10  1  0  0  0  0
 10 11  4  0  0  0  0
 10 15  4  0  0  0  0
 11 12  4  0  0  0  0
 11 27  1  0  0  0  0
 12 13  4  0  0  0  0
 12 28  1  0  0  0  0
 13 14  4  0  0  0  0
 13 16  1  0  0  0  0
 14 15  4  0  0  0  0
 14 29  1  0  0  0  0
 15 30  1  0  0  0  0
 16 17  1  0  0  0  0
 17 31  1  0  0  0  0
 17 32  1  0  0  0  0
 17 33  1  0  0  0  0
 18 19  1  0  0  0  0
 18 34  1  0  0  0  0
 19 20  1  0  0  0  0
 19 23  1  0  0  0  0
 19 35  1  0  0  0  0
 20 21  1  0  0  0  0
 20 36  1  0  0  0  0
 20 37  1  0  0  0  0
 21 22  1  0  0  0  0
 21 24  1  0  0  0  0
 21 38  1  0  0  0  0
 22 23  1  0  0  0  0
 22 39  1  0  0  0  0
 22 40  1  0  0  0  0
 23 41  1  0  0  0  0
 23 42  1  0  0  0  0
 24 43  1  0  0  0  0
 24 44  1  0  0  0  0
M  END
> <ConfClashScore>
0 

> <ConfOneFourInteractionScore>
-0.985399 

> <ConfScore>
0.0639523 

> <ConfScorePBest>
0.00184724 

> <ConfTolerance>
0.682188 

$$$$
c13.sdf
 OpenBabel04162418043D

 44 47  0  0  0  0  0  0  0  0999 V2000
    6.0497    1.7131   -3.4231 N   0  0  0  1  0  0  0  0  0  0  0  0
    4.7456    1.8758   -3.5682 C   0  0  0  1  0  0  0  0  0  0  0  0
    4.2078    2.2952   -4.6907 N   0  0  0  1  0  0  0  0  0  0  0  0
    4.9785    2.5770   -5.7443 C   0  0  0  1  0  0  0  0  0  0  0  0
    6.3753    2.4148   -5.6254 C   0  0  0  1  0  0  0  0  0  0  0  0
    6.8891    1.9673   -4.4119 C   0  0  0  1  0  0  0  0  0  0  0  0
    4.7312    3.0342   -7.0573 C   0  0  0  1  0  0  0  0  0  0  0  0
    5.8682    3.1421   -7.6841 N   0  0  0  1  0  0  0  0  0  0  0  0
    6.9160    2.7678   -6.8327 N   0  0  0  1  0  0  0  0  0  0  0  0
    8.2228    2.6636   -7.3506 C   0  0  0  1  0  0  0  0  0  0  0  0
    8.5294    1.5395   -8.0939 C   0  0  0  1  0  0  0  0  0  0  0  0
    9.7983    1.3890   -8.6312 C   0  0  0  1  0  0  0  0  0  0  0  0
   10.7585    2.3603   -8.4193 C   0  0  0  1  0  0  0  0  0  0  0  0
   10.4508    3.4877   -7.6737 C   0  0  0  1  0  0  0  0  0  0  0  0
    9.1856    3.6380   -7.1379 C   0  0  0  1  0  0  0  0  0  0  0  0
   12.0104    2.2720   -8.9090 O   0  0  0  1  0  0  0  0  0  0  0  0
   12.2757    1.0916   -9.7020 C   0  0  0  1  0  0  0  0  0  0  0  0
    3.9350    1.6007   -2.5240 N   0  0  0  1  0  0  0  0  0  0  0  0
    4.4049    1.0622   -1.2449 C   0  0  0  1  0  0  0  0  0  0  0  0
    5.2789   -0.1719   -1.4803 C   0  0  0  1  0  0  0  0  0  0  0  0
    6.4569   -0.0341   -0.5128 C   0  0  0  1  0  0  0  0  0  0  0  0
    6.6917    1.4765   -0.5073 C   0  0  0  1  0  0  0  0  0  0  0  0
    5.2882    2.0920   -0.5292 C   0  0  0  1  0  0  0  0  0  0  0  0
    6.1001   -0.5328    0.8510 N   0  0  0  1  0  0  0  0  0  0  0  0
    7.9130    1.8355   -4.2856 H   0  0  0  1  0  0  0  0  0  0  0  0
    3.7958    3.2492   -7.4578 H   0  0  0  1  0  0  0  0  0  0  0  0
    7.8082    0.8067   -8.2501 H   0  0  0  1  0  0  0  0  0  0  0  0
   10.0279    0.5450   -9.1939 H   0  0  0  1  0  0  0  0  0  0  0  0
   11.1720    4.2206   -7.5175 H   0  0  0  1  0  0  0  0  0  0  0  0
    8.9560    4.4819   -6.5752 H   0  0  0  1  0  0  0  0  0  0  0  0
   12.1799    0.2202   -9.0885 H   0  0  0  1  0  0  0  0  0  0  0  0
   13.2692    1.1428  -10.0959 H   0  0  0  1  0  0  0  0  0  0  0  0
   11.5741    1.0388  -10.5082 H   0  0  0  1  0  0  0  0  0  0  0  0
    2.9755    1.7713   -2.6278 H   0  0  0  1  0  0  0  0  0  0  0  0
    3.5641    0.8084   -0.6338 H   0  0  0  1  0  0  0  0  0  0  0  0
    4.7275   -1.0649   -1.2721 H   0  0  0  1  0  0  0  0  0  0  0  0
    5.6274   -0.1950   -2.4917 H   0  0  0  1  0  0  0  0  0  0  0  0
    7.3174   -0.5595   -0.8714 H   0  0  0  1  0  0  0  0  0  0  0  0
    7.2189    1.7725    0.3755 H   0  0  0  1  0  0  0  0  0  0  0  0
    7.2471    1.7745   -1.3719 H   0  0  0  1  0  0  0  0  0  0  0  0
    4.9367    2.2586    0.4675 H   0  0  0  1  0  0  0  0  0  0  0  0
    5.2937    3.0179   -1.0655 H   0  0  0  1  0  0  0  0  0  0  0  0
    6.8701   -0.4303    1.4486 H   0  0  0  1  0  0  0  0  0  0  0  0
    5.8519   -1.4793    0.7979 H   0  0  0  1  0  0  0  0  0  0  0  0
  1  2  4  0  0  0  0
  1  6  4  0  0  0  0
  2  3  4  0  0  0  0
  2 18  1  0  0  0  0
  3  4  4  0  0  0  0
  4  5  4  0  0  0  0
  4  7  4  0  0  0  0
  5  6  4  0  0  0  0
  5  9  4  0  0  0  0
  6 25  1  0  0  0  0
  7  8  4  0  0  0  0
  7 26  1  0  0  0  0
  8  9  4  0  0  0  0
  9 10  1  0  0  0  0
 10 11  4  0  0  0  0
 10 15  4  0  0  0  0
 11 12  4  0  0  0  0
 11 27  1  0  0  0  0
 12 13  4  0  0  0  0
 12 28  1  0  0  0  0
 13 14  4  0  0  0  0
 13 16  1  0  0  0  0
 14 15  4  0  0  0  0
 14 29  1  0  0  0  0
 15 30  1  0  0  0  0
 16 17  1  0  0  0  0
 17 31  1  0  0  0  0
 17 32  1  0  0  0  0
 17 33  1  0  0  0  0
 18 19  1  0  0  0  0
 18 34  1  0  0  0  0
 19 20  1  0  0  0  0
 19 23  1  0  0  0  0
 19 35  1  0  0  0  0
 20 21  1  0  0  0  0
 20 36  1  0  0  0  0
 20 37  1  0  0  0  0
 21 22  1  0  0  0  0
 21 24  1  0  0  0  0
 21 38  1  0  0  0  0
 22 23  1  0  0  0  0
 22 39  1  0  0  0  0
 22 40  1  0  0  0  0
 23 41  1  0  0  0  0
 23 42  1  0  0  0  0
 24 43  1  0  0  0  0
 24 44  1  0  0  0  0
M  END
> <ConfClashScore>
0 

> <ConfOneFourInteractionScore>
-0.985973 

> <ConfScore>
0.0642735 

> <ConfScorePBest>
0.00183391 

> <ConfTolerance>
0.347045 

$$$$
c13.sdf
 OpenBabel04162418043D

 44 47  0  0  0  0  0  0  0  0999 V2000
    5.2792    1.7466   -3.7101 N   0  0  0  1  0  0  0  0  0  0  0  0
    3.9818    1.8258   -3.4673 C   0  0  0  1  0  0  0  0  0  0  0  0
    3.1176    2.2207   -4.3741 N   0  0  0  1  0  0  0  0  0  0  0  0
    3.5312    2.5624   -5.5970 C   0  0  0  1  0  0  0  0  0  0  0  0
    4.9094    2.4900   -5.8916 C   0  0  0  1  0  0  0  0  0  0  0  0
    5.7788    2.0646   -4.8916 C   0  0  0  1  0  0  0  0  0  0  0  0
    2.8868    3.0158   -6.7689 C   0  0  0  1  0  0  0  0  0  0  0  0
    3.7844    3.2035   -7.6943 N   0  0  0  1  0  0  0  0  0  0  0  0
    5.0545    2.8894   -7.1931 N   0  0  0  1  0  0  0  0  0  0  0  0
    6.2077    2.8803   -8.0286 C   0  0  0  1  0  0  0  0  0  0  0  0
    7.4692    2.8491   -7.4648 C   0  0  0  1  0  0  0  0  0  0  0  0
    8.5915    2.8349   -8.2782 C   0  0  0  1  0  0  0  0  0  0  0  0
    8.4494    2.8574   -9.6528 C   0  0  0  1  0  0  0  0  0  0  0  0
    7.1840    2.8886  -10.2181 C   0  0  0  1  0  0  0  0  0  0  0  0
    6.0649    2.9028   -9.4072 C   0  0  0  1  0  0  0  0  0  0  0  0
    9.6007    2.8461  -10.3344 O   0  0  0  1  0  0  0  0  0  0  0  0
   10.8736    2.4995   -9.6921 C   0  0  0  1  0  0  0  0  0  0  0  0
    3.5286    1.4895   -2.2462 N   0  0  0  1  0  0  0  0  0  0  0  0
    4.3883    1.0586   -1.1508 C   0  0  0  1  0  0  0  0  0  0  0  0
    5.2605   -0.1713   -1.5750 C   0  0  0  1  0  0  0  0  0  0  0  0
    6.4771   -0.0977   -0.5919 C   0  0  0  1  0  0  0  0  0  0  0  0
    6.6316    1.3987   -0.1993 C   0  0  0  1  0  0  0  0  0  0  0  0
    5.4305    2.1414   -0.8108 C   0  0  0  1  0  0  0  0  0  0  0  0
    6.2101   -0.9297    0.6280 N   0  0  0  1  0  0  0  0  0  0  0  0
    6.8012    1.9983   -5.0704 H   0  0  0  1  0  0  0  0  0  0  0  0
    1.8644    3.1737   -6.8757 H   0  0  0  1  0  0  0  0  0  0  0  0
    7.5763    2.8363   -6.4304 H   0  0  0  1  0  0  0  0  0  0  0  0
    9.5407    2.8074   -7.8540 H   0  0  0  1  0  0  0  0  0  0  0  0
    7.0769    2.9015  -11.2525 H   0  0  0  1  0  0  0  0  0  0  0  0
    5.1157    2.9304   -9.8313 H   0  0  0  1  0  0  0  0  0  0  0  0
   11.4534    1.8906  -10.3539 H   0  0  0  1  0  0  0  0  0  0  0  0
   10.6814    1.9602   -8.7881 H   0  0  0  1  0  0  0  0  0  0  0  0
   11.4141    3.3947   -9.4659 H   0  0  0  1  0  0  0  0  0  0  0  0
    2.5634    1.5370   -2.0835 H   0  0  0  1  0  0  0  0  0  0  0  0
    3.7880    0.8246   -0.2965 H   0  0  0  1  0  0  0  0  0  0  0  0
    5.5821   -0.0819   -2.5916 H   0  0  0  1  0  0  0  0  0  0  0  0
    4.7206   -1.0866   -1.4503 H   0  0  0  1  0  0  0  0  0  0  0  0
    7.3654   -0.4473   -1.0752 H   0  0  0  1  0  0  0  0  0  0  0  0
    6.6265    1.5031    0.8656 H   0  0  0  1  0  0  0  0  0  0  0  0
    7.5464    1.7906   -0.5922 H   0  0  0  1  0  0  0  0  0  0  0  0
    5.0263    2.8377   -0.1060 H   0  0  0  1  0  0  0  0  0  0  0  0
    5.7278    2.6621   -1.6970 H   0  0  0  1  0  0  0  0  0  0  0  0
    5.4816   -0.5272    1.1454 H   0  0  0  1  0  0  0  0  0  0  0  0
    7.0191   -0.9693    1.1796 H   0  0  0  1  0  0  0  0  0  0  0  0
  1  2  4  0  0  0  0
  1  6  4  0  0  0  0
  2  3  4  0  0  0  0
  2 18  1  0  0  0  0
  3  4  4  0  0  0  0
  4  5  4  0  0  0  0
  4  7  4  0  0  0  0
  5  6  4  0  0  0  0
  5  9  4  0  0  0  0
  6 25  1  0  0  0  0
  7  8  4  0  0  0  0
  7 26  1  0  0  0  0
  8  9  4  0  0  0  0
  9 10  1  0  0  0  0
 10 11  4  0  0  0  0
 10 15  4  0  0  0  0
 11 12  4  0  0  0  0
 11 27  1  0  0  0  0
 12 13  4  0  0  0  0
 12 28  1  0  0  0  0
 13 14  4  0  0  0  0
 13 16  1  0  0  0  0
 14 15  4  0  0  0  0
 14 29  1  0  0  0  0
 15 30  1  0  0  0  0
 16 17  1  0  0  0  0
 17 31  1  0  0  0  0
 17 32  1  0  0  0  0
 17 33  1  0  0  0  0
 18 19  1  0  0  0  0
 18 34  1  0  0  0  0
 19 20  1  0  0  0  0
 19 23  1  0  0  0  0
 19 35  1  0  0  0  0
 20 21  1  0  0  0  0
 20 36  1  0  0  0  0
 20 37  1  0  0  0  0
 21 22  1  0  0  0  0
 21 24  1  0  0  0  0
 21 38  1  0  0  0  0
 22 23  1  0  0  0  0
 22 39  1  0  0  0  0
 22 40  1  0  0  0  0
 23 41  1  0  0  0  0
 23 42  1  0  0  0  0
 24 43  1  0  0  0  0
 24 44  1  0  0  0  0
M  END
> <ConfClashScore>
0 

> <ConfOneFourInteractionScore>
-0.980204 

> <ConfScore>
0.0646713 

> <ConfScorePBest>
0.00182058 

> <ConfTolerance>
0.364358 

$$$$
c13.sdf
 OpenBabel04162418043D

 44 47  0  0  0  0  0  0  0  0999 V2000
    7.0416    1.5759   -2.8904 N   0  0  0  1  0  0  0  0  0  0  0  0
    5.9532    1.3671   -3.6115 C   0  0  0  1  0  0  0  0  0  0  0  0
    5.9773    1.3064   -4.9233 N   0  0  0  1  0  0  0  0  0  0  0  0
    7.1276    1.4570   -5.5848 C   0  0  0  1  0  0  0  0  0  0  0  0
    8.3096    1.6814   -4.8473 C   0  0  0  1  0  0  0  0  0  0  0  0
    8.2238    1.7361   -3.4592 C   0  0  0  1  0  0  0  0  0  0  0  0
    7.4933    1.4481   -6.9487 C   0  0  0  1  0  0  0  0  0  0  0  0
    8.7775    1.6480   -7.0391 N   0  0  0  1  0  0  0  0  0  0  0  0
    9.3250    1.7983   -5.7582 N   0  0  0  1  0  0  0  0  0  0  0  0
   10.7194    1.9277   -5.5977 C   0  0  0  1  0  0  0  0  0  0  0  0
   11.2829    2.8527   -4.7393 C   0  0  0  1  0  0  0  0  0  0  0  0
   12.6612    2.9338   -4.6159 C   0  0  0  1  0  0  0  0  0  0  0  0
   13.4720    2.0933   -5.3551 C   0  0  0  1  0  0  0  0  0  0  0  0
   12.9066    1.1656   -6.2161 C   0  0  0  1  0  0  0  0  0  0  0  0
   11.5324    1.0847   -6.3392 C   0  0  0  1  0  0  0  0  0  0  0  0
   14.8154    2.1759   -5.2387 O   0  0  0  1  0  0  0  0  0  0  0  0
   15.3903    3.1071   -4.3011 C   0  0  0  1  0  0  0  0  0  0  0  0
    4.7762    1.2109   -2.9792 N   0  0  0  1  0  0  0  0  0  0  0  0
    4.5053    1.1870   -1.5474 C   0  0  0  1  0  0  0  0  0  0  0  0
    4.9002   -0.1773   -0.9503 C   0  0  0  1  0  0  0  0  0  0  0  0
    6.3419    0.0585   -0.5082 C   0  0  0  1  0  0  0  0  0  0  0  0
    6.3696    1.4688    0.0545 C   0  0  0  1  0  0  0  0  0  0  0  0
    5.3608    2.2195   -0.8302 C   0  0  0  1  0  0  0  0  0  0  0  0
    6.7284   -0.9157    0.5265 N   0  0  0  1  0  0  0  0  0  0  0  0
    9.0728    1.8998   -2.8813 H   0  0  0  1  0  0  0  0  0  0  0  0
    6.8445    1.3055   -7.7490 H   0  0  0  1  0  0  0  0  0  0  0  0
   10.6730    3.4879   -4.1860 H   0  0  0  1  0  0  0  0  0  0  0  0
   13.0852    3.6271   -3.9669 H   0  0  0  1  0  0  0  0  0  0  0  0
   13.5165    0.5304   -6.7694 H   0  0  0  1  0  0  0  0  0  0  0  0
   11.1083    0.3914   -6.9881 H   0  0  0  1  0  0  0  0  0  0  0  0
   15.6197    4.0237   -4.8031 H   0  0  0  1  0  0  0  0  0  0  0  0
   16.2868    2.6916   -3.8905 H   0  0  0  1  0  0  0  0  0  0  0  0
   14.6914    3.2972   -3.5135 H   0  0  0  1  0  0  0  0  0  0  0  0
    3.9950    1.0979   -3.5600 H   0  0  0  1  0  0  0  0  0  0  0  0
    3.4670    1.3810   -1.3770 H   0  0  0  1  0  0  0  0  0  0  0  0
    4.8437   -0.9520   -1.6863 H   0  0  0  1  0  0  0  0  0  0  0  0
    4.2772   -0.4295   -0.1178 H   0  0  0  1  0  0  0  0  0  0  0  0
    7.0068   -0.0239   -1.3425 H   0  0  0  1  0  0  0  0  0  0  0  0
    7.3467    1.8965   -0.0300 H   0  0  0  1  0  0  0  0  0  0  0  0
    6.0628    1.4789    1.0796 H   0  0  0  1  0  0  0  0  0  0  0  0
    5.8822    2.8196   -1.5464 H   0  0  0  1  0  0  0  0  0  0  0  0
    4.7411    2.8458   -0.2231 H   0  0  0  1  0  0  0  0  0  0  0  0
    7.6922   -0.8522    0.6919 H   0  0  0  1  0  0  0  0  0  0  0  0
    6.5084   -1.8206    0.2213 H   0  0  0  1  0  0  0  0  0  0  0  0
  1  2  4  0  0  0  0
  1  6  4  0  0  0  0
  2  3  4  0  0  0  0
  2 18  1  0  0  0  0
  3  4  4  0  0  0  0
  4  5  4  0  0  0  0
  4  7  4  0  0  0  0
  5  6  4  0  0  0  0
  5  9  4  0  0  0  0
  6 25  1  0  0  0  0
  7  8  4  0  0  0  0
  7 26  1  0  0  0  0
  8  9  4  0  0  0  0
  9 10  1  0  0  0  0
 10 11  4  0  0  0  0
 10 15  4  0  0  0  0
 11 12  4  0  0  0  0
 11 27  1  0  0  0  0
 12 13  4  0  0  0  0
 12 28  1  0  0  0  0
 13 14  4  0  0  0  0
 13 16  1  0  0  0  0
 14 15  4  0  0  0  0
 14 29  1  0  0  0  0
 15 30  1  0  0  0  0
 16 17  1  0  0  0  0
 17 31  1  0  0  0  0
 17 32  1  0  0  0  0
 17 33  1  0  0  0  0
 18 19  1  0  0  0  0
 18 34  1  0  0  0  0
 19 20  1  0  0  0  0
 19 23  1  0  0  0  0
 19 35  1  0  0  0  0
 20 21  1  0  0  0  0
 20 36  1  0  0  0  0
 20 37  1  0  0  0  0
 21 22  1  0  0  0  0
 21 24  1  0  0  0  0
 21 38  1  0  0  0  0
 22 23  1  0  0  0  0
 22 39  1  0  0  0  0
 22 40  1  0  0  0  0
 23 41  1  0  0  0  0
 23 42  1  0  0  0  0
 24 43  1  0  0  0  0
 24 44  1  0  0  0  0
M  END
> <ConfClashScore>
0 

> <ConfOneFourInteractionScore>
-0.982693 

> <ConfScore>
0.0648431 

> <ConfScorePBest>
0.00180726 

> <ConfTolerance>
0.401414 

$$$$
c13.sdf
 OpenBabel04162418043D

 44 47  0  0  0  0  0  0  0  0999 V2000
    5.9924    1.6850   -4.8990 N   0  0  0  1  0  0  0  0  0  0  0  0
    5.9769    1.5741   -3.5815 C   0  0  0  1  0  0  0  0  0  0  0  0
    7.0666    1.6619   -2.8536 N   0  0  0  1  0  0  0  0  0  0  0  0
    8.2510    1.8706   -3.4341 C   0  0  0  1  0  0  0  0  0  0  0  0
    8.3052    1.9941   -4.8388 C   0  0  0  1  0  0  0  0  0  0  0  0
    7.1186    1.8925   -5.5589 C   0  0  0  1  0  0  0  0  0  0  0  0
    9.5740    2.0111   -2.9608 C   0  0  0  1  0  0  0  0  0  0  0  0
   10.3645    2.2026   -3.9785 N   0  0  0  1  0  0  0  0  0  0  0  0
    9.6191    2.1994   -5.1648 N   0  0  0  1  0  0  0  0  0  0  0  0
   10.2539    2.3897   -6.4253 C   0  0  0  1  0  0  0  0  0  0  0  0
   10.5985    1.2964   -7.1974 C   0  0  0  1  0  0  0  0  0  0  0  0
   11.2115    1.4818   -8.4267 C   0  0  0  1  0  0  0  0  0  0  0  0
   11.4830    2.7597   -8.8780 C   0  0  0  1  0  0  0  0  0  0  0  0
   11.1373    3.8562   -8.1034 C   0  0  0  1  0  0  0  0  0  0  0  0
   10.5260    3.6714   -6.8777 C   0  0  0  1  0  0  0  0  0  0  0  0
   12.0837    3.0090  -10.0658 O   0  0  0  1  0  0  0  0  0  0  0  0
   12.2903    1.8916  -10.9440 C   0  0  0  1  0  0  0  0  0  0  0  0
    4.7851    1.3651   -3.0110 N   0  0  0  1  0  0  0  0  0  0  0  0
    4.5207    1.2145   -1.5770 C   0  0  0  1  0  0  0  0  0  0  0  0
    4.9373   -0.1806   -1.0984 C   0  0  0  1  0  0  0  0  0  0  0  0
    6.3894   -0.0224   -0.6471 C   0  0  0  1  0  0  0  0  0  0  0  0
    6.3644    1.3453    0.0396 C   0  0  0  1  0  0  0  0  0  0  0  0
    5.3790    2.1943   -0.7670 C   0  0  0  1  0  0  0  0  0  0  0  0
    6.7810   -1.1028    0.3095 N   0  0  0  1  0  0  0  0  0  0  0  0
    7.1180    1.9780   -6.5953 H   0  0  0  1  0  0  0  0  0  0  0  0
    9.8687    1.9687   -1.9643 H   0  0  0  1  0  0  0  0  0  0  0  0
   10.3978    0.3347   -6.8561 H   0  0  0  1  0  0  0  0  0  0  0  0
   11.4672    0.6593   -9.0095 H   0  0  0  1  0  0  0  0  0  0  0  0
   11.3379    4.8179   -8.4447 H   0  0  0  1  0  0  0  0  0  0  0  0
   10.2703    4.4939   -6.2948 H   0  0  0  1  0  0  0  0  0  0  0  0
   12.7411    2.2306  -11.8533 H   0  0  0  1  0  0  0  0  0  0  0  0
   11.3494    1.4314  -11.1626 H   0  0  0  1  0  0  0  0  0  0  0  0
   12.9343    1.1804  -10.4704 H   0  0  0  1  0  0  0  0  0  0  0  0
    4.0124    1.3070   -3.6110 H   0  0  0  1  0  0  0  0  0  0  0  0
    3.4811    1.3810   -1.3861 H   0  0  0  1  0  0  0  0  0  0  0  0
    4.8661   -0.8895   -1.8967 H   0  0  0  1  0  0  0  0  0  0  0  0
    4.3219   -0.4982   -0.2827 H   0  0  0  1  0  0  0  0  0  0  0  0
    7.0580   -0.0253   -1.4825 H   0  0  0  1  0  0  0  0  0  0  0  0
    7.3382    1.7883    0.0244 H   0  0  0  1  0  0  0  0  0  0  0  0
    6.0318    1.2485    1.0520 H   0  0  0  1  0  0  0  0  0  0  0  0
    4.7617    2.7692   -0.1087 H   0  0  0  1  0  0  0  0  0  0  0  0
    5.9094    2.8514   -1.4242 H   0  0  0  1  0  0  0  0  0  0  0  0
    6.1819   -1.0862    1.0848 H   0  0  0  1  0  0  0  0  0  0  0  0
    7.7035   -0.9572    0.6065 H   0  0  0  1  0  0  0  0  0  0  0  0
  1  2  4  0  0  0  0
  1  6  4  0  0  0  0
  2  3  4  0  0  0  0
  2 18  1  0  0  0  0
  3  4  4  0  0  0  0
  4  5  4  0  0  0  0
  4  7  4  0  0  0  0
  5  6  4  0  0  0  0
  5  9  4  0  0  0  0
  6 25  1  0  0  0  0
  7  8  4  0  0  0  0
  7 26  1  0  0  0  0
  8  9  4  0  0  0  0
  9 10  1  0  0  0  0
 10 11  4  0  0  0  0
 10 15  4  0  0  0  0
 11 12  4  0  0  0  0
 11 27  1  0  0  0  0
 12 13  4  0  0  0  0
 12 28  1  0  0  0  0
 13 14  4  0  0  0  0
 13 16  1  0  0  0  0
 14 15  4  0  0  0  0
 14 29  1  0  0  0  0
 15 30  1  0  0  0  0
 16 17  1  0  0  0  0
 17 31  1  0  0  0  0
 17 32  1  0  0  0  0
 17 33  1  0  0  0  0
 18 19  1  0  0  0  0
 18 34  1  0  0  0  0
 19 20  1  0  0  0  0
 19 23  1  0  0  0  0
 19 35  1  0  0  0  0
 20 21  1  0  0  0  0
 20 36  1  0  0  0  0
 20 37  1  0  0  0  0
 21 22  1  0  0  0  0
 21 24  1  0  0  0  0
 21 38  1  0  0  0  0
 22 23  1  0  0  0  0
 22 39  1  0  0  0  0
 22 40  1  0  0  0  0
 23 41  1  0  0  0  0
 23 42  1  0  0  0  0
 24 43  1  0  0  0  0
 24 44  1  0  0  0  0
M  END
> <ConfClashScore>
0 

> <ConfOneFourInteractionScore>
-0.988461 

> <ConfScore>
0.0655665 

> <ConfScorePBest>
0.00179393 

> <ConfTolerance>
0.450107 

$$$$
c13.sdf
 OpenBabel04162418043D

 44 47  0  0  0  0  0  0  0  0999 V2000
    2.8162    1.8225   -4.2254 N   0  0  0  1  0  0  0  0  0  0  0  0
    3.7837    1.6455   -3.3418 C   0  0  0  1  0  0  0  0  0  0  0  0
    5.0547    1.6848   -3.6705 N   0  0  0  1  0  0  0  0  0  0  0  0
    5.4179    1.9096   -4.9358 C   0  0  0  1  0  0  0  0  0  0  0  0
    4.4116    2.1030   -5.9060 C   0  0  0  1  0  0  0  0  0  0  0  0
    3.0814    2.0506   -5.4999 C   0  0  0  1  0  0  0  0  0  0  0  0
    6.6563    2.0117   -5.6066 C   0  0  0  1  0  0  0  0  0  0  0  0
    6.4309    2.2455   -6.8683 N   0  0  0  1  0  0  0  0  0  0  0  0
    5.0505    2.3101   -7.0990 N   0  0  0  1  0  0  0  0  0  0  0  0
    4.5405    2.5567   -8.4056 C   0  0  0  1  0  0  0  0  0  0  0  0
    3.1974    2.8607   -8.5237 C   0  0  0  1  0  0  0  0  0  0  0  0
    2.6318    3.0242   -9.7786 C   0  0  0  1  0  0  0  0  0  0  0  0
    3.4095    2.8780  -10.9118 C   0  0  0  1  0  0  0  0  0  0  0  0
    4.7566    2.5731  -10.7931 C   0  0  0  1  0  0  0  0  0  0  0  0
    5.3207    2.4100   -9.5419 C   0  0  0  1  0  0  0  0  0  0  0  0
    2.7473    3.0555  -12.0796 O   0  0  0  1  0  0  0  0  0  0  0  0
    3.4683    2.7815  -13.2910 C   0  0  0  1  0  0  0  0  0  0  0  0
    3.4555    1.4166   -2.0575 N   0  0  0  1  0  0  0  0  0  0  0  0
    4.4261    1.0708   -1.0153 C   0  0  0  1  0  0  0  0  0  0  0  0
    5.2624   -0.1442   -1.4173 C   0  0  0  1  0  0  0  0  0  0  0  0
    6.5332   -0.0450   -0.5663 C   0  0  0  1  0  0  0  0  0  0  0  0
    6.7257    1.4530   -0.2979 C   0  0  0  1  0  0  0  0  0  0  0  0
    5.4924    2.1588   -0.8663 C   0  0  0  1  0  0  0  0  0  0  0  0
    6.3617   -0.7892    0.7192 N   0  0  0  1  0  0  0  0  0  0  0  0
    2.3116    2.1882   -6.1856 H   0  0  0  1  0  0  0  0  0  0  0  0
    7.5936    1.9160   -5.1662 H   0  0  0  1  0  0  0  0  0  0  0  0
    2.6113    2.9668   -7.6712 H   0  0  0  1  0  0  0  0  0  0  0  0
    1.6221    3.2569   -9.8675 H   0  0  0  1  0  0  0  0  0  0  0  0
    5.3427    2.4671  -11.6456 H   0  0  0  1  0  0  0  0  0  0  0  0
    6.3304    2.1773   -9.4530 H   0  0  0  1  0  0  0  0  0  0  0  0
    2.7867    2.7614  -14.1156 H   0  0  0  1  0  0  0  0  0  0  0  0
    3.9561    1.8327  -13.2086 H   0  0  0  1  0  0  0  0  0  0  0  0
    4.1993    3.5462  -13.4514 H   0  0  0  1  0  0  0  0  0  0  0  0
    2.5114    1.4852   -1.8037 H   0  0  0  1  0  0  0  0  0  0  0  0
    3.9132    0.9008   -0.0918 H   0  0  0  1  0  0  0  0  0  0  0  0
    4.7361   -1.0510   -1.2039 H   0  0  0  1  0  0  0  0  0  0  0  0
    5.5031   -0.1076   -2.4592 H   0  0  0  1  0  0  0  0  0  0  0  0
    7.3725   -0.4409   -1.0990 H   0  0  0  1  0  0  0  0  0  0  0  0
    6.8022    1.6329    0.7541 H   0  0  0  1  0  0  0  0  0  0  0  0
    7.6105    1.8050   -0.7858 H   0  0  0  1  0  0  0  0  0  0  0  0
    5.1563    2.9213   -0.1951 H   0  0  0  1  0  0  0  0  0  0  0  0
    5.7169    2.5940   -1.8177 H   0  0  0  1  0  0  0  0  0  0  0  0
    5.9992   -1.6809    0.5350 H   0  0  0  1  0  0  0  0  0  0  0  0
    5.7433   -0.2990    1.3002 H   0  0  0  1  0  0  0  0  0  0  0  0
  1  2  4  0  0  0  0
  1  6  4  0  0  0  0
  2  3  4  0  0  0  0
  2 18  1  0  0  0  0
  3  4  4  0  0  0  0
  4  5  4  0  0  0  0
  4  7  4  0  0  0  0
  5  6  4  0  0  0  0
  5  9  4  0  0  0  0
  6 25  1  0  0  0  0
  7  8  4  0  0  0  0
  7 26  1  0  0  0  0
  8  9  4  0  0  0  0
  9 10  1  0  0  0  0
 10 11  4  0  0  0  0
 10 15  4  0  0  0  0
 11 12  4  0  0  0  0
 11 27  1  0  0  0  0
 12 13  4  0  0  0  0
 12 28  1  0  0  0  0
 13 14  4  0  0  0  0
 13 16  1  0  0  0  0
 14 15  4  0  0  0  0
 14 29  1  0  0  0  0
 15 30  1  0  0  0  0
 16 17  1  0  0  0  0
 17 31  1  0  0  0  0
 17 32  1  0  0  0  0
 17 33  1  0  0  0  0
 18 19  1  0  0  0  0
 18 34  1  0  0  0  0
 19 20  1  0  0  0  0
 19 23  1  0  0  0  0
 19 35  1  0  0  0  0
 20 21  1  0  0  0  0
 20 36  1  0  0  0  0
 20 37  1  0  0  0  0
 21 22  1  0  0  0  0
 21 24  1  0  0  0  0
 21 38  1  0  0  0  0
 22 23  1  0  0  0  0
 22 39  1  0  0  0  0
 22 40  1  0  0  0  0
 23 41  1  0  0  0  0
 23 42  1  0  0  0  0
 24 43  1  0  0  0  0
 24 44  1  0  0  0  0
M  END
> <ConfClashScore>
0 

> <ConfOneFourInteractionScore>
-0.980204 

> <ConfScore>
0.0670619 

> <ConfScorePBest>
0.0017806 

> <ConfTolerance>
0.421537 

$$$$
c13.sdf
 OpenBabel04162418043D

 44 47  0  0  0  0  0  0  0  0999 V2000
    4.7455    0.8503   -5.1102 N   0  0  0  1  0  0  0  0  0  0  0  0
    4.3898    0.5997   -3.8616 C   0  0  0  1  0  0  0  0  0  0  0  0
    3.6390   -0.4272   -3.5349 N   0  0  0  1  0  0  0  0  0  0  0  0
    3.2013   -1.2693   -4.4744 C   0  0  0  1  0  0  0  0  0  0  0  0
    3.5616   -1.0326   -5.8181 C   0  0  0  1  0  0  0  0  0  0  0  0
    4.3591    0.0711   -6.1054 C   0  0  0  1  0  0  0  0  0  0  0  0
    2.4029   -2.4341   -4.4652 C   0  0  0  1  0  0  0  0  0  0  0  0
    2.2848   -2.8703   -5.6871 N   0  0  0  1  0  0  0  0  0  0  0  0
    2.9883   -2.0303   -6.5602 N   0  0  0  1  0  0  0  0  0  0  0  0
    3.0157   -2.2920   -7.9598 C   0  0  0  1  0  0  0  0  0  0  0  0
    3.9575   -1.6733   -8.7601 C   0  0  0  1  0  0  0  0  0  0  0  0
    3.9875   -1.9322  -10.1215 C   0  0  0  1  0  0  0  0  0  0  0  0
    3.0723   -2.8047  -10.6796 C   0  0  0  1  0  0  0  0  0  0  0  0
    2.1278   -3.4252   -9.8767 C   0  0  0  1  0  0  0  0  0  0  0  0
    2.0978   -3.1671   -8.5192 C   0  0  0  1  0  0  0  0  0  0  0  0
    3.0013   -3.1304  -11.9921 O   0  0  0  1  0  0  0  0  0  0  0  0
    3.9611   -2.5238  -12.8715 C   0  0  0  1  0  0  0  0  0  0  0  0
    4.8181    1.4384   -2.8746 N   0  0  0  1  0  0  0  0  0  0  0  0
    4.4945    1.1970   -1.4624 C   0  0  0  1  0  0  0  0  0  0  0  0
    4.9832   -0.1837   -1.0081 C   0  0  0  1  0  0  0  0  0  0  0  0
    6.4631   -0.0537   -0.6622 C   0  0  0  1  0  0  0  0  0  0  0  0
    6.6835    1.4854   -0.4559 C   0  0  0  1  0  0  0  0  0  0  0  0
    5.2994    2.1570   -0.5235 C   0  0  0  1  0  0  0  0  0  0  0  0
    6.7809   -0.8049    0.5889 N   0  0  0  1  0  0  0  0  0  0  0  0
    4.6454    0.2787   -7.0834 H   0  0  0  1  0  0  0  0  0  0  0  0
    1.9792   -2.8714   -3.6221 H   0  0  0  1  0  0  0  0  0  0  0  0
    4.6436   -1.0137   -8.3409 H   0  0  0  1  0  0  0  0  0  0  0  0
    4.6987   -1.4698  -10.7231 H   0  0  0  1  0  0  0  0  0  0  0  0
    1.4417   -4.0848  -10.2959 H   0  0  0  1  0  0  0  0  0  0  0  0
    1.3866   -3.6295   -7.9176 H   0  0  0  1  0  0  0  0  0  0  0  0
    3.4990   -1.7189  -13.4040 H   0  0  0  1  0  0  0  0  0  0  0  0
    4.3176   -3.2537  -13.5680 H   0  0  0  1  0  0  0  0  0  0  0  0
    4.7818   -2.1468  -12.2978 H   0  0  0  1  0  0  0  0  0  0  0  0
    5.3555    2.2222   -3.1140 H   0  0  0  1  0  0  0  0  0  0  0  0
    3.4401    1.3035   -1.3144 H   0  0  0  1  0  0  0  0  0  0  0  0
    4.4332   -0.5009   -0.1468 H   0  0  0  1  0  0  0  0  0  0  0  0
    4.8534   -0.8951   -1.7968 H   0  0  0  1  0  0  0  0  0  0  0  0
    7.0721   -0.4190   -1.4626 H   0  0  0  1  0  0  0  0  0  0  0  0
    7.1325    1.6666    0.4983 H   0  0  0  1  0  0  0  0  0  0  0  0
    7.3162    1.8717   -1.2275 H   0  0  0  1  0  0  0  0  0  0  0  0
    4.8507    2.2133    0.4462 H   0  0  0  1  0  0  0  0  0  0  0  0
    5.3675    3.1389   -0.9431 H   0  0  0  1  0  0  0  0  0  0  0  0
    6.5910   -1.7571    0.4559 H   0  0  0  1  0  0  0  0  0  0  0  0
    6.2311   -0.4619    1.3241 H   0  0  0  1  0  0  0  0  0  0  0  0
  1  2  4  0  0  0  0
  1  6  4  0  0  0  0
  2  3  4  0  0  0  0
  2 18  1  0  0  0  0
  3  4  4  0  0  0  0
  4  5  4  0  0  0  0
  4  7  4  0  0  0  0
  5  6  4  0  0  0  0
  5  9  4  0  0  0  0
  6 25  1  0  0  0  0
  7  8  4  0  0  0  0
  7 26  1  0  0  0  0
  8  9  4  0  0  0  0
  9 10  1  0  0  0  0
 10 11  4  0  0  0  0
 10 15  4  0  0  0  0
 11 12  4  0  0  0  0
 11 27  1  0  0  0  0
 12 13  4  0  0  0  0
 12 28  1  0  0  0  0
 13 14  4  0  0  0  0
 13 16  1  0  0  0  0
 14 15  4  0  0  0  0
 14 29  1  0  0  0  0
 15 30  1  0  0  0  0
 16 17  1  0  0  0  0
 17 31  1  0  0  0  0
 17 32  1  0  0  0  0
 17 33  1  0  0  0  0
 18 19  1  0  0  0  0
 18 34  1  0  0  0  0
 19 20  1  0  0  0  0
 19 23  1  0  0  0  0
 19 35  1  0  0  0  0
 20 21  1  0  0  0  0
 20 36  1  0  0  0  0
 20 37  1  0  0  0  0
 21 22  1  0  0  0  0
 21 24  1  0  0  0  0
 21 38  1  0  0  0  0
 22 23  1  0  0  0  0
 22 39  1  0  0  0  0
 22 40  1  0  0  0  0
 23 41  1  0  0  0  0
 23 42  1  0  0  0  0
 24 43  1  0  0  0  0
 24 44  1  0  0  0  0
M  END
> <ConfClashScore>
0 

> <ConfOneFourInteractionScore>
-0.985399 

> <ConfScore>
0.069441 

> <ConfScorePBest>
0.00176727 

> <ConfTolerance>
0.498255 

$$$$
c13.sdf
 OpenBabel04162418043D

 44 47  0  0  0  0  0  0  0  0999 V2000
    6.8902    1.4905   -3.0604 N   0  0  0  1  0  0  0  0  0  0  0  0
    5.7262    1.3143   -3.6624 C   0  0  0  1  0  0  0  0  0  0  0  0
    5.6175    1.1944   -4.9658 N   0  0  0  1  0  0  0  0  0  0  0  0
    6.7034    1.2479   -5.7414 C   0  0  0  1  0  0  0  0  0  0  0  0
    7.9628    1.4349   -5.1328 C   0  0  0  1  0  0  0  0  0  0  0  0
    8.0174    1.5558   -3.7474 C   0  0  0  1  0  0  0  0  0  0  0  0
    6.9316    1.1574   -7.1320 C   0  0  0  1  0  0  0  0  0  0  0  0
    8.2096    1.2775   -7.3551 N   0  0  0  1  0  0  0  0  0  0  0  0
    8.8881    1.4517   -6.1417 N   0  0  0  1  0  0  0  0  0  0  0  0
   10.2979    1.6115   -6.0598 C   0  0  0  1  0  0  0  0  0  0  0  0
   11.1292    0.5262   -6.2627 C   0  0  0  1  0  0  0  0  0  0  0  0
   12.5045    0.6832   -6.1880 C   0  0  0  1  0  0  0  0  0  0  0  0
   13.0442    1.9237   -5.9054 C   0  0  0  1  0  0  0  0  0  0  0  0
   12.2103    3.0122   -5.7018 C   0  0  0  1  0  0  0  0  0  0  0  0
   10.8390    2.8558   -5.7762 C   0  0  0  1  0  0  0  0  0  0  0  0
   14.3634    2.1961   -5.8025 O   0  0  0  1  0  0  0  0  0  0  0  0
   15.3219    1.2460   -6.2936 C   0  0  0  1  0  0  0  0  0  0  0  0
    4.6155    1.2557   -2.9163 N   0  0  0  1  0  0  0  0  0  0  0  0
    4.4916    1.2082   -1.4571 C   0  0  0  1  0  0  0  0  0  0  0  0
    4.9620   -0.1490   -0.9227 C   0  0  0  1  0  0  0  0  0  0  0  0
    6.4497    0.0410   -0.6263 C   0  0  0  1  0  0  0  0  0  0  0  0
    6.4816    1.4543   -0.0396 C   0  0  0  1  0  0  0  0  0  0  0  0
    5.4173    2.2435   -0.8057 C   0  0  0  1  0  0  0  0  0  0  0  0
    6.9342   -0.9580    0.3526 N   0  0  0  1  0  0  0  0  0  0  0  0
    8.9269    1.6947   -3.2625 H   0  0  0  1  0  0  0  0  0  0  0  0
    6.2003    1.0179   -7.8582 H   0  0  0  1  0  0  0  0  0  0  0  0
   10.7230   -0.4082   -6.4715 H   0  0  0  1  0  0  0  0  0  0  0  0
   13.1302   -0.1326   -6.3447 H   0  0  0  1  0  0  0  0  0  0  0  0
   12.6164    3.9466   -5.4930 H   0  0  0  1  0  0  0  0  0  0  0  0
   10.2133    3.6715   -5.6195 H   0  0  0  1  0  0  0  0  0  0  0  0
   15.4037    1.3381   -7.3565 H   0  0  0  1  0  0  0  0  0  0  0  0
   15.0017    0.2558   -6.0452 H   0  0  0  1  0  0  0  0  0  0  0  0
   16.2745    1.4364   -5.8450 H   0  0  0  1  0  0  0  0  0  0  0  0
    3.7712    1.2429   -3.4137 H   0  0  0  1  0  0  0  0  0  0  0  0
    3.4742    1.3880   -1.1789 H   0  0  0  1  0  0  0  0  0  0  0  0
    4.8191   -0.9133   -1.6578 H   0  0  0  1  0  0  0  0  0  0  0  0
    4.4303   -0.4074   -0.0308 H   0  0  0  1  0  0  0  0  0  0  0  0
    7.0347   -0.0217   -1.5200 H   0  0  0  1  0  0  0  0  0  0  0  0
    6.2489    1.4303    1.0045 H   0  0  0  1  0  0  0  0  0  0  0  0
    7.4464    1.8951   -0.1804 H   0  0  0  1  0  0  0  0  0  0  0  0
    5.8773    2.8518   -1.5562 H   0  0  0  1  0  0  0  0  0  0  0  0
    4.8624    2.8641   -0.1335 H   0  0  0  1  0  0  0  0  0  0  0  0
    6.8989   -1.8519   -0.0475 H   0  0  0  1  0  0  0  0  0  0  0  0
    6.3662   -0.9351    1.1509 H   0  0  0  1  0  0  0  0  0  0  0  0
  1  2  4  0  0  0  0
  1  6  4  0  0  0  0
  2  3  4  0  0  0  0
  2 18  1  0  0  0  0
  3  4  4  0  0  0  0
  4  5  4  0  0  0  0
  4  7  4  0  0  0  0
  5  6  4  0  0  0  0
  5  9  4  0  0  0  0
  6 25  1  0  0  0  0
  7  8  4  0  0  0  0
  7 26  1  0  0  0  0
  8  9  4  0  0  0  0
  9 10  1  0  0  0  0
 10 11  4  0  0  0  0
 10 15  4  0  0  0  0
 11 12  4  0  0  0  0
 11 27  1  0  0  0  0
 12 13  4  0  0  0  0
 12 28  1  0  0  0  0
 13 14  4  0  0  0  0
 13 16  1  0  0  0  0
 14 15  4  0  0  0  0
 14 29  1  0  0  0  0
 15 30  1  0  0  0  0
 16 17  1  0  0  0  0
 17 31  1  0  0  0  0
 17 32  1  0  0  0  0
 17 33  1  0  0  0  0
 18 19  1  0  0  0  0
 18 34  1  0  0  0  0
 19 20  1  0  0  0  0
 19 23  1  0  0  0  0
 19 35  1  0  0  0  0
 20 21  1  0  0  0  0
 20 36  1  0  0  0  0
 20 37  1  0  0  0  0
 21 22  1  0  0  0  0
 21 24  1  0  0  0  0
 21 38  1  0  0  0  0
 22 23  1  0  0  0  0
 22 39  1  0  0  0  0
 22 40  1  0  0  0  0
 23 41  1  0  0  0  0
 23 42  1  0  0  0  0
 24 43  1  0  0  0  0
 24 44  1  0  0  0  0
M  END
> <ConfClashScore>
0 

> <ConfOneFourInteractionScore>
-0.982693 

> <ConfScore>
0.0711264 

> <ConfScorePBest>
0.00175394 

> <ConfTolerance>
0.365222 

$$$$
c13.sdf
 OpenBabel04162418043D

 44 47  0  0  0  0  0  0  0  0999 V2000
    3.0098    2.1533   -4.3291 N   0  0  0  1  0  0  0  0  0  0  0  0
    3.9343    1.7778   -3.4615 C   0  0  0  1  0  0  0  0  0  0  0  0
    5.2044    1.6814   -3.7820 N   0  0  0  1  0  0  0  0  0  0  0  0
    5.6111    1.9659   -5.0218 C   0  0  0  1  0  0  0  0  0  0  0  0
    4.6514    2.3701   -5.9742 C   0  0  0  1  0  0  0  0  0  0  0  0
    3.3199    2.4544   -5.5780 C   0  0  0  1  0  0  0  0  0  0  0  0
    6.8616    1.9653   -5.6777 C   0  0  0  1  0  0  0  0  0  0  0  0
    6.6857    2.3341   -6.9147 N   0  0  0  1  0  0  0  0  0  0  0  0
    5.3283    2.5954   -7.1428 N   0  0  0  1  0  0  0  0  0  0  0  0
    4.8770    3.0130   -8.4112 C   0  0  0  1  0  0  0  0  0  0  0  0
    3.7784    3.8360   -8.5720 C   0  0  0  1  0  0  0  0  0  0  0  0
    3.3808    4.2207   -9.8429 C   0  0  0  1  0  0  0  0  0  0  0  0
    4.0798    3.7771  -10.9497 C   0  0  0  1  0  0  0  0  0  0  0  0
    5.1817    2.9516  -10.7883 C   0  0  0  1  0  0  0  0  0  0  0  0
    5.5781    2.5679   -9.5211 C   0  0  0  1  0  0  0  0  0  0  0  0
    3.7806    4.0842  -12.2493 O   0  0  0  1  0  0  0  0  0  0  0  0
    2.7646    5.1075  -12.3647 C   0  0  0  1  0  0  0  0  0  0  0  0
    3.5091    1.4911   -2.2044 N   0  0  0  1  0  0  0  0  0  0  0  0
    4.3956    1.0570   -1.1215 C   0  0  0  1  0  0  0  0  0  0  0  0
    5.2580   -0.1733   -1.5641 C   0  0  0  1  0  0  0  0  0  0  0  0
    6.4948   -0.1009   -0.6064 C   0  0  0  1  0  0  0  0  0  0  0  0
    6.6583    1.3952   -0.2165 C   0  0  0  1  0  0  0  0  0  0  0  0
    5.4454    2.1390   -0.8027 C   0  0  0  1  0  0  0  0  0  0  0  0
    6.2524   -0.9332    0.6185 N   0  0  0  1  0  0  0  0  0  0  0  0
    2.5838    2.7485   -6.2512 H   0  0  0  1  0  0  0  0  0  0  0  0
    7.7727    1.7122   -5.2446 H   0  0  0  1  0  0  0  0  0  0  0  0
    3.2500    4.1666   -7.7394 H   0  0  0  1  0  0  0  0  0  0  0  0
    2.5566    4.8433   -9.9637 H   0  0  0  1  0  0  0  0  0  0  0  0
    5.7101    2.6210  -11.6208 H   0  0  0  1  0  0  0  0  0  0  0  0
    6.4024    1.9454   -9.4002 H   0  0  0  1  0  0  0  0  0  0  0  0
    1.8528    4.7562  -11.9288 H   0  0  0  1  0  0  0  0  0  0  0  0
    2.6020    5.3334  -13.3978 H   0  0  0  1  0  0  0  0  0  0  0  0
    3.0876    5.9898  -11.8527 H   0  0  0  1  0  0  0  0  0  0  0  0
    2.5528    1.5798   -2.0097 H   0  0  0  1  0  0  0  0  0  0  0  0
    3.8129    0.8231   -0.2550 H   0  0  0  1  0  0  0  0  0  0  0  0
    5.5585   -0.0838   -2.5871 H   0  0  0  1  0  0  0  0  0  0  0  0
    4.7201   -1.0883   -1.4286 H   0  0  0  1  0  0  0  0  0  0  0  0
    7.3726   -0.4510   -1.1081 H   0  0  0  1  0  0  0  0  0  0  0  0
    6.6753    1.4992    0.8483 H   0  0  0  1  0  0  0  0  0  0  0  0
    7.5651    1.7866   -0.6281 H   0  0  0  1  0  0  0  0  0  0  0  0
    5.0564    2.8353   -0.0895 H   0  0  0  1  0  0  0  0  0  0  0  0
    5.7246    2.6598   -1.6947 H   0  0  0  1  0  0  0  0  0  0  0  0
    5.3697   -0.7220    0.9881 H   0  0  0  1  0  0  0  0  0  0  0  0
    6.9416   -0.7381    1.2873 H   0  0  0  1  0  0  0  0  0  0  0  0
  1  2  4  0  0  0  0
  1  6  4  0  0  0  0
  2  3  4  0  0  0  0
  2 18  1  0  0  0  0
  3  4  4  0  0  0  0
  4  5  4  0  0  0  0
  4  7  4  0  0  0  0
  5  6  4  0  0  0  0
  5  9  4  0  0  0  0
  6 25  1  0  0  0  0
  7  8  4  0  0  0  0
  7 26  1  0  0  0  0
  8  9  4  0  0  0  0
  9 10  1  0  0  0  0
 10 11  4  0  0  0  0
 10 15  4  0  0  0  0
 11 12  4  0  0  0  0
 11 27  1  0  0  0  0
 12 13  4  0  0  0  0
 12 28  1  0  0  0  0
 13 14  4  0  0  0  0
 13 16  1  0  0  0  0
 14 15  4  0  0  0  0
 14 29  1  0  0  0  0
 15 30  1  0  0  0  0
 16 17  1  0  0  0  0
 17 31  1  0  0  0  0
 17 32  1  0  0  0  0
 17 33  1  0  0  0  0
 18 19  1  0  0  0  0
 18 34  1  0  0  0  0
 19 20  1  0  0  0  0
 19 23  1  0  0  0  0
 19 35  1  0  0  0  0
 20 21  1  0  0  0  0
 20 36  1  0  0  0  0
 20 37  1  0  0  0  0
 21 22  1  0  0  0  0
 21 24  1  0  0  0  0
 21 38  1  0  0  0  0
 22 23  1  0  0  0  0
 22 39  1  0  0  0  0
 22 40  1  0  0  0  0
 23 41  1  0  0  0  0
 23 42  1  0  0  0  0
 24 43  1  0  0  0  0
 24 44  1  0  0  0  0
M  END
> <ConfClashScore>
0 

> <ConfOneFourInteractionScore>
-0.980204 

> <ConfScore>
0.0751496 

> <ConfScorePBest>
0.00174062 

> <ConfTolerance>
0.384731 

$$$$
c13.sdf
 OpenBabel04162418043D

 44 47  0  0  0  0  0  0  0  0999 V2000
    3.4650    3.6638   -1.6939 N   0  0  0  1  0  0  0  0  0  0  0  0
    3.7268    2.9345   -2.7653 C   0  0  0  1  0  0  0  0  0  0  0  0
    3.5584    3.3889   -3.9860 N   0  0  0  1  0  0  0  0  0  0  0  0
    3.1072    4.6296   -4.1880 C   0  0  0  1  0  0  0  0  0  0  0  0
    2.8174    5.4366   -3.0672 C   0  0  0  1  0  0  0  0  0  0  0  0
    3.0151    4.9022   -1.7975 C   0  0  0  1  0  0  0  0  0  0  0  0
    2.8225    5.4047   -5.3335 C   0  0  0  1  0  0  0  0  0  0  0  0
    2.3984    6.5758   -4.9516 N   0  0  0  1  0  0  0  0  0  0  0  0
    2.3791    6.6396   -3.5521 N   0  0  0  1  0  0  0  0  0  0  0  0
    1.9583    7.8036   -2.8920 C   0  0  0  1  0  0  0  0  0  0  0  0
    2.1699    8.9842   -3.5787 C   0  0  0  1  0  0  0  0  0  0  0  0
    1.7850   10.1914   -3.0164 C   0  0  0  1  0  0  0  0  0  0  0  0
    1.1946   10.2149   -1.7670 C   0  0  0  1  0  0  0  0  0  0  0  0
    0.9824    9.0307   -1.0784 C   0  0  0  1  0  0  0  0  0  0  0  0
    1.3661    7.8270   -1.6389 C   0  0  0  1  0  0  0  0  0  0  0  0
    0.7161   11.3578   -1.2286 O   0  0  0  1  0  0  0  0  0  0  0  0
    1.1264   12.6218   -1.7731 C   0  0  0  1  0  0  0  0  0  0  0  0
    4.1894    1.6621   -2.5980 N   0  0  0  1  0  0  0  0  0  0  0  0
    4.4682    1.1135   -1.2699 C   0  0  0  1  0  0  0  0  0  0  0  0
    5.2642   -0.2332   -1.3823 C   0  0  0  1  0  0  0  0  0  0  0  0
    6.5331   -0.0856   -0.5225 C   0  0  0  1  0  0  0  0  0  0  0  0
    6.8092    1.4546   -0.5747 C   0  0  0  1  0  0  0  0  0  0  0  0
    5.3942    2.0394   -0.4877 C   0  0  0  1  0  0  0  0  0  0  0  0
    6.2913   -0.5378    0.8683 N   0  0  0  1  0  0  0  0  0  0  0  0
    2.8127    5.4659   -0.9473 H   0  0  0  1  0  0  0  0  0  0  0  0
    2.9331    5.0923   -6.3193 H   0  0  0  1  0  0  0  0  0  0  0  0
    2.6178    8.9670   -4.5171 H   0  0  0  1  0  0  0  0  0  0  0  0
    1.9406   11.0795   -3.5348 H   0  0  0  1  0  0  0  0  0  0  0  0
    0.5345    9.0479   -0.1400 H   0  0  0  1  0  0  0  0  0  0  0  0
    1.2106    6.9389   -1.1206 H   0  0  0  1  0  0  0  0  0  0  0  0
    0.2768   13.1268   -2.1830 H   0  0  0  1  0  0  0  0  0  0  0  0
    1.8507   12.4597   -2.5438 H   0  0  0  1  0  0  0  0  0  0  0  0
    1.5574   13.2207   -0.9982 H   0  0  0  1  0  0  0  0  0  0  0  0
    4.3388    1.1008   -3.3873 H   0  0  0  1  0  0  0  0  0  0  0  0
    3.5481    0.9662   -0.7439 H   0  0  0  1  0  0  0  0  0  0  0  0
    4.6672   -1.0432   -1.0184 H   0  0  0  1  0  0  0  0  0  0  0  0
    5.5317   -0.4168   -2.4019 H   0  0  0  1  0  0  0  0  0  0  0  0
    7.3486   -0.6377   -0.9410 H   0  0  0  1  0  0  0  0  0  0  0  0
    7.2881    1.7321   -1.4905 H   0  0  0  1  0  0  0  0  0  0  0  0
    7.4106    1.7692    0.2524 H   0  0  0  1  0  0  0  0  0  0  0  0
    5.3771    3.0200   -0.9155 H   0  0  0  1  0  0  0  0  0  0  0  0
    5.0820    2.0901    0.5345 H   0  0  0  1  0  0  0  0  0  0  0  0
    6.0435   -1.4860    0.8656 H   0  0  0  1  0  0  0  0  0  0  0  0
    5.5639   -0.0114    1.2609 H   0  0  0  1  0  0  0  0  0  0  0  0
  1  2  4  0  0  0  0
  1  6  4  0  0  0  0
  2  3  4  0  0  0  0
  2 18  1  0  0  0  0
  3  4  4  0  0  0  0
  4  5  4  0  0  0  0
  4  7  4  0  0  0  0
  5  6  4  0  0  0  0
  5  9  4  0  0  0  0
  6 25  1  0  0  0  0
  7  8  4  0  0  0  0
  7 26  1  0  0  0  0
  8  9  4  0  0  0  0
  9 10  1  0  0  0  0
 10 11  4  0  0  0  0
 10 15  4  0  0  0  0
 11 12  4  0  0  0  0
 11 27  1  0  0  0  0
 12 13  4  0  0  0  0
 12 28  1  0  0  0  0
 13 14  4  0  0  0  0
 13 16  1  0  0  0  0
 14 15  4  0  0  0  0
 14 29  1  0  0  0  0
 15 30  1  0  0  0  0
 16 17  1  0  0  0  0
 17 31  1  0  0  0  0
 17 32  1  0  0  0  0
 17 33  1  0  0  0  0
 18 19  1  0  0  0  0
 18 34  1  0  0  0  0
 19 20  1  0  0  0  0
 19 23  1  0  0  0  0
 19 35  1  0  0  0  0
 20 21  1  0  0  0  0
 20 36  1  0  0  0  0
 20 37  1  0  0  0  0
 21 22  1  0  0  0  0
 21 24  1  0  0  0  0
 21 38  1  0  0  0  0
 22 23  1  0  0  0  0
 22 39  1  0  0  0  0
 22 40  1  0  0  0  0
 23 41  1  0  0  0  0
 23 42  1  0  0  0  0
 24 43  1  0  0  0  0
 24 44  1  0  0  0  0
M  END
> <ConfClashScore>
0 

> <ConfOneFourInteractionScore>
-0.985399 

> <ConfScore>
0.0771799 

> <ConfScorePBest>
0.00172729 

> <ConfTolerance>
0.5575 

$$$$
c13.sdf
 OpenBabel04162418043D

 44 47  0  0  0  0  0  0  0  0999 V2000
    4.4461    2.3020   -4.6329 N   0  0  0  1  0  0  0  0  0  0  0  0
    4.8788    1.8700   -3.4605 C   0  0  0  1  0  0  0  0  0  0  0  0
    6.1556    1.7199   -3.1918 N   0  0  0  1  0  0  0  0  0  0  0  0
    7.0776    2.0053   -4.1148 C   0  0  0  1  0  0  0  0  0  0  0  0
    6.6519    2.4691   -5.3777 C   0  0  0  1  0  0  0  0  0  0  0  0
    5.2861    2.6087   -5.6060 C   0  0  0  1  0  0  0  0  0  0  0  0
    8.4884    1.9573   -4.1521 C   0  0  0  1  0  0  0  0  0  0  0  0
    8.8898    2.3540   -5.3264 N   0  0  0  1  0  0  0  0  0  0  0  0
    7.7826    2.6817   -6.1199 N   0  0  0  1  0  0  0  0  0  0  0  0
    7.9543    3.1448   -7.4547 C   0  0  0  1  0  0  0  0  0  0  0  0
    8.5231    4.3825   -7.6888 C   0  0  0  1  0  0  0  0  0  0  0  0
    8.6952    4.8312   -8.9890 C   0  0  0  1  0  0  0  0  0  0  0  0
    8.2931    4.0433  -10.0511 C   0  0  0  1  0  0  0  0  0  0  0  0
    7.7226    2.8020   -9.8160 C   0  0  0  1  0  0  0  0  0  0  0  0
    7.5509    2.3545   -8.5197 C   0  0  0  1  0  0  0  0  0  0  0  0
    8.4050    4.3764  -11.3589 O   0  0  0  1  0  0  0  0  0  0  0  0
    8.7078    5.7468  -11.6635 C   0  0  0  1  0  0  0  0  0  0  0  0
    3.9532    1.5641   -2.4793 N   0  0  0  1  0  0  0  0  0  0  0  0
    4.4531    1.0452   -1.2053 C   0  0  0  1  0  0  0  0  0  0  0  0
    5.3115   -0.1958   -1.4281 C   0  0  0  1  0  0  0  0  0  0  0  0
    6.5315   -0.0822   -0.5060 C   0  0  0  1  0  0  0  0  0  0  0  0
    6.8312    1.4540   -0.5436 C   0  0  0  1  0  0  0  0  0  0  0  0
    5.4226    2.0760   -0.5289 C   0  0  0  1  0  0  0  0  0  0  0  0
    6.2103   -0.5332    0.8678 N   0  0  0  1  0  0  0  0  0  0  0  0
    4.9336    2.9476   -6.5239 H   0  0  0  1  0  0  0  0  0  0  0  0
    9.1052    1.6552   -3.3712 H   0  0  0  1  0  0  0  0  0  0  0  0
    8.8220    4.9770   -6.8896 H   0  0  0  1  0  0  0  0  0  0  0  0
    9.1269    5.7608   -9.1654 H   0  0  0  1  0  0  0  0  0  0  0  0
    7.4236    2.2074  -10.6152 H   0  0  0  1  0  0  0  0  0  0  0  0
    7.1192    1.4249   -8.3433 H   0  0  0  1  0  0  0  0  0  0  0  0
    7.8925    6.3690  -11.3583 H   0  0  0  1  0  0  0  0  0  0  0  0
    8.8616    5.8522  -12.7171 H   0  0  0  1  0  0  0  0  0  0  0  0
    9.5948    6.0403  -11.1419 H   0  0  0  1  0  0  0  0  0  0  0  0
    2.9935    1.6908   -2.6323 H   0  0  0  1  0  0  0  0  0  0  0  0
    3.6277    0.8236   -0.5614 H   0  0  0  1  0  0  0  0  0  0  0  0
    4.7518   -1.0753   -1.1870 H   0  0  0  1  0  0  0  0  0  0  0  0
    5.6281   -0.2426   -2.4491 H   0  0  0  1  0  0  0  0  0  0  0  0
    7.3574   -0.6480   -0.8837 H   0  0  0  1  0  0  0  0  0  0  0  0
    7.3614    1.7215   -1.4337 H   0  0  0  1  0  0  0  0  0  0  0  0
    7.3956    1.7577    0.3132 H   0  0  0  1  0  0  0  0  0  0  0  0
    5.4219    2.9945   -1.0780 H   0  0  0  1  0  0  0  0  0  0  0  0
    5.1147    2.2621    0.4788 H   0  0  0  1  0  0  0  0  0  0  0  0
    6.0031   -1.4910    0.8576 H   0  0  0  1  0  0  0  0  0  0  0  0
    5.4354   -0.0351    1.2021 H   0  0  0  1  0  0  0  0  0  0  0  0
  1  2  4  0  0  0  0
  1  6  4  0  0  0  0
  2  3  4  0  0  0  0
  2 18  1  0  0  0  0
  3  4  4  0  0  0  0
  4  5  4  0  0  0  0
  4  7  4  0  0  0  0
  5  6  4  0  0  0  0
  5  9  4  0  0  0  0
  6 25  1  0  0  0  0
  7  8  4  0  0  0  0
  7 26  1  0  0  0  0
  8  9  4  0  0  0  0
  9 10  1  0  0  0  0
 10 11  4  0  0  0  0
 10 15  4  0  0  0  0
 11 12  4  0  0  0  0
 11 27  1  0  0  0  0
 12 13  4  0  0  0  0
 12 28  1  0  0  0  0
 13 14  4  0  0  0  0
 13 16  1  0  0  0  0
 14 15  4  0  0  0  0
 14 29  1  0  0  0  0
 15 30  1  0  0  0  0
 16 17  1  0  0  0  0
 17 31  1  0  0  0  0
 17 32  1  0  0  0  0
 17 33  1  0  0  0  0
 18 19  1  0  0  0  0
 18 34  1  0  0  0  0
 19 20  1  0  0  0  0
 19 23  1  0  0  0  0
 19 35  1  0  0  0  0
 20 21  1  0  0  0  0
 20 36  1  0  0  0  0
 20 37  1  0  0  0  0
 21 22  1  0  0  0  0
 21 24  1  0  0  0  0
 21 38  1  0  0  0  0
 22 23  1  0  0  0  0
 22 39  1  0  0  0  0
 22 40  1  0  0  0  0
 23 41  1  0  0  0  0
 23 42  1  0  0  0  0
 24 43  1  0  0  0  0
 24 44  1  0  0  0  0
M  END
> <ConfClashScore>
0.000639123 

> <ConfOneFourInteractionScore>
-0.980204 

> <ConfScore>
0.0840221 

> <ConfScorePBest>
0.00171396 

> <ConfTolerance>
0.443128 

$$$$
c13.sdf
 OpenBabel04162418043D

 44 47  0  0  0  0  0  0  0  0999 V2000
    5.9617    0.5084   -3.5601 N   0  0  0  1  0  0  0  0  0  0  0  0
    4.7304    0.9333   -3.7875 C   0  0  0  1  0  0  0  0  0  0  0  0
    4.2088    0.9715   -4.9923 N   0  0  0  1  0  0  0  0  0  0  0  0
    4.9217    0.5737   -6.0492 C   0  0  0  1  0  0  0  0  0  0  0  0
    6.2399    0.1139   -5.8438 C   0  0  0  1  0  0  0  0  0  0  0  0
    6.7401    0.0955   -4.5452 C   0  0  0  1  0  0  0  0  0  0  0  0
    4.6713    0.4886   -7.4364 C   0  0  0  1  0  0  0  0  0  0  0  0
    5.7350    0.0211   -8.0257 N   0  0  0  1  0  0  0  0  0  0  0  0
    6.7339   -0.2256   -7.0748 N   0  0  0  1  0  0  0  0  0  0  0  0
    7.9564   -0.8340   -7.4687 C   0  0  0  1  0  0  0  0  0  0  0  0
    9.1070   -0.6132   -6.7355 C   0  0  0  1  0  0  0  0  0  0  0  0
   10.3157   -1.1350   -7.1689 C   0  0  0  1  0  0  0  0  0  0  0  0
   10.3715   -1.8716   -8.3371 C   0  0  0  1  0  0  0  0  0  0  0  0
    9.2174   -2.0930   -9.0725 C   0  0  0  1  0  0  0  0  0  0  0  0
    8.0121   -1.5727   -8.6403 C   0  0  0  1  0  0  0  0  0  0  0  0
   11.6055   -2.3249   -8.6622 O   0  0  0  1  0  0  0  0  0  0  0  0
   11.7356   -3.0448   -9.8980 C   0  0  0  1  0  0  0  0  0  0  0  0
    3.9827    1.3421   -2.7467 N   0  0  0  1  0  0  0  0  0  0  0  0
    4.3910    1.2093   -1.3451 C   0  0  0  1  0  0  0  0  0  0  0  0
    4.9921   -0.1788   -1.0902 C   0  0  0  1  0  0  0  0  0  0  0  0
    6.3779    0.0520   -0.4832 C   0  0  0  1  0  0  0  0  0  0  0  0
    6.3680    1.4932    0.0324 C   0  0  0  1  0  0  0  0  0  0  0  0
    5.5110    2.2025   -1.0163 C   0  0  0  1  0  0  0  0  0  0  0  0
    6.6188   -0.8974    0.6357 N   0  0  0  1  0  0  0  0  0  0  0  0
    7.7069   -0.2364   -4.3538 H   0  0  0  1  0  0  0  0  0  0  0  0
    3.7843    0.7552   -7.9094 H   0  0  0  1  0  0  0  0  0  0  0  0
    9.0658   -0.0555   -5.8585 H   0  0  0  1  0  0  0  0  0  0  0  0
   11.1808   -0.9723   -6.6151 H   0  0  0  1  0  0  0  0  0  0  0  0
    9.2585   -2.6506   -9.9494 H   0  0  0  1  0  0  0  0  0  0  0  0
    7.1469   -1.7354   -9.1941 H   0  0  0  1  0  0  0  0  0  0  0  0
   12.7402   -3.3983  -10.0014 H   0  0  0  1  0  0  0  0  0  0  0  0
   11.5004   -2.3955  -10.7153 H   0  0  0  1  0  0  0  0  0  0  0  0
   11.0632   -3.8771   -9.8981 H   0  0  0  1  0  0  0  0  0  0  0  0
    3.1135    1.7530   -2.9366 H   0  0  0  1  0  0  0  0  0  0  0  0
    3.5460    1.3740   -0.7097 H   0  0  0  1  0  0  0  0  0  0  0  0
    4.3770   -0.7281   -0.4084 H   0  0  0  1  0  0  0  0  0  0  0  0
    5.0768   -0.7192   -2.0098 H   0  0  0  1  0  0  0  0  0  0  0  0
    7.1367   -0.0729   -1.2272 H   0  0  0  1  0  0  0  0  0  0  0  0
    7.3569    1.9004    0.0657 H   0  0  0  1  0  0  0  0  0  0  0  0
    5.9233    1.5550    1.0036 H   0  0  0  1  0  0  0  0  0  0  0  0
    6.0890    2.4210   -1.8898 H   0  0  0  1  0  0  0  0  0  0  0  0
    5.1054    3.1099   -0.6201 H   0  0  0  1  0  0  0  0  0  0  0  0
    7.5622   -0.8608    0.8985 H   0  0  0  1  0  0  0  0  0  0  0  0
    6.3956   -1.8067    0.3460 H   0  0  0  1  0  0  0  0  0  0  0  0
  1  2  4  0  0  0  0
  1  6  4  0  0  0  0
  2  3  4  0  0  0  0
  2 18  1  0  0  0  0
  3  4  4  0  0  0  0
  4  5  4  0  0  0  0
  4  7  4  0  0  0  0
  5  6  4  0  0  0  0
  5  9  4  0  0  0  0
  6 25  1  0  0  0  0
  7  8  4  0  0  0  0
  7 26  1  0  0  0  0
  8  9  4  0  0  0  0
  9 10  1  0  0  0  0
 10 11  4  0  0  0  0
 10 15  4  0  0  0  0
 11 12  4  0  0  0  0
 11 27  1  0  0  0  0
 12 13  4  0  0  0  0
 12 28  1  0  0  0  0
 13 14  4  0  0  0  0
 13 16  1  0  0  0  0
 14 15  4  0  0  0  0
 14 29  1  0  0  0  0
 15 30  1  0  0  0  0
 16 17  1  0  0  0  0
 17 31  1  0  0  0  0
 17 32  1  0  0  0  0
 17 33  1  0  0  0  0
 18 19  1  0  0  0  0
 18 34  1  0  0  0  0
 19 20  1  0  0  0  0
 19 23  1  0  0  0  0
 19 35  1  0  0  0  0
 20 21  1  0  0  0  0
 20 36  1  0  0  0  0
 20 37  1  0  0  0  0
 21 22  1  0  0  0  0
 21 24  1  0  0  0  0
 21 38  1  0  0  0  0
 22 23  1  0  0  0  0
 22 39  1  0  0  0  0
 22 40  1  0  0  0  0
 23 41  1  0  0  0  0
 23 42  1  0  0  0  0
 24 43  1  0  0  0  0
 24 44  1  0  0  0  0
M  END
> <ConfClashScore>
0 

> <ConfOneFourInteractionScore>
-0.982693 

> <ConfScore>
0.0879121 

> <ConfScorePBest>
0.00170063 

> <ConfTolerance>
0.366355 

$$$$
c13.sdf
 OpenBabel04162418043D

 44 47  0  0  0  0  0  0  0  0999 V2000
    2.1368    1.0714   -4.0505 N   0  0  0  1  0  0  0  0  0  0  0  0
    2.8331    0.6247   -3.0190 C   0  0  0  1  0  0  0  0  0  0  0  0
    2.6804   -0.5875   -2.5370 N   0  0  0  1  0  0  0  0  0  0  0  0
    1.7975   -1.4257   -3.0858 C   0  0  0  1  0  0  0  0  0  0  0  0
    1.0367   -0.9827   -4.1886 C   0  0  0  1  0  0  0  0  0  0  0  0
    1.2409    0.3120   -4.6567 C   0  0  0  1  0  0  0  0  0  0  0  0
    1.3976   -2.7540   -2.8215 C   0  0  0  1  0  0  0  0  0  0  0  0
    0.4789   -3.0934   -3.6807 N   0  0  0  1  0  0  0  0  0  0  0  0
    0.2235   -2.0237   -4.5487 N   0  0  0  1  0  0  0  0  0  0  0  0
   -0.7249   -2.0895   -5.5893 C   0  0  0  1  0  0  0  0  0  0  0  0
   -1.5446   -1.0246   -5.9123 C   0  0  0  1  0  0  0  0  0  0  0  0
   -2.4568   -1.1420   -6.9493 C   0  0  0  1  0  0  0  0  0  0  0  0
   -2.5505   -2.3256   -7.6569 C   0  0  0  1  0  0  0  0  0  0  0  0
   -1.7284   -3.3936   -7.3328 C   0  0  0  1  0  0  0  0  0  0  0  0
   -0.8187   -3.2767   -6.2988 C   0  0  0  1  0  0  0  0  0  0  0  0
   -3.4454   -2.4419   -8.6666 O   0  0  0  1  0  0  0  0  0  0  0  0
   -4.3791   -1.3651   -8.8433 C   0  0  0  1  0  0  0  0  0  0  0  0
    3.7318    1.4898   -2.4667 N   0  0  0  1  0  0  0  0  0  0  0  0
    4.4042    1.1957   -1.1982 C   0  0  0  1  0  0  0  0  0  0  0  0
    5.1157   -0.1662   -1.2543 C   0  0  0  1  0  0  0  0  0  0  0  0
    6.4939   -0.0022   -0.6329 C   0  0  0  1  0  0  0  0  0  0  0  0
    6.5288    1.4246   -0.0527 C   0  0  0  1  0  0  0  0  0  0  0  0
    5.5410    2.1705   -0.9458 C   0  0  0  1  0  0  0  0  0  0  0  0
    6.6980   -1.0099    0.4527 N   0  0  0  1  0  0  0  0  0  0  0  0
    0.6994    0.6746   -5.4672 H   0  0  0  1  0  0  0  0  0  0  0  0
    1.7742   -3.3612   -2.0658 H   0  0  0  1  0  0  0  0  0  0  0  0
   -1.4769   -0.1353   -5.3773 H   0  0  0  1  0  0  0  0  0  0  0  0
   -3.0708   -0.3393   -7.1950 H   0  0  0  1  0  0  0  0  0  0  0  0
   -1.7960   -4.2828   -7.8678 H   0  0  0  1  0  0  0  0  0  0  0  0
   -0.2047   -4.0793   -6.0531 H   0  0  0  1  0  0  0  0  0  0  0  0
   -4.8489   -1.1426   -7.9080 H   0  0  0  1  0  0  0  0  0  0  0  0
   -5.1232   -1.6519   -9.5566 H   0  0  0  1  0  0  0  0  0  0  0  0
   -3.8608   -0.4983   -9.1968 H   0  0  0  1  0  0  0  0  0  0  0  0
    3.9329    2.3295   -2.9302 H   0  0  0  1  0  0  0  0  0  0  0  0
    3.6910    1.2233   -0.4010 H   0  0  0  1  0  0  0  0  0  0  0  0
    5.2116   -0.4840   -2.2715 H   0  0  0  1  0  0  0  0  0  0  0  0
    4.5538   -0.8922   -0.7047 H   0  0  0  1  0  0  0  0  0  0  0  0
    7.2538   -0.1199   -1.3770 H   0  0  0  1  0  0  0  0  0  0  0  0
    7.5094    1.8469   -0.1245 H   0  0  0  1  0  0  0  0  0  0  0  0
    6.2097    1.4342    0.9685 H   0  0  0  1  0  0  0  0  0  0  0  0
    5.1784    3.0472   -0.4510 H   0  0  0  1  0  0  0  0  0  0  0  0
    6.0071    2.4479   -1.8681 H   0  0  0  1  0  0  0  0  0  0  0  0
    5.9608   -1.6556    0.4424 H   0  0  0  1  0  0  0  0  0  0  0  0
    6.7213   -0.5549    1.3203 H   0  0  0  1  0  0  0  0  0  0  0  0
  1  2  4  0  0  0  0
  1  6  4  0  0  0  0
  2  3  4  0  0  0  0
  2 18  1  0  0  0  0
  3  4  4  0  0  0  0
  4  5  4  0  0  0  0
  4  7  4  0  0  0  0
  5  6  4  0  0  0  0
  5  9  4  0  0  0  0
  6 25  1  0  0  0  0
  7  8  4  0  0  0  0
  7 26  1  0  0  0  0
  8  9  4  0  0  0  0
  9 10  1  0  0  0  0
 10 11  4  0  0  0  0
 10 15  4  0  0  0  0
 11 12  4  0  0  0  0
 11 27  1  0  0  0  0
 12 13  4  0  0  0  0
 12 28  1  0  0  0  0
 13 14  4  0  0  0  0
 13 16  1  0  0  0  0
 14 15  4  0  0  0  0
 14 29  1  0  0  0  0
 15 30  1  0  0  0  0
 16 17  1  0  0  0  0
 17 31  1  0  0  0  0
 17 32  1  0  0  0  0
 17 33  1  0  0  0  0
 18 19  1  0  0  0  0
 18 34  1  0  0  0  0
 19 20  1  0  0  0  0
 19 23  1  0  0  0  0
 19 35  1  0  0  0  0
 20 21  1  0  0  0  0
 20 36  1  0  0  0  0
 20 37  1  0  0  0  0
 21 22  1  0  0  0  0
 21 24  1  0  0  0  0
 21 38  1  0  0  0  0
 22 23  1  0  0  0  0
 22 39  1  0  0  0  0
 22 40  1  0  0  0  0
 23 41  1  0  0  0  0
 23 42  1  0  0  0  0
 24 43  1  0  0  0  0
 24 44  1  0  0  0  0
M  END
> <ConfClashScore>
0 

> <ConfOneFourInteractionScore>
-0.985399 

> <ConfScore>
0.0898254 

> <ConfScorePBest>
0.0016873 

> <ConfTolerance>
0.53685 

$$$$
c13.sdf
 OpenBabel04162418043D

 44 47  0  0  0  0  0  0  0  0999 V2000
    5.2241    1.8190   -3.6775 N   0  0  0  1  0  0  0  0  0  0  0  0
    3.9268    1.8203   -3.4215 C   0  0  0  1  0  0  0  0  0  0  0  0
    3.0314    2.1644   -4.3186 N   0  0  0  1  0  0  0  0  0  0  0  0
    3.4114    2.5320   -5.5449 C   0  0  0  1  0  0  0  0  0  0  0  0
    4.7883    2.5424   -5.8536 C   0  0  0  1  0  0  0  0  0  0  0  0
    5.6918    2.1680   -4.8633 C   0  0  0  1  0  0  0  0  0  0  0  0
    2.7292    2.9479   -6.7093 C   0  0  0  1  0  0  0  0  0  0  0  0
    3.6045    3.1902   -7.6433 N   0  0  0  1  0  0  0  0  0  0  0  0
    4.8961    2.9516   -7.1556 N   0  0  0  1  0  0  0  0  0  0  0  0
    6.0247    3.1423   -7.9783 C   0  0  0  1  0  0  0  0  0  0  0  0
    6.5181    4.3979   -8.2787 C   0  0  0  1  0  0  0  0  0  0  0  0
    7.6351    4.5277   -9.0892 C   0  0  0  1  0  0  0  0  0  0  0  0
    8.2522    3.4020   -9.6013 C   0  0  0  1  0  0  0  0  0  0  0  0
    7.7572    2.1427   -9.2999 C   0  0  0  1  0  0  0  0  0  0  0  0
    6.6434    2.0131   -8.4918 C   0  0  0  1  0  0  0  0  0  0  0  0
    9.3347    3.5285  -10.3932 O   0  0  0  1  0  0  0  0  0  0  0  0
    9.7720    4.8887  -10.6195 C   0  0  0  1  0  0  0  0  0  0  0  0
    3.5070    1.4558   -2.1966 N   0  0  0  1  0  0  0  0  0  0  0  0
    4.3994    1.0459   -1.1212 C   0  0  0  1  0  0  0  0  0  0  0  0
    5.2692   -0.1384   -1.5431 C   0  0  0  1  0  0  0  0  0  0  0  0
    6.4772   -0.0937   -0.6009 C   0  0  0  1  0  0  0  0  0  0  0  0
    6.6412    1.3836   -0.2216 C   0  0  0  1  0  0  0  0  0  0  0  0
    5.4459    2.1234   -0.8269 C   0  0  0  1  0  0  0  0  0  0  0  0
    6.2205   -0.9246    0.6220 N   0  0  0  1  0  0  0  0  0  0  0  0
    6.7144    2.1630   -5.0526 H   0  0  0  1  0  0  0  0  0  0  0  0
    1.6981    3.0447   -6.8053 H   0  0  0  1  0  0  0  0  0  0  0  0
    6.0514    5.2451   -7.8967 H   0  0  0  1  0  0  0  0  0  0  0  0
    8.0089    5.4723   -9.3120 H   0  0  0  1  0  0  0  0  0  0  0  0
    8.2239    1.2955   -9.6819 H   0  0  0  1  0  0  0  0  0  0  0  0
    6.2697    1.0685   -8.2690 H   0  0  0  1  0  0  0  0  0  0  0  0
   10.7984    4.8883  -10.9219 H   0  0  0  1  0  0  0  0  0  0  0  0
    9.6669    5.4519   -9.7159 H   0  0  0  1  0  0  0  0  0  0  0  0
    9.1742    5.3320  -11.3883 H   0  0  0  1  0  0  0  0  0  0  0  0
    2.5436    1.4666   -2.0173 H   0  0  0  1  0  0  0  0  0  0  0  0
    3.8247    0.8143   -0.2489 H   0  0  0  1  0  0  0  0  0  0  0  0
    4.7349   -1.0582   -1.4270 H   0  0  0  1  0  0  0  0  0  0  0  0
    5.5814   -0.0326   -2.5610 H   0  0  0  1  0  0  0  0  0  0  0  0
    7.3539   -0.4521   -1.0987 H   0  0  0  1  0  0  0  0  0  0  0  0
    7.5555    1.7686   -0.6223 H   0  0  0  1  0  0  0  0  0  0  0  0
    6.6434    1.4936    0.8427 H   0  0  0  1  0  0  0  0  0  0  0  0
    5.0593    2.8393   -0.1319 H   0  0  0  1  0  0  0  0  0  0  0  0
    5.7333    2.6210   -1.7295 H   0  0  0  1  0  0  0  0  0  0  0  0
    5.3940   -0.6239    1.0542 H   0  0  0  1  0  0  0  0  0  0  0  0
    6.9696   -0.8267    1.2462 H   0  0  0  1  0  0  0  0  0  0  0  0
  1  2  4  0  0  0  0
  1  6  4  0  0  0  0
  2  3  4  0  0  0  0
  2 18  1  0  0  0  0
  3  4  4  0  0  0  0
  4  5  4  0  0  0  0
  4  7  4  0  0  0  0
  5  6  4  0  0  0  0
  5  9  4  0  0  0  0
  6 25  1  0  0  0  0
  7  8  4  0  0  0  0
  7 26  1  0  0  0  0
  8  9  4  0  0  0  0
  9 10  1  0  0  0  0
 10 11  4  0  0  0  0
 10 15  4  0  0  0  0
 11 12  4  0  0  0  0
 11 27  1  0  0  0  0
 12 13  4  0  0  0  0
 12 28  1  0  0  0  0
 13 14  4  0  0  0  0
 13 16  1  0  0  0  0
 14 15  4  0  0  0  0
 14 29  1  0  0  0  0
 15 30  1  0  0  0  0
 16 17  1  0  0  0  0
 17 31  1  0  0  0  0
 17 32  1  0  0  0  0
 17 33  1  0  0  0  0
 18 19  1  0  0  0  0
 18 34  1  0  0  0  0
 19 20  1  0  0  0  0
 19 23  1  0  0  0  0
 19 35  1  0  0  0  0
 20 21  1  0  0  0  0
 20 36  1  0  0  0  0
 20 37  1  0  0  0  0
 21 22  1  0  0  0  0
 21 24  1  0  0  0  0
 21 38  1  0  0  0  0
 22 23  1  0  0  0  0
 22 39  1  0  0  0  0
 22 40  1  0  0  0  0
 23 41  1  0  0  0  0
 23 42  1  0  0  0  0
 24 43  1  0  0  0  0
 24 44  1  0  0  0  0
M  END
> <ConfClashScore>
0 

> <ConfOneFourInteractionScore>
-0.980204 

> <ConfScore>
0.0900121 

> <ConfScorePBest>
0.00167397 

> <ConfTolerance>
0.484304 

$$$$
c13.sdf
 OpenBabel04162418043D

 44 47  0  0  0  0  0  0  0  0999 V2000
    5.9431    0.9516   -3.7316 N   0  0  0  1  0  0  0  0  0  0  0  0
    4.6662    1.2937   -3.7575 C   0  0  0  1  0  0  0  0  0  0  0  0
    4.0258    1.5441   -4.8765 N   0  0  0  1  0  0  0  0  0  0  0  0
    4.6584    1.4592   -6.0496 C   0  0  0  1  0  0  0  0  0  0  0  0
    6.0221    1.0964   -6.0599 C   0  0  0  1  0  0  0  0  0  0  0  0
    6.6491    0.8427   -4.8435 C   0  0  0  1  0  0  0  0  0  0  0  0
    4.2785    1.6563   -7.3953 C   0  0  0  1  0  0  0  0  0  0  0  0
    5.3111    1.4355   -8.1584 N   0  0  0  1  0  0  0  0  0  0  0  0
    6.4158    1.0850   -7.3712 N   0  0  0  1  0  0  0  0  0  0  0  0
    7.7022    0.9352   -7.9564 C   0  0  0  1  0  0  0  0  0  0  0  0
    8.2384    1.9568   -8.7173 C   0  0  0  1  0  0  0  0  0  0  0  0
    9.4954    1.8127   -9.2836 C   0  0  0  1  0  0  0  0  0  0  0  0
   10.2103    0.6455   -9.0919 C   0  0  0  1  0  0  0  0  0  0  0  0
    9.6724   -0.3791   -8.3286 C   0  0  0  1  0  0  0  0  0  0  0  0
    8.4191   -0.2356   -7.7639 C   0  0  0  1  0  0  0  0  0  0  0  0
   11.4786    0.6030   -9.5645 O   0  0  0  1  0  0  0  0  0  0  0  0
   12.2442   -0.5792   -9.2836 C   0  0  0  1  0  0  0  0  0  0  0  0
    3.9449    1.4060   -2.6365 N   0  0  0  1  0  0  0  0  0  0  0  0
    4.4269    1.2085   -1.2700 C   0  0  0  1  0  0  0  0  0  0  0  0
    5.0895   -0.1535   -1.1349 C   0  0  0  1  0  0  0  0  0  0  0  0
    6.4991    0.0590   -0.5588 C   0  0  0  1  0  0  0  0  0  0  0  0
    6.4329    1.4660    0.0090 C   0  0  0  1  0  0  0  0  0  0  0  0
    5.5163    2.2439   -0.9314 C   0  0  0  1  0  0  0  0  0  0  0  0
    6.7910   -0.9238    0.4985 N   0  0  0  1  0  0  0  0  0  0  0  0
    7.6529    0.5728   -4.8103 H   0  0  0  1  0  0  0  0  0  0  0  0
    3.3309    1.9323   -7.7231 H   0  0  0  1  0  0  0  0  0  0  0  0
    7.6988    2.8335   -8.8650 H   0  0  0  1  0  0  0  0  0  0  0  0
    9.9005    2.5830   -9.8529 H   0  0  0  1  0  0  0  0  0  0  0  0
   10.2119   -1.2558   -8.1809 H   0  0  0  1  0  0  0  0  0  0  0  0
    8.0139   -1.0058   -7.1946 H   0  0  0  1  0  0  0  0  0  0  0  0
   11.8860   -1.0310   -8.3823 H   0  0  0  1  0  0  0  0  0  0  0  0
   13.2748   -0.3167   -9.1656 H   0  0  0  1  0  0  0  0  0  0  0  0
   12.1423   -1.2707  -10.0938 H   0  0  0  1  0  0  0  0  0  0  0  0
    3.0001    1.6443   -2.7414 H   0  0  0  1  0  0  0  0  0  0  0  0
    3.6079    1.2931   -0.5866 H   0  0  0  1  0  0  0  0  0  0  0  0
    5.1565   -0.6214   -2.0948 H   0  0  0  1  0  0  0  0  0  0  0  0
    4.5172   -0.7718   -0.4753 H   0  0  0  1  0  0  0  0  0  0  0  0
    7.2416   -0.0106   -1.3260 H   0  0  0  1  0  0  0  0  0  0  0  0
    6.0267    1.4508    0.9988 H   0  0  0  1  0  0  0  0  0  0  0  0
    7.4078    1.9067    0.0297 H   0  0  0  1  0  0  0  0  0  0  0  0
    6.0399    2.5554   -1.8110 H   0  0  0  1  0  0  0  0  0  0  0  0
    5.0979    3.0991   -0.4430 H   0  0  0  1  0  0  0  0  0  0  0  0
    7.0081   -1.7881    0.0908 H   0  0  0  1  0  0  0  0  0  0  0  0
    6.0063   -1.0237    1.0771 H   0  0  0  1  0  0  0  0  0  0  0  0
  1  2  4  0  0  0  0
  1  6  4  0  0  0  0
  2  3  4  0  0  0  0
  2 18  1  0  0  0  0
  3  4  4  0  0  0  0
  4  5  4  0  0  0  0
  4  7  4  0  0  0  0
  5  6  4  0  0  0  0
  5  9  4  0  0  0  0
  6 25  1  0  0  0  0
  7  8  4  0  0  0  0
  7 26  1  0  0  0  0
  8  9  4  0  0  0  0
  9 10  1  0  0  0  0
 10 11  4  0  0  0  0
 10 15  4  0  0  0  0
 11 12  4  0  0  0  0
 11 27  1  0  0  0  0
 12 13  4  0  0  0  0
 12 28  1  0  0  0  0
 13 14  4  0  0  0  0
 13 16  1  0  0  0  0
 14 15  4  0  0  0  0
 14 29  1  0  0  0  0
 15 30  1  0  0  0  0
 16 17  1  0  0  0  0
 17 31  1  0  0  0  0
 17 32  1  0  0  0  0
 17 33  1  0  0  0  0
 18 19  1  0  0  0  0
 18 34  1  0  0  0  0
 19 20  1  0  0  0  0
 19 23  1  0  0  0  0
 19 35  1  0  0  0  0
 20 21  1  0  0  0  0
 20 36  1  0  0  0  0
 20 37  1  0  0  0  0
 21 22  1  0  0  0  0
 21 24  1  0  0  0  0
 21 38  1  0  0  0  0
 22 23  1  0  0  0  0
 22 39  1  0  0  0  0
 22 40  1  0  0  0  0
 23 41  1  0  0  0  0
 23 42  1  0  0  0  0
 24 43  1  0  0  0  0
 24 44  1  0  0  0  0
M  END
> <ConfClashScore>
0 

> <ConfOneFourInteractionScore>
-0.980204 

> <ConfScore>
0.091607 

> <ConfScorePBest>
0.00166065 

> <ConfTolerance>
0.35192 

$$$$
c13.sdf
 OpenBabel04162418043D

 44 47  0  0  0  0  0  0  0  0999 V2000
    2.0364    2.7189   -3.2675 N   0  0  0  1  0  0  0  0  0  0  0  0
    2.5199    2.1989   -2.1520 C   0  0  0  1  0  0  0  0  0  0  0  0
    1.8792    2.2655   -1.0074 N   0  0  0  1  0  0  0  0  0  0  0  0
    0.6928    2.8741   -0.9325 C   0  0  0  1  0  0  0  0  0  0  0  0
    0.1462    3.4406   -2.1036 C   0  0  0  1  0  0  0  0  0  0  0  0
    0.8699    3.3398   -3.2882 C   0  0  0  1  0  0  0  0  0  0  0  0
   -0.2316    3.1154    0.1074 C   0  0  0  1  0  0  0  0  0  0  0  0
   -1.2486    3.7679   -0.3798 N   0  0  0  1  0  0  0  0  0  0  0  0
   -1.0562    3.9914   -1.7494 N   0  0  0  1  0  0  0  0  0  0  0  0
   -2.0644    4.5667   -2.5578 C   0  0  0  1  0  0  0  0  0  0  0  0
   -1.8440    5.7828   -3.1762 C   0  0  0  1  0  0  0  0  0  0  0  0
   -2.8300    6.3440   -3.9727 C   0  0  0  1  0  0  0  0  0  0  0  0
   -4.0355    5.6899   -4.1441 C   0  0  0  1  0  0  0  0  0  0  0  0
   -4.2564    4.4701   -3.5237 C   0  0  0  1  0  0  0  0  0  0  0  0
   -3.2733    3.9105   -2.7295 C   0  0  0  1  0  0  0  0  0  0  0  0
   -4.9163    6.2205   -5.0254 O   0  0  0  1  0  0  0  0  0  0  0  0
   -6.1111    5.4696   -5.2916 C   0  0  0  1  0  0  0  0  0  0  0  0
    3.7126    1.5781   -2.1895 N   0  0  0  1  0  0  0  0  0  0  0  0
    4.4343    1.0121   -1.0487 C   0  0  0  1  0  0  0  0  0  0  0  0
    5.2950   -0.1732   -1.4946 C   0  0  0  1  0  0  0  0  0  0  0  0
    6.5505   -0.0877   -0.6198 C   0  0  0  1  0  0  0  0  0  0  0  0
    6.8113    1.4093   -0.5882 C   0  0  0  1  0  0  0  0  0  0  0  0
    5.4190    2.0392   -0.4739 C   0  0  0  1  0  0  0  0  0  0  0  0
    6.2937   -0.6245    0.7546 N   0  0  0  1  0  0  0  0  0  0  0  0
    0.5001    3.7448   -4.1718 H   0  0  0  1  0  0  0  0  0  0  0  0
   -0.1192    2.8209    1.0984 H   0  0  0  1  0  0  0  0  0  0  0  0
   -0.9385    6.2770   -3.0440 H   0  0  0  1  0  0  0  0  0  0  0  0
   -2.6627    7.2572   -4.4413 H   0  0  0  1  0  0  0  0  0  0  0  0
   -5.1619    3.9760   -3.6559 H   0  0  0  1  0  0  0  0  0  0  0  0
   -3.4405    2.9973   -2.2609 H   0  0  0  1  0  0  0  0  0  0  0  0
   -6.8985    5.8132   -4.6537 H   0  0  0  1  0  0  0  0  0  0  0  0
   -5.9289    4.4318   -5.1053 H   0  0  0  1  0  0  0  0  0  0  0  0
   -6.3963    5.6042   -6.3140 H   0  0  0  1  0  0  0  0  0  0  0  0
    4.1407    1.4966   -3.0673 H   0  0  0  1  0  0  0  0  0  0  0  0
    3.7344    0.7053   -0.2998 H   0  0  0  1  0  0  0  0  0  0  0  0
    4.7811   -1.0970   -1.3287 H   0  0  0  1  0  0  0  0  0  0  0  0
    5.5495   -0.0870   -2.5303 H   0  0  0  1  0  0  0  0  0  0  0  0
    7.3693   -0.6157   -1.0623 H   0  0  0  1  0  0  0  0  0  0  0  0
    7.4147    1.6701    0.2560 H   0  0  0  1  0  0  0  0  0  0  0  0
    7.2975    1.7273   -1.4867 H   0  0  0  1  0  0  0  0  0  0  0  0
    5.1870    2.2418    0.5508 H   0  0  0  1  0  0  0  0  0  0  0  0
    5.3764    2.9484   -1.0364 H   0  0  0  1  0  0  0  0  0  0  0  0
    5.6314   -1.3452    0.7059 H   0  0  0  1  0  0  0  0  0  0  0  0
    5.9528    0.0940    1.3272 H   0  0  0  1  0  0  0  0  0  0  0  0
  1  2  4  0  0  0  0
  1  6  4  0  0  0  0
  2  3  4  0  0  0  0
  2 18  1  0  0  0  0
  3  4  4  0  0  0  0
  4  5  4  0  0  0  0
  4  7  4  0  0  0  0
  5  6  4  0  0  0  0
  5  9  4  0  0  0  0
  6 25  1  0  0  0  0
  7  8  4  0  0  0  0
  7 26  1  0  0  0  0
  8  9  4  0  0  0  0
  9 10  1  0  0  0  0
 10 11  4  0  0  0  0
 10 15  4  0  0  0  0
 11 12  4  0  0  0  0
 11 27  1  0  0  0  0
 12 13  4  0  0  0  0
 12 28  1  0  0  0  0
 13 14  4  0  0  0  0
 13 16  1  0  0  0  0
 14 15  4  0  0  0  0
 14 29  1  0  0  0  0
 15 30  1  0  0  0  0
 16 17  1  0  0  0  0
 17 31  1  0  0  0  0
 17 32  1  0  0  0  0
 17 33  1  0  0  0  0
 18 19  1  0  0  0  0
 18 34  1  0  0  0  0
 19 20  1  0  0  0  0
 19 23  1  0  0  0  0
 19 35  1  0  0  0  0
 20 21  1  0  0  0  0
 20 36  1  0  0  0  0
 20 37  1  0  0  0  0
 21 22  1  0  0  0  0
 21 24  1  0  0  0  0
 21 38  1  0  0  0  0
 22 23  1  0  0  0  0
 22 39  1  0  0  0  0
 22 40  1  0  0  0  0
 23 41  1  0  0  0  0
 23 42  1  0  0  0  0
 24 43  1  0  0  0  0
 24 44  1  0  0  0  0
M  END
> <ConfClashScore>
0 

> <ConfOneFourInteractionScore>
-0.984337 

> <ConfScore>
0.0970472 

> <ConfScorePBest>
0.00164732 

> <ConfTolerance>
0.607569 

$$$$
c13.sdf
 OpenBabel04162418043D

 44 47  0  0  0  0  0  0  0  0999 V2000
    1.7129    1.2950   -3.6805 N   0  0  0  1  0  0  0  0  0  0  0  0
    2.3791    0.8041   -2.6492 C   0  0  0  1  0  0  0  0  0  0  0  0
    1.9586   -0.2380   -1.9694 N   0  0  0  1  0  0  0  0  0  0  0  0
    0.8194   -0.8483   -2.3059 C   0  0  0  1  0  0  0  0  0  0  0  0
    0.0820   -0.3515   -3.4017 C   0  0  0  1  0  0  0  0  0  0  0  0
    0.5761    0.7557   -4.0850 C   0  0  0  1  0  0  0  0  0  0  0  0
    0.1047   -1.9572   -1.8023 C   0  0  0  1  0  0  0  0  0  0  0  0
   -0.9690   -2.1246   -2.5210 N   0  0  0  1  0  0  0  0  0  0  0  0
   -1.0235   -1.1496   -3.5256 N   0  0  0  1  0  0  0  0  0  0  0  0
   -2.1061   -1.1152   -4.4502 C   0  0  0  1  0  0  0  0  0  0  0  0
   -1.8649   -1.2665   -5.8026 C   0  0  0  1  0  0  0  0  0  0  0  0
   -2.9193   -1.2383   -6.7020 C   0  0  0  1  0  0  0  0  0  0  0  0
   -4.2112   -1.0536   -6.2470 C   0  0  0  1  0  0  0  0  0  0  0  0
   -4.4530   -0.9018   -4.8905 C   0  0  0  1  0  0  0  0  0  0  0  0
   -3.4018   -0.9298   -3.9936 C   0  0  0  1  0  0  0  0  0  0  0  0
   -5.3163   -1.0034   -7.0280 O   0  0  0  1  0  0  0  0  0  0  0  0
   -5.1294   -1.1770   -8.4413 C   0  0  0  1  0  0  0  0  0  0  0  0
    3.5311    1.3933   -2.2813 N   0  0  0  1  0  0  0  0  0  0  0  0
    4.3960    1.0847   -1.1391 C   0  0  0  1  0  0  0  0  0  0  0  0
    5.2792   -0.1301   -1.4243 C   0  0  0  1  0  0  0  0  0  0  0  0
    6.4578    0.0048   -0.4540 C   0  0  0  1  0  0  0  0  0  0  0  0
    6.6091    1.5111   -0.2066 C   0  0  0  1  0  0  0  0  0  0  0  0
    5.4323    2.1883   -0.9131 C   0  0  0  1  0  0  0  0  0  0  0  0
    6.1710   -0.6960    0.8033 N   0  0  0  1  0  0  0  0  0  0  0  0
    0.0611    1.1509   -4.8976 H   0  0  0  1  0  0  0  0  0  0  0  0
    0.3886   -2.5435   -0.9916 H   0  0  0  1  0  0  0  0  0  0  0  0
   -0.8923   -1.4015   -6.1455 H   0  0  0  1  0  0  0  0  0  0  0  0
   -2.7382   -1.3562   -7.7193 H   0  0  0  1  0  0  0  0  0  0  0  0
   -5.4255   -0.7668   -4.5476 H   0  0  0  1  0  0  0  0  0  0  0  0
   -3.5828   -0.8120   -2.9763 H   0  0  0  1  0  0  0  0  0  0  0  0
   -5.4112   -2.1711   -8.7195 H   0  0  0  1  0  0  0  0  0  0  0  0
   -4.1005   -1.0163   -8.6872 H   0  0  0  1  0  0  0  0  0  0  0  0
   -5.7372   -0.4730   -8.9704 H   0  0  0  1  0  0  0  0  0  0  0  0
    3.8329    2.1285   -2.8548 H   0  0  0  1  0  0  0  0  0  0  0  0
    3.7951    0.9318   -0.2671 H   0  0  0  1  0  0  0  0  0  0  0  0
    4.7423   -1.0373   -1.2409 H   0  0  0  1  0  0  0  0  0  0  0  0
    5.6223   -0.1168   -2.4377 H   0  0  0  1  0  0  0  0  0  0  0  0
    7.3496   -0.3945   -0.8901 H   0  0  0  1  0  0  0  0  0  0  0  0
    7.5349    1.8611   -0.6130 H   0  0  0  1  0  0  0  0  0  0  0  0
    6.5787    1.7181    0.8428 H   0  0  0  1  0  0  0  0  0  0  0  0
    5.7467    2.6023   -1.8483 H   0  0  0  1  0  0  0  0  0  0  0  0
    5.0241    2.9633   -0.2986 H   0  0  0  1  0  0  0  0  0  0  0  0
    7.0021   -1.0639    1.1697 H   0  0  0  1  0  0  0  0  0  0  0  0
    5.5382   -1.4249    0.6338 H   0  0  0  1  0  0  0  0  0  0  0  0
  1  2  4  0  0  0  0
  1  6  4  0  0  0  0
  2  3  4  0  0  0  0
  2 18  1  0  0  0  0
  3  4  4  0  0  0  0
  4  5  4  0  0  0  0
  4  7  4  0  0  0  0
  5  6  4  0  0  0  0
  5  9  4  0  0  0  0
  6 25  1  0  0  0  0
  7  8  4  0  0  0  0
  7 26  1  0  0  0  0
  8  9  4  0  0  0  0
  9 10  1  0  0  0  0
 10 11  4  0  0  0  0
 10 15  4  0  0  0  0
 11 12  4  0  0  0  0
 11 27  1  0  0  0  0
 12 13  4  0  0  0  0
 12 28  1  0  0  0  0
 13 14  4  0  0  0  0
 13 16  1  0  0  0  0
 14 15  4  0  0  0  0
 14 29  1  0  0  0  0
 15 30  1  0  0  0  0
 16 17  1  0  0  0  0
 17 31  1  0  0  0  0
 17 32  1  0  0  0  0
 17 33  1  0  0  0  0
 18 19  1  0  0  0  0
 18 34  1  0  0  0  0
 19 20  1  0  0  0  0
 19 23  1  0  0  0  0
 19 35  1  0  0  0  0
 20 21  1  0  0  0  0
 20 36  1  0  0  0  0
 20 37  1  0  0  0  0
 21 22  1  0  0  0  0
 21 24  1  0  0  0  0
 21 38  1  0  0  0  0
 22 23  1  0  0  0  0
 22 39  1  0  0  0  0
 22 40  1  0  0  0  0
 23 41  1  0  0  0  0
 23 42  1  0  0  0  0
 24 43  1  0  0  0  0
 24 44  1  0  0  0  0
M  END
> <ConfClashScore>
0 

> <ConfOneFourInteractionScore>
-0.984337 

> <ConfScore>
0.100903 

> <ConfScorePBest>
0.00163399 

> <ConfTolerance>
0.674436 

$$$$
c13.sdf
 OpenBabel04162418043D

 44 47  0  0  0  0  0  0  0  0999 V2000
    3.8253    1.6658   -5.0377 N   0  0  0  1  0  0  0  0  0  0  0  0
    3.6216    1.6813   -3.7313 C   0  0  0  1  0  0  0  0  0  0  0  0
    2.4813    2.0587   -3.1999 N   0  0  0  1  0  0  0  0  0  0  0  0
    1.4692    2.4475   -3.9797 C   0  0  0  1  0  0  0  0  0  0  0  0
    1.6511    2.4435   -5.3790 C   0  0  0  1  0  0  0  0  0  0  0  0
    2.8808    2.0336   -5.8858 C   0  0  0  1  0  0  0  0  0  0  0  0
    0.1529    2.8993   -3.7406 C   0  0  0  1  0  0  0  0  0  0  0  0
   -0.4183    3.1488   -4.8847 N   0  0  0  1  0  0  0  0  0  0  0  0
    0.4758    2.8797   -5.9293 N   0  0  0  1  0  0  0  0  0  0  0  0
    0.0130    3.0001   -7.2553 C   0  0  0  1  0  0  0  0  0  0  0  0
   -1.3525    3.0826   -7.4520 C   0  0  0  1  0  0  0  0  0  0  0  0
   -1.8614    3.2076   -8.7353 C   0  0  0  1  0  0  0  0  0  0  0  0
   -1.0037    3.2444   -9.8185 C   0  0  0  1  0  0  0  0  0  0  0  0
    0.3659    3.1616   -9.6210 C   0  0  0  1  0  0  0  0  0  0  0  0
    0.8734    3.0370   -8.3414 C   0  0  0  1  0  0  0  0  0  0  0  0
   -1.4986    3.3606  -11.0661 O   0  0  0  1  0  0  0  0  0  0  0  0
   -2.9379    3.2557  -11.1659 C   0  0  0  1  0  0  0  0  0  0  0  0
    4.6188    1.2963   -2.9147 N   0  0  0  1  0  0  0  0  0  0  0  0
    4.4955    1.2136   -1.4653 C   0  0  0  1  0  0  0  0  0  0  0  0
    4.9624   -0.1576   -0.9646 C   0  0  0  1  0  0  0  0  0  0  0  0
    6.4505    0.0212   -0.6637 C   0  0  0  1  0  0  0  0  0  0  0  0
    6.4861    1.4196   -0.0423 C   0  0  0  1  0  0  0  0  0  0  0  0
    5.4238    2.2301   -0.7886 C   0  0  0  1  0  0  0  0  0  0  0  0
    6.9333   -1.0044    0.2917 N   0  0  0  1  0  0  0  0  0  0  0  0
    3.0530    2.0172   -6.9114 H   0  0  0  1  0  0  0  0  0  0  0  0
   -0.2879    3.0140   -2.8056 H   0  0  0  1  0  0  0  0  0  0  0  0
   -1.9982    3.0509   -6.6373 H   0  0  0  1  0  0  0  0  0  0  0  0
   -2.8887    3.2737   -8.8831 H   0  0  0  1  0  0  0  0  0  0  0  0
    1.0116    3.1933  -10.4356 H   0  0  0  1  0  0  0  0  0  0  0  0
    1.9008    2.9709   -8.1936 H   0  0  0  1  0  0  0  0  0  0  0  0
   -3.3920    4.0867  -10.6677 H   0  0  0  1  0  0  0  0  0  0  0  0
   -3.2616    2.3449  -10.7071 H   0  0  0  1  0  0  0  0  0  0  0  0
   -3.2248    3.2580  -12.1967 H   0  0  0  1  0  0  0  0  0  0  0  0
    5.4791    1.0573   -3.3185 H   0  0  0  1  0  0  0  0  0  0  0  0
    3.4785    1.3891   -1.1827 H   0  0  0  1  0  0  0  0  0  0  0  0
    4.8175   -0.9031   -1.7183 H   0  0  0  1  0  0  0  0  0  0  0  0
    4.4300   -0.4366   -0.0793 H   0  0  0  1  0  0  0  0  0  0  0  0
    7.0354   -0.0209   -1.5587 H   0  0  0  1  0  0  0  0  0  0  0  0
    6.2533    1.3704    1.0009 H   0  0  0  1  0  0  0  0  0  0  0  0
    7.4520    1.8612   -0.1722 H   0  0  0  1  0  0  0  0  0  0  0  0
    5.8854    2.8555   -1.5239 H   0  0  0  1  0  0  0  0  0  0  0  0
    4.8705    2.8354   -0.1013 H   0  0  0  1  0  0  0  0  0  0  0  0
    6.4841   -1.8566    0.1114 H   0  0  0  1  0  0  0  0  0  0  0  0
    6.7336   -0.7175    1.2072 H   0  0  0  1  0  0  0  0  0  0  0  0
  1  2  4  0  0  0  0
  1  6  4  0  0  0  0
  2  3  4  0  0  0  0
  2 18  1  0  0  0  0
  3  4  4  0  0  0  0
  4  5  4  0  0  0  0
  4  7  4  0  0  0  0
  5  6  4  0  0  0  0
  5  9  4  0  0  0  0
  6 25  1  0  0  0  0
  7  8  4  0  0  0  0
  7 26  1  0  0  0  0
  8  9  4  0  0  0  0
  9 10  1  0  0  0  0
 10 11  4  0  0  0  0
 10 15  4  0  0  0  0
 11 12  4  0  0  0  0
 11 27  1  0  0  0  0
 12 13  4  0  0  0  0
 12 28  1  0  0  0  0
 13 14  4  0  0  0  0
 13 16  1  0  0  0  0
 14 15  4  0  0  0  0
 14 29  1  0  0  0  0
 15 30  1  0  0  0  0
 16 17  1  0  0  0  0
 17 31  1  0  0  0  0
 17 32  1  0  0  0  0
 17 33  1  0  0  0  0
 18 19  1  0  0  0  0
 18 34  1  0  0  0  0
 19 20  1  0  0  0  0
 19 23  1  0  0  0  0
 19 35  1  0  0  0  0
 20 21  1  0  0  0  0
 20 36  1  0  0  0  0
 20 37  1  0  0  0  0
 21 22  1  0  0  0  0
 21 24  1  0  0  0  0
 21 38  1  0  0  0  0
 22 23  1  0  0  0  0
 22 39  1  0  0  0  0
 22 40  1  0  0  0  0
 23 41  1  0  0  0  0
 23 42  1  0  0  0  0
 24 43  1  0  0  0  0
 24 44  1  0  0  0  0
M  END
> <ConfClashScore>
0 

> <ConfOneFourInteractionScore>
-0.984337 

> <ConfScore>
0.10572 

> <ConfScorePBest>
0.00162066 

> <ConfTolerance>
0.77167 

$$$$
c13.sdf
 OpenBabel04162418043D

 44 47  0  0  0  0  0  0  0  0999 V2000
    3.1464    2.7147   -3.5167 N   0  0  0  1  0  0  0  0  0  0  0  0
    4.1256    1.9363   -3.9449 C   0  0  0  1  0  0  0  0  0  0  0  0
    4.4578    1.8539   -5.2129 N   0  0  0  1  0  0  0  0  0  0  0  0
    3.8022    2.5697   -6.1302 C   0  0  0  1  0  0  0  0  0  0  0  0
    2.7510    3.4117   -5.7090 C   0  0  0  1  0  0  0  0  0  0  0  0
    2.4432    3.4588   -4.3525 C   0  0  0  1  0  0  0  0  0  0  0  0
    3.9013    2.7107   -7.5317 C   0  0  0  1  0  0  0  0  0  0  0  0
    2.9968    3.5586   -7.9321 N   0  0  0  1  0  0  0  0  0  0  0  0
    2.2596    4.0190   -6.8333 N   0  0  0  1  0  0  0  0  0  0  0  0
    1.1358    4.8800   -6.9759 C   0  0  0  1  0  0  0  0  0  0  0  0
    0.8814    5.8477   -6.0225 C   0  0  0  1  0  0  0  0  0  0  0  0
   -0.2104    6.6899   -6.1643 C   0  0  0  1  0  0  0  0  0  0  0  0
   -1.0476    6.5586   -7.2561 C   0  0  0  1  0  0  0  0  0  0  0  0
   -0.7922    5.5879   -8.2123 C   0  0  0  1  0  0  0  0  0  0  0  0
    0.2963    4.7481   -8.0711 C   0  0  0  1  0  0  0  0  0  0  0  0
   -2.1326    7.3451   -7.4509 O   0  0  0  1  0  0  0  0  0  0  0  0
   -2.4805    8.2560   -6.3965 C   0  0  0  1  0  0  0  0  0  0  0  0
    4.8082    1.2004   -3.0492 N   0  0  0  1  0  0  0  0  0  0  0  0
    4.5234    1.1928   -1.6107 C   0  0  0  1  0  0  0  0  0  0  0  0
    4.8659   -0.1720   -1.0033 C   0  0  0  1  0  0  0  0  0  0  0  0
    6.3198   -0.0445   -0.5483 C   0  0  0  1  0  0  0  0  0  0  0  0
    6.3565    1.3791    0.0126 C   0  0  0  1  0  0  0  0  0  0  0  0
    5.4219    2.1988   -0.8801 C   0  0  0  1  0  0  0  0  0  0  0  0
    6.6428   -1.0344    0.4881 N   0  0  0  1  0  0  0  0  0  0  0  0
    1.6752    4.0671   -4.0037 H   0  0  0  1  0  0  0  0  0  0  0  0
    4.5837    2.2189   -8.1433 H   0  0  0  1  0  0  0  0  0  0  0  0
    1.5090    5.9439   -5.1988 H   0  0  0  1  0  0  0  0  0  0  0  0
   -0.3996    7.4207   -5.4489 H   0  0  0  1  0  0  0  0  0  0  0  0
   -1.4198    5.4917   -9.0360 H   0  0  0  1  0  0  0  0  0  0  0  0
    0.4856    4.0172   -8.7864 H   0  0  0  1  0  0  0  0  0  0  0  0
   -2.6404    7.7095   -5.4906 H   0  0  0  1  0  0  0  0  0  0  0  0
   -3.3755    8.7802   -6.6592 H   0  0  0  1  0  0  0  0  0  0  0  0
   -1.6847    8.9570   -6.2541 H   0  0  0  1  0  0  0  0  0  0  0  0
    5.5390    0.6361   -3.3775 H   0  0  0  1  0  0  0  0  0  0  0  0
    3.4917    1.4262   -1.4496 H   0  0  0  1  0  0  0  0  0  0  0  0
    4.2280   -0.3845   -0.1708 H   0  0  0  1  0  0  0  0  0  0  0  0
    4.7669   -0.9457   -1.7357 H   0  0  0  1  0  0  0  0  0  0  0  0
    6.9951   -0.1553   -1.3709 H   0  0  0  1  0  0  0  0  0  0  0  0
    6.0103    1.3903    1.0250 H   0  0  0  1  0  0  0  0  0  0  0  0
    7.3512    1.7711   -0.0290 H   0  0  0  1  0  0  0  0  0  0  0  0
    5.9902    2.7674   -1.5863 H   0  0  0  1  0  0  0  0  0  0  0  0
    4.8279    2.8601   -0.2845 H   0  0  0  1  0  0  0  0  0  0  0  0
    6.7159   -0.5866    1.3567 H   0  0  0  1  0  0  0  0  0  0  0  0
    7.4948   -1.4677    0.2715 H   0  0  0  1  0  0  0  0  0  0  0  0
  1  2  4  0  0  0  0
  1  6  4  0  0  0  0
  2  3  4  0  0  0  0
  2 18  1  0  0  0  0
  3  4  4  0  0  0  0
  4  5  4  0  0  0  0
  4  7  4  0  0  0  0
  5  6  4  0  0  0  0
  5  9  4  0  0  0  0
  6 25  1  0  0  0  0
  7  8  4  0  0  0  0
  7 26  1  0  0  0  0
  8  9  4  0  0  0  0
  9 10  1  0  0  0  0
 10 11  4  0  0  0  0
 10 15  4  0  0  0  0
 11 12  4  0  0  0  0
 11 27  1  0  0  0  0
 12 13  4  0  0  0  0
 12 28  1  0  0  0  0
 13 14  4  0  0  0  0
 13 16  1  0  0  0  0
 14 15  4  0  0  0  0
 14 29  1  0  0  0  0
 15 30  1  0  0  0  0
 16 17  1  0  0  0  0
 17 31  1  0  0  0  0
 17 32  1  0  0  0  0
 17 33  1  0  0  0  0
 18 19  1  0  0  0  0
 18 34  1  0  0  0  0
 19 20  1  0  0  0  0
 19 23  1  0  0  0  0
 19 35  1  0  0  0  0
 20 21  1  0  0  0  0
 20 36  1  0  0  0  0
 20 37  1  0  0  0  0
 21 22  1  0  0  0  0
 21 24  1  0  0  0  0
 21 38  1  0  0  0  0
 22 23  1  0  0  0  0
 22 39  1  0  0  0  0
 22 40  1  0  0  0  0
 23 41  1  0  0  0  0
 23 42  1  0  0  0  0
 24 43  1  0  0  0  0
 24 44  1  0  0  0  0
M  END
> <ConfClashScore>
0 

> <ConfOneFourInteractionScore>
-0.984337 

> <ConfScore>
0.107939 

> <ConfScorePBest>
0.00160733 

> <ConfTolerance>
0.702323 

$$$$
c13.sdf
 OpenBabel04162418043D

 44 47  0  0  0  0  0  0  0  0999 V2000
    4.4080    2.3444   -4.7697 N   0  0  0  1  0  0  0  0  0  0  0  0
    4.9147    1.8308   -3.6617 C   0  0  0  1  0  0  0  0  0  0  0  0
    6.1810    1.4996   -3.5529 N   0  0  0  1  0  0  0  0  0  0  0  0
    7.0152    1.6750   -4.5809 C   0  0  0  1  0  0  0  0  0  0  0  0
    6.5088    2.2210   -5.7795 C   0  0  0  1  0  0  0  0  0  0  0  0
    5.1585    2.5533   -5.8373 C   0  0  0  1  0  0  0  0  0  0  0  0
    8.3904    1.4330   -4.7918 C   0  0  0  1  0  0  0  0  0  0  0  0
    8.6981    1.7962   -6.0045 N   0  0  0  1  0  0  0  0  0  0  0  0
    7.5599    2.2914   -6.6541 N   0  0  0  1  0  0  0  0  0  0  0  0
    7.6614    2.9306   -7.9118 C   0  0  0  1  0  0  0  0  0  0  0  0
    8.0267    2.2035   -9.0289 C   0  0  0  1  0  0  0  0  0  0  0  0
    8.1210    2.8289  -10.2624 C   0  0  0  1  0  0  0  0  0  0  0  0
    7.8550    4.1806  -10.3743 C   0  0  0  1  0  0  0  0  0  0  0  0
    7.4885    4.9097   -9.2537 C   0  0  0  1  0  0  0  0  0  0  0  0
    7.3945    4.2863   -8.0237 C   0  0  0  1  0  0  0  0  0  0  0  0
    7.9847    4.6814  -11.6257 O   0  0  0  1  0  0  0  0  0  0  0  0
    7.7445    6.0867  -11.7983 C   0  0  0  1  0  0  0  0  0  0  0  0
    4.1085    1.6409   -2.6112 N   0  0  0  1  0  0  0  0  0  0  0  0
    4.4316    1.0825   -1.2953 C   0  0  0  1  0  0  0  0  0  0  0  0
    5.2501   -0.1724   -1.4576 C   0  0  0  1  0  0  0  0  0  0  0  0
    6.4454   -0.0250   -0.5289 C   0  0  0  1  0  0  0  0  0  0  0  0
    6.6622    1.4961   -0.4452 C   0  0  0  1  0  0  0  0  0  0  0  0
    5.2549    2.0690   -0.5077 C   0  0  0  1  0  0  0  0  0  0  0  0
    6.1470   -0.5893    0.8081 N   0  0  0  1  0  0  0  0  0  0  0  0
    4.7484    2.9579   -6.7032 H   0  0  0  1  0  0  0  0  0  0  0  0
    9.0488    1.0313   -4.0942 H   0  0  0  1  0  0  0  0  0  0  0  0
    8.2309    1.1873   -8.9441 H   0  0  0  1  0  0  0  0  0  0  0  0
    8.3920    2.2810  -11.1038 H   0  0  0  1  0  0  0  0  0  0  0  0
    7.2844    5.9260   -9.3385 H   0  0  0  1  0  0  0  0  0  0  0  0
    7.1235    4.8342   -7.1823 H   0  0  0  1  0  0  0  0  0  0  0  0
    6.7492    6.2370  -12.1611 H   0  0  0  1  0  0  0  0  0  0  0  0
    8.4446    6.4841  -12.5032 H   0  0  0  1  0  0  0  0  0  0  0  0
    7.8608    6.5862  -10.8592 H   0  0  0  1  0  0  0  0  0  0  0  0
    3.1754    1.9118   -2.7390 H   0  0  0  1  0  0  0  0  0  0  0  0
    3.5266    0.8615   -0.7691 H   0  0  0  1  0  0  0  0  0  0  0  0
    5.5785   -0.2720   -2.4710 H   0  0  0  1  0  0  0  0  0  0  0  0
    4.6717   -1.0299   -1.1836 H   0  0  0  1  0  0  0  0  0  0  0  0
    7.3070   -0.5105   -0.9374 H   0  0  0  1  0  0  0  0  0  0  0  0
    7.1412    1.7625    0.4737 H   0  0  0  1  0  0  0  0  0  0  0  0
    7.2512    1.8426   -1.2686 H   0  0  0  1  0  0  0  0  0  0  0  0
    4.8560    2.1800    0.4789 H   0  0  0  1  0  0  0  0  0  0  0  0
    5.2634    3.0197   -0.9986 H   0  0  0  1  0  0  0  0  0  0  0  0
    6.8923   -0.4017    1.4161 H   0  0  0  1  0  0  0  0  0  0  0  0
    6.0230   -1.5585    0.7330 H   0  0  0  1  0  0  0  0  0  0  0  0
  1  2  4  0  0  0  0
  1  6  4  0  0  0  0
  2  3  4  0  0  0  0
  2 18  1  0  0  0  0
  3  4  4  0  0  0  0
  4  5  4  0  0  0  0
  4  7  4  0  0  0  0
  5  6  4  0  0  0  0
  5  9  4  0  0  0  0
  6 25  1  0  0  0  0
  7  8  4  0  0  0  0
  7 26  1  0  0  0  0
  8  9  4  0  0  0  0
  9 10  1  0  0  0  0
 10 11  4  0  0  0  0
 10 15  4  0  0  0  0
 11 12  4  0  0  0  0
 11 27  1  0  0  0  0
 12 13  4  0  0  0  0
 12 28  1  0  0  0  0
 13 14  4  0  0  0  0
 13 16  1  0  0  0  0
 14 15  4  0  0  0  0
 14 29  1  0  0  0  0
 15 30  1  0  0  0  0
 16 17  1  0  0  0  0
 17 31  1  0  0  0  0
 17 32  1  0  0  0  0
 17 33  1  0  0  0  0
 18 19  1  0  0  0  0
 18 34  1  0  0  0  0
 19 20  1  0  0  0  0
 19 23  1  0  0  0  0
 19 35  1  0  0  0  0
 20 21  1  0  0  0  0
 20 36  1  0  0  0  0
 20 37  1  0  0  0  0
 21 22  1  0  0  0  0
 21 24  1  0  0  0  0
 21 38  1  0  0  0  0
 22 23  1  0  0  0  0
 22 39  1  0  0  0  0
 22 40  1  0  0  0  0
 23 41  1  0  0  0  0
 23 42  1  0  0  0  0
 24 43  1  0  0  0  0
 24 44  1  0  0  0  0
M  END
> <ConfClashScore>
0 

> <ConfOneFourInteractionScore>
-0.982693 

> <ConfScore>
0.109774 

> <ConfScorePBest>
0.00159401 

> <ConfTolerance>
0.617809 

$$$$
c13.sdf
 OpenBabel04162418043D

 44 47  0  0  0  0  0  0  0  0999 V2000
    5.4270    2.1412   -5.0337 N   0  0  0  1  0  0  0  0  0  0  0  0
    5.0827    2.3220   -3.7699 C   0  0  0  1  0  0  0  0  0  0  0  0
    4.8550    3.5127   -3.2646 N   0  0  0  1  0  0  0  0  0  0  0  0
    4.9667    4.6026   -4.0282 C   0  0  0  1  0  0  0  0  0  0  0  0
    5.3324    4.4472   -5.3822 C   0  0  0  1  0  0  0  0  0  0  0  0
    5.5613    3.1614   -5.8631 C   0  0  0  1  0  0  0  0  0  0  0  0
    4.7978    5.9871   -3.8074 C   0  0  0  1  0  0  0  0  0  0  0  0
    5.0371    6.6207   -4.9204 N   0  0  0  1  0  0  0  0  0  0  0  0
    5.3730    5.7036   -5.9249 N   0  0  0  1  0  0  0  0  0  0  0  0
    5.5812    6.1529   -7.2587 C   0  0  0  1  0  0  0  0  0  0  0  0
    4.6006    6.8836   -7.9026 C   0  0  0  1  0  0  0  0  0  0  0  0
    4.8057    7.3259   -9.2002 C   0  0  0  1  0  0  0  0  0  0  0  0
    5.9884    7.0316   -9.8520 C   0  0  0  1  0  0  0  0  0  0  0  0
    6.9718    6.2987   -9.2061 C   0  0  0  1  0  0  0  0  0  0  0  0
    6.7675    5.8576   -7.9122 C   0  0  0  1  0  0  0  0  0  0  0  0
    6.3019    7.4079  -11.1299 O   0  0  0  1  0  0  0  0  0  0  0  0
    5.3374    8.3072  -11.6985 C   0  0  0  1  0  0  0  0  0  0  0  0
    4.9606    1.2469   -2.9707 N   0  0  0  1  0  0  0  0  0  0  0  0
    4.5552    1.1906   -1.5634 C   0  0  0  1  0  0  0  0  0  0  0  0
    4.8904   -0.1768   -0.9579 C   0  0  0  1  0  0  0  0  0  0  0  0
    6.3789   -0.0430   -0.6820 C   0  0  0  1  0  0  0  0  0  0  0  0
    6.5470    1.3911   -0.1690 C   0  0  0  1  0  0  0  0  0  0  0  0
    5.3614    2.1890   -0.7281 C   0  0  0  1  0  0  0  0  0  0  0  0
    6.8164   -1.0326    0.3577 N   0  0  0  1  0  0  0  0  0  0  0  0
    5.8326    3.0065   -6.8550 H   0  0  0  1  0  0  0  0  0  0  0  0
    4.5270    6.4281   -2.9054 H   0  0  0  1  0  0  0  0  0  0  0  0
    3.7090    7.1017   -7.4136 H   0  0  0  1  0  0  0  0  0  0  0  0
    4.0695    7.8793   -9.6834 H   0  0  0  1  0  0  0  0  0  0  0  0
    7.8634    6.0806   -9.6950 H   0  0  0  1  0  0  0  0  0  0  0  0
    7.5036    5.3043   -7.4290 H   0  0  0  1  0  0  0  0  0  0  0  0
    5.6440    8.5820  -12.6861 H   0  0  0  1  0  0  0  0  0  0  0  0
    5.2663    9.1847  -11.0903 H   0  0  0  1  0  0  0  0  0  0  0  0
    4.3832    7.8251  -11.7428 H   0  0  0  1  0  0  0  0  0  0  0  0
    5.1713    0.3844   -3.3856 H   0  0  0  1  0  0  0  0  0  0  0  0
    3.5072    1.3919   -1.4853 H   0  0  0  1  0  0  0  0  0  0  0  0
    4.3415   -0.3474   -0.0554 H   0  0  0  1  0  0  0  0  0  0  0  0
    4.6930   -0.9678   -1.6509 H   0  0  0  1  0  0  0  0  0  0  0  0
    6.9444   -0.1927   -1.5780 H   0  0  0  1  0  0  0  0  0  0  0  0
    6.5323    1.4061    0.9008 H   0  0  0  1  0  0  0  0  0  0  0  0
    7.4698    1.8042   -0.5194 H   0  0  0  1  0  0  0  0  0  0  0  0
    4.7634    2.5783    0.0693 H   0  0  0  1  0  0  0  0  0  0  0  0
    5.7084    2.9949   -1.3405 H   0  0  0  1  0  0  0  0  0  0  0  0
    6.0295   -1.4701    0.7446 H   0  0  0  1  0  0  0  0  0  0  0  0
    7.3112   -0.5669    1.0639 H   0  0  0  1  0  0  0  0  0  0  0  0
  1  2  4  0  0  0  0
  1  6  4  0  0  0  0
  2  3  4  0  0  0  0
  2 18  1  0  0  0  0
  3  4  4  0  0  0  0
  4  5  4  0  0  0  0
  4  7  4  0  0  0  0
  5  6  4  0  0  0  0
  5  9  4  0  0  0  0
  6 25  1  0  0  0  0
  7  8  4  0  0  0  0
  7 26  1  0  0  0  0
  8  9  4  0  0  0  0
  9 10  1  0  0  0  0
 10 11  4  0  0  0  0
 10 15  4  0  0  0  0
 11 12  4  0  0  0  0
 11 27  1  0  0  0  0
 12 13  4  0  0  0  0
 12 28  1  0  0  0  0
 13 14  4  0  0  0  0
 13 16  1  0  0  0  0
 14 15  4  0  0  0  0
 14 29  1  0  0  0  0
 15 30  1  0  0  0  0
 16 17  1  0  0  0  0
 17 31  1  0  0  0  0
 17 32  1  0  0  0  0
 17 33  1  0  0  0  0
 18 19  1  0  0  0  0
 18 34  1  0  0  0  0
 19 20  1  0  0  0  0
 19 23  1  0  0  0  0
 19 35  1  0  0  0  0
 20 21  1  0  0  0  0
 20 36  1  0  0  0  0
 20 37  1  0  0  0  0
 21 22  1  0  0  0  0
 21 24  1  0  0  0  0
 21 38  1  0  0  0  0
 22 23  1  0  0  0  0
 22 39  1  0  0  0  0
 22 40  1  0  0  0  0
 23 41  1  0  0  0  0
 23 42  1  0  0  0  0
 24 43  1  0  0  0  0
 24 44  1  0  0  0  0
M  END
> <ConfClashScore>
0 

> <ConfOneFourInteractionScore>
-0.985399 

> <ConfScore>
0.112002 

> <ConfScorePBest>
0.00158068 

> <ConfTolerance>
0.852606 

$$$$
c13.sdf
 OpenBabel04162418043D

 44 47  0  0  0  0  0  0  0  0999 V2000
    2.8292    1.9815   -4.2431 N   0  0  0  1  0  0  0  0  0  0  0  0
    3.8263    1.7546   -3.4048 C   0  0  0  1  0  0  0  0  0  0  0  0
    5.0857    1.8631   -3.7613 N   0  0  0  1  0  0  0  0  0  0  0  0
    5.4060    2.2137   -5.0095 C   0  0  0  1  0  0  0  0  0  0  0  0
    4.3672    2.4638   -5.9313 C   0  0  0  1  0  0  0  0  0  0  0  0
    3.0513    2.3333   -5.4975 C   0  0  0  1  0  0  0  0  0  0  0  0
    6.6214    2.4150   -5.6998 C   0  0  0  1  0  0  0  0  0  0  0  0
    6.3534    2.7561   -6.9283 N   0  0  0  1  0  0  0  0  0  0  0  0
    4.9657    2.7988   -7.1163 N   0  0  0  1  0  0  0  0  0  0  0  0
    4.3682    3.1381   -8.3470 C   0  0  0  1  0  0  0  0  0  0  0  0
    3.0542    2.7590   -8.5471 C   0  0  0  1  0  0  0  0  0  0  0  0
    2.4163    3.0720   -9.7373 C   0  0  0  1  0  0  0  0  0  0  0  0
    3.0958    3.7583  -10.7261 C   0  0  0  1  0  0  0  0  0  0  0  0
    4.4136    4.1384  -10.5252 C   0  0  0  1  0  0  0  0  0  0  0  0
    5.0498    3.8264   -9.3385 C   0  0  0  1  0  0  0  0  0  0  0  0
    2.5808    4.1137  -11.9271 O   0  0  0  1  0  0  0  0  0  0  0  0
    1.1698    3.9261  -12.1175 C   0  0  0  1  0  0  0  0  0  0  0  0
    3.4935    1.4040   -2.1575 N   0  0  0  1  0  0  0  0  0  0  0  0
    4.4204    1.0843   -1.0651 C   0  0  0  1  0  0  0  0  0  0  0  0
    5.2833   -0.1304   -1.4072 C   0  0  0  1  0  0  0  0  0  0  0  0
    6.5137   -0.0054   -0.5020 C   0  0  0  1  0  0  0  0  0  0  0  0
    6.6824    1.4986   -0.2522 C   0  0  0  1  0  0  0  0  0  0  0  0
    5.4705    2.1838   -0.8880 C   0  0  0  1  0  0  0  0  0  0  0  0
    6.2903   -0.7284    0.7876 N   0  0  0  1  0  0  0  0  0  0  0  0
    2.2586    2.5091   -6.1475 H   0  0  0  1  0  0  0  0  0  0  0  0
    7.5732    2.3086   -5.2945 H   0  0  0  1  0  0  0  0  0  0  0  0
    2.5442    2.2391   -7.8047 H   0  0  0  1  0  0  0  0  0  0  0  0
    1.4263    2.7903   -9.8863 H   0  0  0  1  0  0  0  0  0  0  0  0
    4.9237    4.6583  -11.2676 H   0  0  0  1  0  0  0  0  0  0  0  0
    6.0398    4.1081   -9.1895 H   0  0  0  1  0  0  0  0  0  0  0  0
    0.6320    4.6412  -11.5308 H   0  0  0  1  0  0  0  0  0  0  0  0
    0.8973    2.9374  -11.8123 H   0  0  0  1  0  0  0  0  0  0  0  0
    0.9288    4.0599  -13.1514 H   0  0  0  1  0  0  0  0  0  0  0  0
    2.5363    1.3558   -1.9528 H   0  0  0  1  0  0  0  0  0  0  0  0
    3.8678    0.9262   -0.1625 H   0  0  0  1  0  0  0  0  0  0  0  0
    5.5703   -0.1102   -2.4378 H   0  0  0  1  0  0  0  0  0  0  0  0
    4.7549   -1.0377   -1.2013 H   0  0  0  1  0  0  0  0  0  0  0  0
    7.3792   -0.4035   -0.9893 H   0  0  0  1  0  0  0  0  0  0  0  0
    7.5855    1.8495   -0.7061 H   0  0  0  1  0  0  0  0  0  0  0  0
    6.7101    1.6977    0.7988 H   0  0  0  1  0  0  0  0  0  0  0  0
    5.0987    2.9551   -0.2463 H   0  0  0  1  0  0  0  0  0  0  0  0
    5.7342    2.6041   -1.8360 H   0  0  0  1  0  0  0  0  0  0  0  0
    6.6239   -1.6466    0.7100 H   0  0  0  1  0  0  0  0  0  0  0  0
    5.3317   -0.7454    0.9905 H   0  0  0  1  0  0  0  0  0  0  0  0
  1  2  4  0  0  0  0
  1  6  4  0  0  0  0
  2  3  4  0  0  0  0
  2 18  1  0  0  0  0
  3  4  4  0  0  0  0
  4  5  4  0  0  0  0
  4  7  4  0  0  0  0
  5  6  4  0  0  0  0
  5  9  4  0  0  0  0
  6 25  1  0  0  0  0
  7  8  4  0  0  0  0
  7 26  1  0  0  0  0
  8  9  4  0  0  0  0
  9 10  1  0  0  0  0
 10 11  4  0  0  0  0
 10 15  4  0  0  0  0
 11 12  4  0  0  0  0
 11 27  1  0  0  0  0
 12 13  4  0  0  0  0
 12 28  1  0  0  0  0
 13 14  4  0  0  0  0
 13 16  1  0  0  0  0
 14 15  4  0  0  0  0
 14 29  1  0  0  0  0
 15 30  1  0  0  0  0
 16 17  1  0  0  0  0
 17 31  1  0  0  0  0
 17 32  1  0  0  0  0
 17 33  1  0  0  0  0
 18 19  1  0  0  0  0
 18 34  1  0  0  0  0
 19 20  1  0  0  0  0
 19 23  1  0  0  0  0
 19 35  1  0  0  0  0
 20 21  1  0  0  0  0
 20 36  1  0  0  0  0
 20 37  1  0  0  0  0
 21 22  1  0  0  0  0
 21 24  1  0  0  0  0
 21 38  1  0  0  0  0
 22 23  1  0  0  0  0
 22 39  1  0  0  0  0
 22 40  1  0  0  0  0
 23 41  1  0  0  0  0
 23 42  1  0  0  0  0
 24 43  1  0  0  0  0
 24 44  1  0  0  0  0
M  END
> <ConfClashScore>
0 

> <ConfOneFourInteractionScore>
-0.980204 

> <ConfScore>
0.118748 

> <ConfScorePBest>
0.00156735 

> <ConfTolerance>
0.544869 

$$$$
c13.sdf
 OpenBabel04162418043D

 44 47  0  0  0  0  0  0  0  0999 V2000
    2.8923    0.4841   -3.7065 N   0  0  0  1  0  0  0  0  0  0  0  0
    4.0957    0.9332   -4.0204 C   0  0  0  1  0  0  0  0  0  0  0  0
    4.5290    0.9823   -5.2593 N   0  0  0  1  0  0  0  0  0  0  0  0
    3.7504    0.5710   -6.2634 C   0  0  0  1  0  0  0  0  0  0  0  0
    2.4594    0.0854   -5.9653 C   0  0  0  1  0  0  0  0  0  0  0  0
    2.0537    0.0565   -4.6343 C   0  0  0  1  0  0  0  0  0  0  0  0
    3.9027    0.4915   -7.6650 C   0  0  0  1  0  0  0  0  0  0  0  0
    2.8089    0.0036   -8.1778 N   0  0  0  1  0  0  0  0  0  0  0  0
    1.8855   -0.2631   -7.1585 N   0  0  0  1  0  0  0  0  0  0  0  0
    0.6122   -0.8015   -7.4576 C   0  0  0  1  0  0  0  0  0  0  0  0
    0.5137   -1.6460   -8.5472 C   0  0  0  1  0  0  0  0  0  0  0  0
   -0.7095   -2.2057   -8.8818 C   0  0  0  1  0  0  0  0  0  0  0  0
   -1.8317   -1.9151   -8.1292 C   0  0  0  1  0  0  0  0  0  0  0  0
   -1.7328   -1.0680   -7.0363 C   0  0  0  1  0  0  0  0  0  0  0  0
   -0.5132   -0.5099   -6.7025 C   0  0  0  1  0  0  0  0  0  0  0  0
   -3.0692   -2.3297   -8.4903 O   0  0  0  1  0  0  0  0  0  0  0  0
   -4.1408   -2.0781   -7.5679 C   0  0  0  1  0  0  0  0  0  0  0  0
    4.9192    1.3619   -3.0209 N   0  0  0  1  0  0  0  0  0  0  0  0
    4.5544    1.2222   -1.6116 C   0  0  0  1  0  0  0  0  0  0  0  0
    4.8938   -0.2177   -1.1086 C   0  0  0  1  0  0  0  0  0  0  0  0
    6.3731   -0.0261   -0.6045 C   0  0  0  1  0  0  0  0  0  0  0  0
    6.3050    1.3313    0.0818 C   0  0  0  1  0  0  0  0  0  0  0  0
    5.3718    2.1934   -0.7574 C   0  0  0  1  0  0  0  0  0  0  0  0
    6.7471   -1.0629    0.3241 N   0  0  0  1  0  0  0  0  0  0  0  0
    1.1097   -0.2945   -4.3750 H   0  0  0  1  0  0  0  0  0  0  0  0
    4.7483    0.7756   -8.1997 H   0  0  0  1  0  0  0  0  0  0  0  0
    1.3573   -1.8615   -9.1160 H   0  0  0  1  0  0  0  0  0  0  0  0
   -0.7828   -2.8443   -9.6993 H   0  0  0  1  0  0  0  0  0  0  0  0
   -2.5763   -0.8524   -6.4675 H   0  0  0  1  0  0  0  0  0  0  0  0
   -0.4398    0.1288   -5.8850 H   0  0  0  1  0  0  0  0  0  0  0  0
   -5.0547   -2.4646   -7.9681 H   0  0  0  1  0  0  0  0  0  0  0  0
   -4.2373   -1.0238   -7.4128 H   0  0  0  1  0  0  0  0  0  0  0  0
   -3.9287   -2.5583   -6.6356 H   0  0  0  1  0  0  0  0  0  0  0  0
    5.7774    1.7741   -3.2533 H   0  0  0  1  0  0  0  0  0  0  0  0
    3.5091    1.4170   -1.4923 H   0  0  0  1  0  0  0  0  0  0  0  0
    4.8401   -0.9329   -1.9026 H   0  0  0  1  0  0  0  0  0  0  0  0
    4.2446   -0.5179   -0.3128 H   0  0  0  1  0  0  0  0  0  0  0  0
    7.0630   -0.0132   -1.4223 H   0  0  0  1  0  0  0  0  0  0  0  0
    5.9178    1.2250    1.0736 H   0  0  0  1  0  0  0  0  0  0  0  0
    7.2785    1.7734    0.1240 H   0  0  0  1  0  0  0  0  0  0  0  0
    5.9369    2.8530   -1.3823 H   0  0  0  1  0  0  0  0  0  0  0  0
    4.7261    2.7663   -0.1251 H   0  0  0  1  0  0  0  0  0  0  0  0
    6.4064   -0.8418    1.2159 H   0  0  0  1  0  0  0  0  0  0  0  0
    7.7239   -1.1353    0.3564 H   0  0  0  1  0  0  0  0  0  0  0  0
  1  2  4  0  0  0  0
  1  6  4  0  0  0  0
  2  3  4  0  0  0  0
  2 18  1  0  0  0  0
  3  4  4  0  0  0  0
  4  5  4  0  0  0  0
  4  7  4  0  0  0  0
  5  6  4  0  0  0  0
  5  9  4  0  0  0  0
  6 25  1  0  0  0  0
  7  8  4  0  0  0  0
  7 26  1  0  0  0  0
  8  9  4  0  0  0  0
  9 10  1  0  0  0  0
 10 11  4  0  0  0  0
 10 15  4  0  0  0  0
 11 12  4  0  0  0  0
 11 27  1  0  0  0  0
 12 13  4  0  0  0  0
 12 28  1  0  0  0  0
 13 14  4  0  0  0  0
 13 16  1  0  0  0  0
 14 15  4  0  0  0  0
 14 29  1  0  0  0  0
 15 30  1  0  0  0  0
 16 17  1  0  0  0  0
 17 31  1  0  0  0  0
 17 32  1  0  0  0  0
 17 33  1  0  0  0  0
 18 19  1  0  0  0  0
 18 34  1  0  0  0  0
 19 20  1  0  0  0  0
 19 23  1  0  0  0  0
 19 35  1  0  0  0  0
 20 21  1  0  0  0  0
 20 36  1  0  0  0  0
 20 37  1  0  0  0  0
 21 22  1  0  0  0  0
 21 24  1  0  0  0  0
 21 38  1  0  0  0  0
 22 23  1  0  0  0  0
 22 39  1  0  0  0  0
 22 40  1  0  0  0  0
 23 41  1  0  0  0  0
 23 42  1  0  0  0  0
 24 43  1  0  0  0  0
 24 44  1  0  0  0  0
M  END
> <ConfClashScore>
0 

> <ConfOneFourInteractionScore>
-0.984337 

> <ConfScore>
0.120087 

> <ConfScorePBest>
0.00155402 

> <ConfTolerance>
0.719537 

$$$$
c13.sdf
 OpenBabel04162418043D

 44 47  0  0  0  0  0  0  0  0999 V2000
    6.2800    0.6034   -3.5170 N   0  0  0  1  0  0  0  0  0  0  0  0
    5.0758    1.0391   -3.8461 C   0  0  0  1  0  0  0  0  0  0  0  0
    4.6984    1.1926   -5.0948 N   0  0  0  1  0  0  0  0  0  0  0  0
    5.5378    0.9071   -6.0935 C   0  0  0  1  0  0  0  0  0  0  0  0
    6.8316    0.4395   -5.7791 C   0  0  0  1  0  0  0  0  0  0  0  0
    7.1764    0.2963   -4.4384 C   0  0  0  1  0  0  0  0  0  0  0  0
    5.4535    0.9582   -7.5021 C   0  0  0  1  0  0  0  0  0  0  0  0
    6.5878    0.5597   -8.0040 N   0  0  0  1  0  0  0  0  0  0  0  0
    7.4730    0.2277   -6.9700 N   0  0  0  1  0  0  0  0  0  0  0  0
    8.8178   -0.1491   -7.2625 C   0  0  0  1  0  0  0  0  0  0  0  0
    9.6285   -0.6521   -6.2625 C   0  0  0  1  0  0  0  0  0  0  0  0
   10.9595   -0.9357   -6.5265 C   0  0  0  1  0  0  0  0  0  0  0  0
   11.4772   -0.7104   -7.7881 C   0  0  0  1  0  0  0  0  0  0  0  0
   10.6639   -0.2059   -8.7909 C   0  0  0  1  0  0  0  0  0  0  0  0
    9.3368    0.0769   -8.5278 C   0  0  0  1  0  0  0  0  0  0  0  0
   12.7885   -1.0194   -7.9253 O   0  0  0  1  0  0  0  0  0  0  0  0
   13.4363   -0.6073   -9.1389 C   0  0  0  1  0  0  0  0  0  0  0  0
    4.2034    1.3367   -2.8664 N   0  0  0  1  0  0  0  0  0  0  0  0
    4.4356    1.2071   -1.4252 C   0  0  0  1  0  0  0  0  0  0  0  0
    5.0001   -0.1824   -1.1007 C   0  0  0  1  0  0  0  0  0  0  0  0
    6.3762    0.0713   -0.4787 C   0  0  0  1  0  0  0  0  0  0  0  0
    6.2786    1.4836    0.1085 C   0  0  0  1  0  0  0  0  0  0  0  0
    5.4918    2.2175   -0.9649 C   0  0  0  1  0  0  0  0  0  0  0  0
    6.6652   -0.9376    0.6052 N   0  0  0  1  0  0  0  0  0  0  0  0
    8.1204   -0.0455   -4.1670 H   0  0  0  1  0  0  0  0  0  0  0  0
    4.6231    1.2635   -8.0487 H   0  0  0  1  0  0  0  0  0  0  0  0
    9.2401   -0.8178   -5.3121 H   0  0  0  1  0  0  0  0  0  0  0  0
   11.5685   -1.3179   -5.7752 H   0  0  0  1  0  0  0  0  0  0  0  0
   11.0523   -0.0402   -9.7413 H   0  0  0  1  0  0  0  0  0  0  0  0
    8.7277    0.4591   -9.2791 H   0  0  0  1  0  0  0  0  0  0  0  0
   12.8930    0.2044   -9.5759 H   0  0  0  1  0  0  0  0  0  0  0  0
   13.4636   -1.4281   -9.8248 H   0  0  0  1  0  0  0  0  0  0  0  0
   14.4349   -0.2911   -8.9203 H   0  0  0  1  0  0  0  0  0  0  0  0
    3.3259    1.6735   -3.1438 H   0  0  0  1  0  0  0  0  0  0  0  0
    3.5171    1.3659   -0.8997 H   0  0  0  1  0  0  0  0  0  0  0  0
    5.0947   -0.7654   -1.9929 H   0  0  0  1  0  0  0  0  0  0  0  0
    4.3643   -0.6917   -0.4070 H   0  0  0  1  0  0  0  0  0  0  0  0
    7.1423    0.0241   -1.2242 H   0  0  0  1  0  0  0  0  0  0  0  0
    7.2479    1.9160    0.2441 H   0  0  0  1  0  0  0  0  0  0  0  0
    5.7547    1.4813    1.0415 H   0  0  0  1  0  0  0  0  0  0  0  0
    5.0270    3.0926   -0.5611 H   0  0  0  1  0  0  0  0  0  0  0  0
    6.1295    2.4947   -1.7781 H   0  0  0  1  0  0  0  0  0  0  0  0
    7.6089   -0.8793    0.8632 H   0  0  0  1  0  0  0  0  0  0  0  0
    6.4731   -1.8389    0.2718 H   0  0  0  1  0  0  0  0  0  0  0  0
  1  2  4  0  0  0  0
  1  6  4  0  0  0  0
  2  3  4  0  0  0  0
  2 18  1  0  0  0  0
  3  4  4  0  0  0  0
  4  5  4  0  0  0  0
  4  7  4  0  0  0  0
  5  6  4  0  0  0  0
  5  9  4  0  0  0  0
  6 25  1  0  0  0  0
  7  8  4  0  0  0  0
  7 26  1  0  0  0  0
  8  9  4  0  0  0  0
  9 10  1  0  0  0  0
 10 11  4  0  0  0  0
 10 15  4  0  0  0  0
 11 12  4  0  0  0  0
 11 27  1  0  0  0  0
 12 13  4  0  0  0  0
 12 28  1  0  0  0  0
 13 14  4  0  0  0  0
 13 16  1  0  0  0  0
 14 15  4  0  0  0  0
 14 29  1  0  0  0  0
 15 30  1  0  0  0  0
 16 17  1  0  0  0  0
 17 31  1  0  0  0  0
 17 32  1  0  0  0  0
 17 33  1  0  0  0  0
 18 19  1  0  0  0  0
 18 34  1  0  0  0  0
 19 20  1  0  0  0  0
 19 23  1  0  0  0  0
 19 35  1  0  0  0  0
 20 21  1  0  0  0  0
 20 36  1  0  0  0  0
 20 37  1  0  0  0  0
 21 22  1  0  0  0  0
 21 24  1  0  0  0  0
 21 38  1  0  0  0  0
 22 23  1  0  0  0  0
 22 39  1  0  0  0  0
 22 40  1  0  0  0  0
 23 41  1  0  0  0  0
 23 42  1  0  0  0  0
 24 43  1  0  0  0  0
 24 44  1  0  0  0  0
M  END
> <ConfClashScore>
0 

> <ConfOneFourInteractionScore>
-0.982693 

> <ConfScore>
0.130215 

> <ConfScorePBest>
0.00154069 

> <ConfTolerance>
0.428333 

$$$$
c13.sdf
 OpenBabel04162418043D

 44 47  0  0  0  0  0  0  0  0999 V2000
    5.7499    1.3308   -5.0154 N   0  0  0  1  0  0  0  0  0  0  0  0
    5.8400    1.3894   -3.6975 C   0  0  0  1  0  0  0  0  0  0  0  0
    6.9806    1.5859   -3.0768 N   0  0  0  1  0  0  0  0  0  0  0  0
    8.1105    1.7360   -3.7726 C   0  0  0  1  0  0  0  0  0  0  0  0
    8.0519    1.6793   -5.1814 C   0  0  0  1  0  0  0  0  0  0  0  0
    6.8156    1.4687   -5.7848 C   0  0  0  1  0  0  0  0  0  0  0  0
    9.4625    1.9556   -3.4290 C   0  0  0  1  0  0  0  0  0  0  0  0
   10.1662    2.0268   -4.5232 N   0  0  0  1  0  0  0  0  0  0  0  0
    9.3308    1.8606   -5.6355 N   0  0  0  1  0  0  0  0  0  0  0  0
    9.8591    1.9986   -6.9508 C   0  0  0  1  0  0  0  0  0  0  0  0
    9.0137    2.2696   -8.0100 C   0  0  0  1  0  0  0  0  0  0  0  0
    9.5287    2.4093   -9.2894 C   0  0  0  1  0  0  0  0  0  0  0  0
   10.8867    2.2722   -9.5066 C   0  0  0  1  0  0  0  0  0  0  0  0
   11.7345    2.0004   -8.4441 C   0  0  0  1  0  0  0  0  0  0  0  0
   11.2212    1.8611   -7.1684 C   0  0  0  1  0  0  0  0  0  0  0  0
   11.2673    2.4225  -10.7806 O   0  0  0  1  0  0  0  0  0  0  0  0
   12.6832    2.4905  -11.1593 C   0  0  0  1  0  0  0  0  0  0  0  0
    4.7005    1.2374   -3.0102 N   0  0  0  1  0  0  0  0  0  0  0  0
    4.5023    1.1994   -1.5586 C   0  0  0  1  0  0  0  0  0  0  0  0
    4.8833   -0.1764   -1.0010 C   0  0  0  1  0  0  0  0  0  0  0  0
    6.3615   -0.0534   -0.6311 C   0  0  0  1  0  0  0  0  0  0  0  0
    6.4286    1.3585   -0.0440 C   0  0  0  1  0  0  0  0  0  0  0  0
    5.4407    2.1932   -0.8624 C   0  0  0  1  0  0  0  0  0  0  0  0
    6.7543   -1.0800    0.3801 N   0  0  0  1  0  0  0  0  0  0  0  0
    6.7320    1.4207   -6.8204 H   0  0  0  1  0  0  0  0  0  0  0  0
    9.8350    2.0456   -2.4622 H   0  0  0  1  0  0  0  0  0  0  0  0
    7.9913    2.3688   -7.8473 H   0  0  0  1  0  0  0  0  0  0  0  0
    8.8931    2.6172  -10.0859 H   0  0  0  1  0  0  0  0  0  0  0  0
   12.7569    1.9013   -8.6068 H   0  0  0  1  0  0  0  0  0  0  0  0
   11.8567    1.6532   -6.3719 H   0  0  0  1  0  0  0  0  0  0  0  0
   13.0289    1.5137  -11.4263 H   0  0  0  1  0  0  0  0  0  0  0  0
   13.2558    2.8578  -10.3334 H   0  0  0  1  0  0  0  0  0  0  0  0
   12.7976    3.1496  -11.9944 H   0  0  0  1  0  0  0  0  0  0  0  0
    3.8895    1.1382   -3.5512 H   0  0  0  1  0  0  0  0  0  0  0  0
    3.4815    1.4260   -1.3314 H   0  0  0  1  0  0  0  0  0  0  0  0
    4.2967   -0.4080   -0.1366 H   0  0  0  1  0  0  0  0  0  0  0  0
    4.7423   -0.9353   -1.7420 H   0  0  0  1  0  0  0  0  0  0  0  0
    6.9867   -0.1450   -1.4946 H   0  0  0  1  0  0  0  0  0  0  0  0
    7.4183    1.7546   -0.1368 H   0  0  0  1  0  0  0  0  0  0  0  0
    6.1434    1.3478    0.9872 H   0  0  0  1  0  0  0  0  0  0  0  0
    4.8819    2.8402   -0.2188 H   0  0  0  1  0  0  0  0  0  0  0  0
    5.9646    2.7780   -1.5893 H   0  0  0  1  0  0  0  0  0  0  0  0
    6.1500   -1.0290    1.1498 H   0  0  0  1  0  0  0  0  0  0  0  0
    7.6737   -0.9125    0.6752 H   0  0  0  1  0  0  0  0  0  0  0  0
  1  2  4  0  0  0  0
  1  6  4  0  0  0  0
  2  3  4  0  0  0  0
  2 18  1  0  0  0  0
  3  4  4  0  0  0  0
  4  5  4  0  0  0  0
  4  7  4  0  0  0  0
  5  6  4  0  0  0  0
  5  9  4  0  0  0  0
  6 25  1  0  0  0  0
  7  8  4  0  0  0  0
  7 26  1  0  0  0  0
  8  9  4  0  0  0  0
  9 10  1  0  0  0  0
 10 11  4  0  0  0  0
 10 15  4  0  0  0  0
 11 12  4  0  0  0  0
 11 27  1  0  0  0  0
 12 13  4  0  0  0  0
 12 28  1  0  0  0  0
 13 14  4  0  0  0  0
 13 16  1  0  0  0  0
 14 15  4  0  0  0  0
 14 29  1  0  0  0  0
 15 30  1  0  0  0  0
 16 17  1  0  0  0  0
 17 31  1  0  0  0  0
 17 32  1  0  0  0  0
 17 33  1  0  0  0  0
 18 19  1  0  0  0  0
 18 34  1  0  0  0  0
 19 20  1  0  0  0  0
 19 23  1  0  0  0  0
 19 35  1  0  0  0  0
 20 21  1  0  0  0  0
 20 36  1  0  0  0  0
 20 37  1  0  0  0  0
 21 22  1  0  0  0  0
 21 24  1  0  0  0  0
 21 38  1  0  0  0  0
 22 23  1  0  0  0  0
 22 39  1  0  0  0  0
 22 40  1  0  0  0  0
 23 41  1  0  0  0  0
 23 42  1  0  0  0  0
 24 43  1  0  0  0  0
 24 44  1  0  0  0  0
M  END
> <ConfClashScore>
0 

> <ConfOneFourInteractionScore>
-0.982693 

> <ConfScore>
0.149915 

> <ConfScorePBest>
0.00152736 

> <ConfTolerance>
0.509193 

$$$$
c13.sdf
 OpenBabel04162418043D

 44 47  0  0  0  0  0  0  0  0999 V2000
    3.4353    3.6266   -2.1248 N   0  0  0  1  0  0  0  0  0  0  0  0
    3.3620    2.5836   -2.9342 C   0  0  0  1  0  0  0  0  0  0  0  0
    2.8137    2.6529   -4.1256 N   0  0  0  1  0  0  0  0  0  0  0  0
    2.3016    3.8046   -4.5670 C   0  0  0  1  0  0  0  0  0  0  0  0
    2.3624    4.9388   -3.7296 C   0  0  0  1  0  0  0  0  0  0  0  0
    2.9550    4.8064   -2.4773 C   0  0  0  1  0  0  0  0  0  0  0  0
    1.6610    4.2107   -5.7581 C   0  0  0  1  0  0  0  0  0  0  0  0
    1.3578    5.4740   -5.6605 N   0  0  0  1  0  0  0  0  0  0  0  0
    1.7749    5.9667   -4.4171 N   0  0  0  1  0  0  0  0  0  0  0  0
    1.6414    7.3432   -4.1200 C   0  0  0  1  0  0  0  0  0  0  0  0
    2.5006    8.2606   -4.6947 C   0  0  0  1  0  0  0  0  0  0  0  0
    2.3663    9.6101   -4.4077 C   0  0  0  1  0  0  0  0  0  0  0  0
    1.3767   10.0377   -3.5428 C   0  0  0  1  0  0  0  0  0  0  0  0
    0.5150    9.1174   -2.9665 C   0  0  0  1  0  0  0  0  0  0  0  0
    0.6488    7.7718   -3.2526 C   0  0  0  1  0  0  0  0  0  0  0  0
    1.3459   11.3755   -3.3348 O   0  0  0  1  0  0  0  0  0  0  0  0
    0.2288   11.8998   -2.6002 C   0  0  0  1  0  0  0  0  0  0  0  0
    3.8746    1.3901   -2.5173 N   0  0  0  1  0  0  0  0  0  0  0  0
    4.4712    1.2334   -1.2025 C   0  0  0  1  0  0  0  0  0  0  0  0
    5.0557   -0.1887   -1.0836 C   0  0  0  1  0  0  0  0  0  0  0  0
    6.4826    0.0457   -0.5911 C   0  0  0  1  0  0  0  0  0  0  0  0
    6.3466    1.4695    0.0053 C   0  0  0  1  0  0  0  0  0  0  0  0
    5.5597    2.3076   -1.0152 C   0  0  0  1  0  0  0  0  0  0  0  0
    6.8779   -0.9527    0.4494 N   0  0  0  1  0  0  0  0  0  0  0  0
    3.0186    5.6194   -1.8319 H   0  0  0  1  0  0  0  0  0  0  0  0
    1.4638    3.6019   -6.5779 H   0  0  0  1  0  0  0  0  0  0  0  0
    3.2479    7.9385   -5.3424 H   0  0  0  1  0  0  0  0  0  0  0  0
    3.0103   10.3008   -4.8432 H   0  0  0  1  0  0  0  0  0  0  0  0
   -0.2323    9.4395   -2.3188 H   0  0  0  1  0  0  0  0  0  0  0  0
    0.0048    7.0810   -2.8171 H   0  0  0  1  0  0  0  0  0  0  0  0
    0.4606   11.9086   -1.5557 H   0  0  0  1  0  0  0  0  0  0  0  0
   -0.6298   11.2842   -2.7697 H   0  0  0  1  0  0  0  0  0  0  0  0
    0.0233   12.8974   -2.9281 H   0  0  0  1  0  0  0  0  0  0  0  0
    3.8394    0.6186   -3.1206 H   0  0  0  1  0  0  0  0  0  0  0  0
    3.7203    1.3646   -0.4516 H   0  0  0  1  0  0  0  0  0  0  0  0
    5.0562   -0.6813   -2.0335 H   0  0  0  1  0  0  0  0  0  0  0  0
    4.5001   -0.7717   -0.3792 H   0  0  0  1  0  0  0  0  0  0  0  0
    7.1871    0.0206   -1.3961 H   0  0  0  1  0  0  0  0  0  0  0  0
    7.3150    1.8963    0.1632 H   0  0  0  1  0  0  0  0  0  0  0  0
    5.8178    1.4300    0.9347 H   0  0  0  1  0  0  0  0  0  0  0  0
    6.1107    2.5117   -1.9094 H   0  0  0  1  0  0  0  0  0  0  0  0
    5.1842    3.2239   -0.6100 H   0  0  0  1  0  0  0  0  0  0  0  0
    7.1266   -1.7958    0.0161 H   0  0  0  1  0  0  0  0  0  0  0  0
    6.1242   -1.1076    1.0563 H   0  0  0  1  0  0  0  0  0  0  0  0
  1  2  4  0  0  0  0
  1  6  4  0  0  0  0
  2  3  4  0  0  0  0
  2 18  1  0  0  0  0
  3  4  4  0  0  0  0
  4  5  4  0  0  0  0
  4  7  4  0  0  0  0
  5  6  4  0  0  0  0
  5  9  4  0  0  0  0
  6 25  1  0  0  0  0
  7  8  4  0  0  0  0
  7 26  1  0  0  0  0
  8  9  4  0  0  0  0
  9 10  1  0  0  0  0
 10 11  4  0  0  0  0
 10 15  4  0  0  0  0
 11 12  4  0  0  0  0
 11 27  1  0  0  0  0
 12 13  4  0  0  0  0
 12 28  1  0  0  0  0
 13 14  4  0  0  0  0
 13 16  1  0  0  0  0
 14 15  4  0  0  0  0
 14 29  1  0  0  0  0
 15 30  1  0  0  0  0
 16 17  1  0  0  0  0
 17 31  1  0  0  0  0
 17 32  1  0  0  0  0
 17 33  1  0  0  0  0
 18 19  1  0  0  0  0
 18 34  1  0  0  0  0
 19 20  1  0  0  0  0
 19 23  1  0  0  0  0
 19 35  1  0  0  0  0
 20 21  1  0  0  0  0
 20 36  1  0  0  0  0
 20 37  1  0  0  0  0
 21 22  1  0  0  0  0
 21 24  1  0  0  0  0
 21 38  1  0  0  0  0
 22 23  1  0  0  0  0
 22 39  1  0  0  0  0
 22 40  1  0  0  0  0
 23 41  1  0  0  0  0
 23 42  1  0  0  0  0
 24 43  1  0  0  0  0
 24 44  1  0  0  0  0
M  END
> <ConfClashScore>
0 

> <ConfOneFourInteractionScore>
-0.985399 

> <ConfScore>
0.171681 

> <ConfScorePBest>
0.00151404 

> <ConfTolerance>
0.888677 

$$$$
c13.sdf
 OpenBabel04162418043D

 44 47  0  0  0  0  0  0  0  0999 V2000
    6.0128    1.5407   -3.5678 N   0  0  0  1  0  0  0  0  0  0  0  0
    4.7085    1.7457   -3.6413 C   0  0  0  1  0  0  0  0  0  0  0  0
    4.1168    2.1325   -4.7482 N   0  0  0  1  0  0  0  0  0  0  0  0
    4.8297    2.3356   -5.8591 C   0  0  0  1  0  0  0  0  0  0  0  0
    6.2246    2.1264   -5.8173 C   0  0  0  1  0  0  0  0  0  0  0  0
    6.7972    1.7167   -4.6168 C   0  0  0  1  0  0  0  0  0  0  0  0
    4.5170    2.7403   -7.1753 C   0  0  0  1  0  0  0  0  0  0  0  0
    5.6158    2.7759   -7.8745 N   0  0  0  1  0  0  0  0  0  0  0  0
    6.7010    2.4021   -7.0710 N   0  0  0  1  0  0  0  0  0  0  0  0
    7.9908    2.3749   -7.6389 C   0  0  0  1  0  0  0  0  0  0  0  0
    9.0670    2.5669   -6.7934 C   0  0  0  1  0  0  0  0  0  0  0  0
   10.3577    2.5444   -7.2986 C   0  0  0  1  0  0  0  0  0  0  0  0
   10.5681    2.3353   -8.6485 C   0  0  0  1  0  0  0  0  0  0  0  0
    9.4885    2.1428   -9.4964 C   0  0  0  1  0  0  0  0  0  0  0  0
    8.2015    2.1652   -8.9929 C   0  0  0  1  0  0  0  0  0  0  0  0
   11.8686    2.3396   -9.0260 O   0  0  0  1  0  0  0  0  0  0  0  0
   12.1476    2.1427  -10.4210 C   0  0  0  1  0  0  0  0  0  0  0  0
    3.9583    1.5510   -2.5418 N   0  0  0  1  0  0  0  0  0  0  0  0
    4.4290    1.0659   -1.2418 C   0  0  0  1  0  0  0  0  0  0  0  0
    5.2810   -0.1924   -1.4242 C   0  0  0  1  0  0  0  0  0  0  0  0
    6.4683   -0.0286   -0.4723 C   0  0  0  1  0  0  0  0  0  0  0  0
    6.7277    1.4765   -0.5400 C   0  0  0  1  0  0  0  0  0  0  0  0
    5.3344    2.1135   -0.5817 C   0  0  0  1  0  0  0  0  0  0  0  0
    6.1173   -0.4518    0.9018 N   0  0  0  1  0  0  0  0  0  0  0  0
    7.8217    1.5523   -4.5466 H   0  0  0  1  0  0  0  0  0  0  0  0
    3.5665    2.9717   -7.5284 H   0  0  0  1  0  0  0  0  0  0  0  0
    8.9086    2.7282   -5.7783 H   0  0  0  1  0  0  0  0  0  0  0  0
   11.1678    2.6849   -6.6617 H   0  0  0  1  0  0  0  0  0  0  0  0
    9.6469    1.9815  -10.5115 H   0  0  0  1  0  0  0  0  0  0  0  0
    7.3914    2.0247   -9.6297 H   0  0  0  1  0  0  0  0  0  0  0  0
   12.0258    1.1086  -10.6671 H   0  0  0  1  0  0  0  0  0  0  0  0
   13.1534    2.4426  -10.6291 H   0  0  0  1  0  0  0  0  0  0  0  0
   11.4714    2.7304  -11.0061 H   0  0  0  1  0  0  0  0  0  0  0  0
    3.0026    1.7537   -2.6178 H   0  0  0  1  0  0  0  0  0  0  0  0
    3.5888    0.8553   -0.6136 H   0  0  0  1  0  0  0  0  0  0  0  0
    5.6215   -0.2691   -2.4357 H   0  0  0  1  0  0  0  0  0  0  0  0
    4.7166   -1.0652   -1.1702 H   0  0  0  1  0  0  0  0  0  0  0  0
    7.3174   -0.5845   -0.8113 H   0  0  0  1  0  0  0  0  0  0  0  0
    7.2663    1.8051    0.3241 H   0  0  0  1  0  0  0  0  0  0  0  0
    7.2815    1.7239   -1.4215 H   0  0  0  1  0  0  0  0  0  0  0  0
    5.3509    3.0128   -1.1613 H   0  0  0  1  0  0  0  0  0  0  0  0
    4.9931    2.3330    0.4084 H   0  0  0  1  0  0  0  0  0  0  0  0
    6.9179   -0.7906    1.3543 H   0  0  0  1  0  0  0  0  0  0  0  0
    5.4404   -1.1593    0.8625 H   0  0  0  1  0  0  0  0  0  0  0  0
  1  2  4  0  0  0  0
  1  6  4  0  0  0  0
  2  3  4  0  0  0  0
  2 18  1  0  0  0  0
  3  4  4  0  0  0  0
  4  5  4  0  0  0  0
  4  7  4  0  0  0  0
  5  6  4  0  0  0  0
  5  9  4  0  0  0  0
  6 25  1  0  0  0  0
  7  8  4  0  0  0  0
  7 26  1  0  0  0  0
  8  9  4  0  0  0  0
  9 10  1  0  0  0  0
 10 11  4  0  0  0  0
 10 15  4  0  0  0  0
 11 12  4  0  0  0  0
 11 27  1  0  0  0  0
 12 13  4  0  0  0  0
 12 28  1  0  0  0  0
 13 14  4  0  0  0  0
 13 16  1  0  0  0  0
 14 15  4  0  0  0  0
 14 29  1  0  0  0  0
 15 30  1  0  0  0  0
 16 17  1  0  0  0  0
 17 31  1  0  0  0  0
 17 32  1  0  0  0  0
 17 33  1  0  0  0  0
 18 19  1  0  0  0  0
 18 34  1  0  0  0  0
 19 20  1  0  0  0  0
 19 23  1  0  0  0  0
 19 35  1  0  0  0  0
 20 21  1  0  0  0  0
 20 36  1  0  0  0  0
 20 37  1  0  0  0  0
 21 22  1  0  0  0  0
 21 24  1  0  0  0  0
 21 38  1  0  0  0  0
 22 23  1  0  0  0  0
 22 39  1  0  0  0  0
 22 40  1  0  0  0  0
 23 41  1  0  0  0  0
 23 42  1  0  0  0  0
 24 43  1  0  0  0  0
 24 44  1  0  0  0  0
M  END
> <ConfClashScore>
0 

> <ConfOneFourInteractionScore>
-0.982693 

> <ConfScore>
0.194767 

> <ConfScorePBest>
0.00150071 

> <ConfTolerance>
0.522806 

$$$$
c13.sdf
 OpenBabel04162418043D

 44 47  0  0  0  0  0  0  0  0999 V2000
    4.3914    0.4408   -5.0768 N   0  0  0  1  0  0  0  0  0  0  0  0
    4.1685    0.3094   -3.7801 C   0  0  0  1  0  0  0  0  0  0  0  0
    3.4569   -0.6763   -3.2833 N   0  0  0  1  0  0  0  0  0  0  0  0
    2.9240   -1.5975   -4.0901 C   0  0  0  1  0  0  0  0  0  0  0  0
    3.1416   -1.4888   -5.4801 C   0  0  0  1  0  0  0  0  0  0  0  0
    3.9038   -0.4233   -5.9499 C   0  0  0  1  0  0  0  0  0  0  0  0
    2.1320   -2.7493   -3.8899 C   0  0  0  1  0  0  0  0  0  0  0  0
    1.8871   -3.2952   -5.0472 N   0  0  0  1  0  0  0  0  0  0  0  0
    2.4947   -2.5455   -6.0628 N   0  0  0  1  0  0  0  0  0  0  0  0
    2.2751   -2.9152   -7.3982 C   0  0  0  1  0  0  0  0  0  0  0  0
    3.1619   -2.6825   -8.4324 C   0  0  0  1  0  0  0  0  0  0  0  0
    2.8498   -3.0941   -9.7187 C   0  0  0  1  0  0  0  0  0  0  0  0
    1.6496   -3.7325   -9.9681 C   0  0  0  1  0  0  0  0  0  0  0  0
    0.7602   -3.9659   -8.9307 C   0  0  0  1  0  0  0  0  0  0  0  0
    1.0713   -3.5555   -7.6481 C   0  0  0  1  0  0  0  0  0  0  0  0
    1.4032   -4.1042  -11.2468 O   0  0  0  1  0  0  0  0  0  0  0  0
    0.3323   -5.0360  -11.4646 C   0  0  0  1  0  0  0  0  0  0  0  0
    4.6915    1.2223   -2.9338 N   0  0  0  1  0  0  0  0  0  0  0  0
    4.5009    1.1938   -1.4890 C   0  0  0  1  0  0  0  0  0  0  0  0
    4.9439   -0.1664   -0.9170 C   0  0  0  1  0  0  0  0  0  0  0  0
    6.4051    0.0854   -0.5552 C   0  0  0  1  0  0  0  0  0  0  0  0
    6.4480    1.4954    0.0074 C   0  0  0  1  0  0  0  0  0  0  0  0
    5.3831    2.2354   -0.8187 C   0  0  0  1  0  0  0  0  0  0  0  0
    6.8664   -0.9001    0.4703 N   0  0  0  1  0  0  0  0  0  0  0  0
    4.0860   -0.3094   -6.9674 H   0  0  0  1  0  0  0  0  0  0  0  0
    1.7992   -3.1034   -2.9704 H   0  0  0  1  0  0  0  0  0  0  0  0
    4.0633   -2.1985   -8.2456 H   0  0  0  1  0  0  0  0  0  0  0  0
    3.5188   -2.9226  -10.4963 H   0  0  0  1  0  0  0  0  0  0  0  0
   -0.1412   -4.4498   -9.1175 H   0  0  0  1  0  0  0  0  0  0  0  0
    0.4023   -3.7270   -6.8705 H   0  0  0  1  0  0  0  0  0  0  0  0
   -0.0387   -4.9268  -12.4622 H   0  0  0  1  0  0  0  0  0  0  0  0
   -0.4562   -4.8418  -10.7678 H   0  0  0  1  0  0  0  0  0  0  0  0
    0.6939   -6.0334  -11.3259 H   0  0  0  1  0  0  0  0  0  0  0  0
    5.2313    1.9468   -3.3134 H   0  0  0  1  0  0  0  0  0  0  0  0
    3.4715    1.3759   -1.2609 H   0  0  0  1  0  0  0  0  0  0  0  0
    4.8553   -0.9409   -1.6499 H   0  0  0  1  0  0  0  0  0  0  0  0
    4.3710   -0.4265   -0.0515 H   0  0  0  1  0  0  0  0  0  0  0  0
    7.0235    0.0114   -1.4253 H   0  0  0  1  0  0  0  0  0  0  0  0
    7.4140    1.9343   -0.1306 H   0  0  0  1  0  0  0  0  0  0  0  0
    6.1985    1.5010    1.0479 H   0  0  0  1  0  0  0  0  0  0  0  0
    4.7910    2.8539   -0.1771 H   0  0  0  1  0  0  0  0  0  0  0  0
    5.8571    2.8420   -1.5618 H   0  0  0  1  0  0  0  0  0  0  0  0
    7.4950   -1.5298    0.0594 H   0  0  0  1  0  0  0  0  0  0  0  0
    6.0946   -1.3916    0.8212 H   0  0  0  1  0  0  0  0  0  0  0  0
  1  2  4  0  0  0  0
  1  6  4  0  0  0  0
  2  3  4  0  0  0  0
  2 18  1  0  0  0  0
  3  4  4  0  0  0  0
  4  5  4  0  0  0  0
  4  7  4  0  0  0  0
  5  6  4  0  0  0  0
  5  9  4  0  0  0  0
  6 25  1  0  0  0  0
  7  8  4  0  0  0  0
  7 26  1  0  0  0  0
  8  9  4  0  0  0  0
  9 10  1  0  0  0  0
 10 11  4  0  0  0  0
 10 15  4  0  0  0  0
 11 12  4  0  0  0  0
 11 27  1  0  0  0  0
 12 13  4  0  0  0  0
 12 28  1  0  0  0  0
 13 14  4  0  0  0  0
 13 16  1  0  0  0  0
 14 15  4  0  0  0  0
 14 29  1  0  0  0  0
 15 30  1  0  0  0  0
 16 17  1  0  0  0  0
 17 31  1  0  0  0  0
 17 32  1  0  0  0  0
 17 33  1  0  0  0  0
 18 19  1  0  0  0  0
 18 34  1  0  0  0  0
 19 20  1  0  0  0  0
 19 23  1  0  0  0  0
 19 35  1  0  0  0  0
 20 21  1  0  0  0  0
 20 36  1  0  0  0  0
 20 37  1  0  0  0  0
 21 22  1  0  0  0  0
 21 24  1  0  0  0  0
 21 38  1  0  0  0  0
 22 23  1  0  0  0  0
 22 39  1  0  0  0  0
 22 40  1  0  0  0  0
 23 41  1  0  0  0  0
 23 42  1  0  0  0  0
 24 43  1  0  0  0  0
 24 44  1  0  0  0  0
M  END
> <ConfClashScore>
0 

> <ConfOneFourInteractionScore>
-0.985399 

> <ConfScore>
0.224039 

> <ConfScorePBest>
0.00148738 

> <ConfTolerance>
0.84109 

$$$$
c13.sdf
 OpenBabel04162418043D

 44 47  0  0  0  0  0  0  0  0999 V2000
    6.0716    1.1360   -4.9571 N   0  0  0  1  0  0  0  0  0  0  0  0
    6.0199    1.2278   -3.6391 C   0  0  0  1  0  0  0  0  0  0  0  0
    7.0940    1.3904   -2.9009 N   0  0  0  1  0  0  0  0  0  0  0  0
    8.2991    1.4697   -3.4711 C   0  0  0  1  0  0  0  0  0  0  0  0
    8.3920    1.3757   -4.8761 C   0  0  0  1  0  0  0  0  0  0  0  0
    7.2203    1.2039   -5.6072 C   0  0  0  1  0  0  0  0  0  0  0  0
    9.6144    1.6379   -2.9856 C   0  0  0  1  0  0  0  0  0  0  0  0
   10.4359    1.6463   -3.9967 N   0  0  0  1  0  0  0  0  0  0  0  0
    9.7199    1.4863   -5.1903 N   0  0  0  1  0  0  0  0  0  0  0  0
   10.4333    1.4675   -6.4227 C   0  0  0  1  0  0  0  0  0  0  0  0
   10.2186    0.4470   -7.3297 C   0  0  0  1  0  0  0  0  0  0  0  0
   10.9091    0.4315   -8.5316 C   0  0  0  1  0  0  0  0  0  0  0  0
   11.8160    1.4336   -8.8207 C   0  0  0  1  0  0  0  0  0  0  0  0
   12.0312    2.4571   -7.9109 C   0  0  0  1  0  0  0  0  0  0  0  0
   11.3428    2.4726   -6.7124 C   0  0  0  1  0  0  0  0  0  0  0  0
   12.4329    1.3101  -10.0199 O   0  0  0  1  0  0  0  0  0  0  0  0
   13.5132    2.2145  -10.2984 C   0  0  0  1  0  0  0  0  0  0  0  0
    4.8281    1.1524   -3.0326 N   0  0  0  1  0  0  0  0  0  0  0  0
    4.5262    1.1775   -1.6071 C   0  0  0  1  0  0  0  0  0  0  0  0
    4.8576   -0.1833   -0.9652 C   0  0  0  1  0  0  0  0  0  0  0  0
    6.2973    0.0120   -0.4975 C   0  0  0  1  0  0  0  0  0  0  0  0
    6.3650    1.4352    0.0279 C   0  0  0  1  0  0  0  0  0  0  0  0
    5.4037    2.1976   -0.8987 C   0  0  0  1  0  0  0  0  0  0  0  0
    6.6270   -0.9518    0.5766 N   0  0  0  1  0  0  0  0  0  0  0  0
    7.2481    1.1303   -6.6442 H   0  0  0  1  0  0  0  0  0  0  0  0
    9.8829    1.7385   -1.9859 H   0  0  0  1  0  0  0  0  0  0  0  0
    9.5392   -0.3093   -7.1105 H   0  0  0  1  0  0  0  0  0  0  0  0
   10.7446   -0.3342   -9.2159 H   0  0  0  1  0  0  0  0  0  0  0  0
   12.7106    3.2133   -8.1300 H   0  0  0  1  0  0  0  0  0  0  0  0
   11.5072    3.2383   -6.0281 H   0  0  0  1  0  0  0  0  0  0  0  0
   13.9939    2.4893   -9.3828 H   0  0  0  1  0  0  0  0  0  0  0  0
   13.1296    3.0914  -10.7767 H   0  0  0  1  0  0  0  0  0  0  0  0
   14.2209    1.7366  -10.9431 H   0  0  0  1  0  0  0  0  0  0  0  0
    4.0543    1.0689   -3.6281 H   0  0  0  1  0  0  0  0  0  0  0  0
    3.4923    1.4139   -1.4651 H   0  0  0  1  0  0  0  0  0  0  0  0
    4.2081   -0.3897   -0.1403 H   0  0  0  1  0  0  0  0  0  0  0  0
    4.7881   -0.9753   -1.6814 H   0  0  0  1  0  0  0  0  0  0  0  0
    6.9762   -0.1174   -1.3143 H   0  0  0  1  0  0  0  0  0  0  0  0
    7.3589    1.8247   -0.0462 H   0  0  0  1  0  0  0  0  0  0  0  0
    6.0370    1.4846    1.0452 H   0  0  0  1  0  0  0  0  0  0  0  0
    4.7948    2.8624   -0.3224 H   0  0  0  1  0  0  0  0  0  0  0  0
    5.9621    2.7584   -1.6189 H   0  0  0  1  0  0  0  0  0  0  0  0
    7.2713   -0.5461    1.1936 H   0  0  0  1  0  0  0  0  0  0  0  0
    7.0170   -1.7596    0.1819 H   0  0  0  1  0  0  0  0  0  0  0  0
  1  2  4  0  0  0  0
  1  6  4  0  0  0  0
  2  3  4  0  0  0  0
  2 18  1  0  0  0  0
  3  4  4  0  0  0  0
  4  5  4  0  0  0  0
  4  7  4  0  0  0  0
  5  6  4  0  0  0  0
  5  9  4  0  0  0  0
  6 25  1  0  0  0  0
  7  8  4  0  0  0  0
  7 26  1  0  0  0  0
  8  9  4  0  0  0  0
  9 10  1  0  0  0  0
 10 11  4  0  0  0  0
 10 15  4  0  0  0  0
 11 12  4  0  0  0  0
 11 27  1  0  0  0  0
 12 13  4  0  0  0  0
 12 28  1  0  0  0  0
 13 14  4  0  0  0  0
 13 16  1  0  0  0  0
 14 15  4  0  0  0  0
 14 29  1  0  0  0  0
 15 30  1  0  0  0  0
 16 17  1  0  0  0  0
 17 31  1  0  0  0  0
 17 32  1  0  0  0  0
 17 33  1  0  0  0  0
 18 19  1  0  0  0  0
 18 34  1  0  0  0  0
 19 20  1  0  0  0  0
 19 23  1  0  0  0  0
 19 35  1  0  0  0  0
 20 21  1  0  0  0  0
 20 36  1  0  0  0  0
 20 37  1  0  0  0  0
 21 22  1  0  0  0  0
 21 24  1  0  0  0  0
 21 38  1  0  0  0  0
 22 23  1  0  0  0  0
 22 39  1  0  0  0  0
 22 40  1  0  0  0  0
 23 41  1  0  0  0  0
 23 42  1  0  0  0  0
 24 43  1  0  0  0  0
 24 44  1  0  0  0  0
M  END
> <ConfClashScore>
0 

> <ConfOneFourInteractionScore>
-0.982693 

> <ConfScore>
0.227606 

> <ConfScorePBest>
0.00147405 

> <ConfTolerance>
0.7158 

$$$$
c13.sdf
 OpenBabel04162418043D

 44 47  0  0  0  0  0  0  0  0999 V2000
    6.0438    2.4454   -3.1553 N   0  0  0  1  0  0  0  0  0  0  0  0
    4.7516    2.2527   -3.3588 C   0  0  0  1  0  0  0  0  0  0  0  0
    4.1332    2.6927   -4.4308 N   0  0  0  1  0  0  0  0  0  0  0  0
    4.8051    3.3637   -5.3698 C   0  0  0  1  0  0  0  0  0  0  0  0
    6.1862    3.5879   -5.1858 C   0  0  0  1  0  0  0  0  0  0  0  0
    6.7883    3.0985   -4.0304 C   0  0  0  1  0  0  0  0  0  0  0  0
    4.4565    3.9557   -6.6036 C   0  0  0  1  0  0  0  0  0  0  0  0
    5.5225    4.4920   -7.1265 N   0  0  0  1  0  0  0  0  0  0  0  0
    6.6199    4.2876   -6.2798 N   0  0  0  1  0  0  0  0  0  0  0  0
    7.9101    4.7805   -6.6267 C   0  0  0  1  0  0  0  0  0  0  0  0
    9.0426    4.1198   -6.1897 C   0  0  0  1  0  0  0  0  0  0  0  0
   10.2984    4.5966   -6.5319 C   0  0  0  1  0  0  0  0  0  0  0  0
   10.4182    5.7357   -7.3054 C   0  0  0  1  0  0  0  0  0  0  0  0
    9.2822    6.3983   -7.7436 C   0  0  0  1  0  0  0  0  0  0  0  0
    8.0299    5.9230   -7.4025 C   0  0  0  1  0  0  0  0  0  0  0  0
   11.5842    6.2950   -7.6961 O   0  0  0  1  0  0  0  0  0  0  0  0
   11.5668    7.5442   -8.4043 C   0  0  0  1  0  0  0  0  0  0  0  0
    3.9841    1.5866   -2.4698 N   0  0  0  1  0  0  0  0  0  0  0  0
    4.4813    1.0562   -1.1972 C   0  0  0  1  0  0  0  0  0  0  0  0
    5.3271   -0.1958   -1.4410 C   0  0  0  1  0  0  0  0  0  0  0  0
    6.5345   -0.0663   -0.5092 C   0  0  0  1  0  0  0  0  0  0  0  0
    6.7950    1.4400   -0.5304 C   0  0  0  1  0  0  0  0  0  0  0  0
    5.4022    2.0795   -0.5206 C   0  0  0  1  0  0  0  0  0  0  0  0
    6.2112   -0.5371    0.8589 N   0  0  0  1  0  0  0  0  0  0  0  0
    7.8038    3.2438   -3.8591 H   0  0  0  1  0  0  0  0  0  0  0  0
    3.5058    3.9624   -7.0251 H   0  0  0  1  0  0  0  0  0  0  0  0
    8.9527    3.2649   -5.6043 H   0  0  0  1  0  0  0  0  0  0  0  0
   11.1506    4.0971   -6.2064 H   0  0  0  1  0  0  0  0  0  0  0  0
    9.3721    7.2532   -8.3290 H   0  0  0  1  0  0  0  0  0  0  0  0
    7.1777    6.4224   -7.7279 H   0  0  0  1  0  0  0  0  0  0  0  0
   12.5702    7.8450   -8.6227 H   0  0  0  1  0  0  0  0  0  0  0  0
   11.0948    8.2902   -7.7997 H   0  0  0  1  0  0  0  0  0  0  0  0
   11.0226    7.4283   -9.3183 H   0  0  0  1  0  0  0  0  0  0  0  0
    3.0387    1.4497   -2.6884 H   0  0  0  1  0  0  0  0  0  0  0  0
    3.6542    0.8249   -0.5591 H   0  0  0  1  0  0  0  0  0  0  0  0
    5.6460   -0.2379   -2.4614 H   0  0  0  1  0  0  0  0  0  0  0  0
    4.7667   -1.0764   -1.2053 H   0  0  0  1  0  0  0  0  0  0  0  0
    7.3752   -0.6111   -0.8851 H   0  0  0  1  0  0  0  0  0  0  0  0
    7.3305    1.7172   -1.4143 H   0  0  0  1  0  0  0  0  0  0  0  0
    7.3523    1.7380    0.3331 H   0  0  0  1  0  0  0  0  0  0  0  0
    5.4081    2.9983   -1.0690 H   0  0  0  1  0  0  0  0  0  0  0  0
    5.0823    2.2649    0.4835 H   0  0  0  1  0  0  0  0  0  0  0  0
    6.0548   -1.5044    0.8435 H   0  0  0  1  0  0  0  0  0  0  0  0
    5.4050   -0.0811    1.1790 H   0  0  0  1  0  0  0  0  0  0  0  0
  1  2  4  0  0  0  0
  1  6  4  0  0  0  0
  2  3  4  0  0  0  0
  2 18  1  0  0  0  0
  3  4  4  0  0  0  0
  4  5  4  0  0  0  0
  4  7  4  0  0  0  0
  5  6  4  0  0  0  0
  5  9  4  0  0  0  0
  6 25  1  0  0  0  0
  7  8  4  0  0  0  0
  7 26  1  0  0  0  0
  8  9  4  0  0  0  0
  9 10  1  0  0  0  0
 10 11  4  0  0  0  0
 10 15  4  0  0  0  0
 11 12  4  0  0  0  0
 11 27  1  0  0  0  0
 12 13  4  0  0  0  0
 12 28  1  0  0  0  0
 13 14  4  0  0  0  0
 13 16  1  0  0  0  0
 14 15  4  0  0  0  0
 14 29  1  0  0  0  0
 15 30  1  0  0  0  0
 16 17  1  0  0  0  0
 17 31  1  0  0  0  0
 17 32  1  0  0  0  0
 17 33  1  0  0  0  0
 18 19  1  0  0  0  0
 18 34  1  0  0  0  0
 19 20  1  0  0  0  0
 19 23  1  0  0  0  0
 19 35  1  0  0  0  0
 20 21  1  0  0  0  0
 20 36  1  0  0  0  0
 20 37  1  0  0  0  0
 21 22  1  0  0  0  0
 21 24  1  0  0  0  0
 21 38  1  0  0  0  0
 22 23  1  0  0  0  0
 22 39  1  0  0  0  0
 22 40  1  0  0  0  0
 23 41  1  0  0  0  0
 23 42  1  0  0  0  0
 24 43  1  0  0  0  0
 24 44  1  0  0  0  0
M  END
> <ConfClashScore>
0.0012448 

> <ConfOneFourInteractionScore>
-0.982693 

> <ConfScore>
0.237186 

> <ConfScorePBest>
0.00146072 

> <ConfTolerance>
0.680062 

$$$$
c13.sdf
 OpenBabel04162418043D

 44 47  0  0  0  0  0  0  0  0999 V2000
    3.3170   -0.4713   -3.4089 N   0  0  0  1  0  0  0  0  0  0  0  0
    2.9903    0.7974   -3.2296 C   0  0  0  1  0  0  0  0  0  0  0  0
    2.1852    1.4401   -4.0443 N   0  0  0  1  0  0  0  0  0  0  0  0
    1.6595    0.8187   -5.1031 C   0  0  0  1  0  0  0  0  0  0  0  0
    1.9863   -0.5359   -5.3255 C   0  0  0  1  0  0  0  0  0  0  0  0
    2.8445   -1.1659   -4.4292 C   0  0  0  1  0  0  0  0  0  0  0  0
    0.7866    1.2042   -6.1440 C   0  0  0  1  0  0  0  0  0  0  0  0
    0.5961    0.1829   -6.9302 N   0  0  0  1  0  0  0  0  0  0  0  0
    1.3221   -0.9191   -6.4598 N   0  0  0  1  0  0  0  0  0  0  0  0
    1.2821   -2.1658   -7.1471 C   0  0  0  1  0  0  0  0  0  0  0  0
    0.9188   -3.3163   -6.4730 C   0  0  0  1  0  0  0  0  0  0  0  0
    0.9644   -4.5417   -7.1192 C   0  0  0  1  0  0  0  0  0  0  0  0
    1.3782   -4.6138   -8.4360 C   0  0  0  1  0  0  0  0  0  0  0  0
    1.7426   -3.4598   -9.1120 C   0  0  0  1  0  0  0  0  0  0  0  0
    1.6972   -2.2378   -8.4677 C   0  0  0  1  0  0  0  0  0  0  0  0
    1.5195   -5.8188   -9.0375 O   0  0  0  1  0  0  0  0  0  0  0  0
    1.2280   -6.9837   -8.2498 C   0  0  0  1  0  0  0  0  0  0  0  0
    3.5010    1.4557   -2.1735 N   0  0  0  1  0  0  0  0  0  0  0  0
    4.4084    1.0435   -1.1015 C   0  0  0  1  0  0  0  0  0  0  0  0
    5.2732   -0.1414   -1.5317 C   0  0  0  1  0  0  0  0  0  0  0  0
    6.4905   -0.0972   -0.6015 C   0  0  0  1  0  0  0  0  0  0  0  0
    6.6592    1.3800   -0.2242 C   0  0  0  1  0  0  0  0  0  0  0  0
    5.4584    2.1205   -0.8178 C   0  0  0  1  0  0  0  0  0  0  0  0
    6.2500   -0.9124    0.6016 N   0  0  0  1  0  0  0  0  0  0  0  0
    3.1088   -2.1633   -4.5596 H   0  0  0  1  0  0  0  0  0  0  0  0
    0.3654    2.1475   -6.2634 H   0  0  0  1  0  0  0  0  0  0  0  0
    0.6112   -3.2626   -5.4809 H   0  0  0  1  0  0  0  0  0  0  0  0
    0.6872   -5.4070   -6.6132 H   0  0  0  1  0  0  0  0  0  0  0  0
    2.0501   -3.5134  -10.1040 H   0  0  0  1  0  0  0  0  0  0  0  0
    1.9744   -1.3725   -8.9737 H   0  0  0  1  0  0  0  0  0  0  0  0
    0.3269   -6.8236   -7.6954 H   0  0  0  1  0  0  0  0  0  0  0  0
    2.0355   -7.1670   -7.5722 H   0  0  0  1  0  0  0  0  0  0  0  0
    1.1042   -7.8284   -8.8949 H   0  0  0  1  0  0  0  0  0  0  0  0
    3.2101    2.3894   -2.1098 H   0  0  0  1  0  0  0  0  0  0  0  0
    3.8422    0.8125   -0.2235 H   0  0  0  1  0  0  0  0  0  0  0  0
    5.5754   -0.0361   -2.5527 H   0  0  0  1  0  0  0  0  0  0  0  0
    4.7396   -1.0609   -1.4101 H   0  0  0  1  0  0  0  0  0  0  0  0
    7.3620   -0.4562   -1.1079 H   0  0  0  1  0  0  0  0  0  0  0  0
    6.6719    1.4904    0.8400 H   0  0  0  1  0  0  0  0  0  0  0  0
    7.5697    1.7644   -0.6341 H   0  0  0  1  0  0  0  0  0  0  0  0
    5.7371    2.6177   -1.7234 H   0  0  0  1  0  0  0  0  0  0  0  0
    5.0791    2.8367   -0.1193 H   0  0  0  1  0  0  0  0  0  0  0  0
    5.3263   -0.7856    0.9034 H   0  0  0  1  0  0  0  0  0  0  0  0
    6.8663   -0.6361    1.3117 H   0  0  0  1  0  0  0  0  0  0  0  0
  1  2  4  0  0  0  0
  1  6  4  0  0  0  0
  2  3  4  0  0  0  0
  2 18  1  0  0  0  0
  3  4  4  0  0  0  0
  4  5  4  0  0  0  0
  4  7  4  0  0  0  0
  5  6  4  0  0  0  0
  5  9  4  0  0  0  0
  6 25  1  0  0  0  0
  7  8  4  0  0  0  0
  7 26  1  0  0  0  0
  8  9  4  0  0  0  0
  9 10  1  0  0  0  0
 10 11  4  0  0  0  0
 10 15  4  0  0  0  0
 11 12  4  0  0  0  0
 11 27  1  0  0  0  0
 12 13  4  0  0  0  0
 12 28  1  0  0  0  0
 13 14  4  0  0  0  0
 13 16  1  0  0  0  0
 14 15  4  0  0  0  0
 14 29  1  0  0  0  0
 15 30  1  0  0  0  0
 16 17  1  0  0  0  0
 17 31  1  0  0  0  0
 17 32  1  0  0  0  0
 17 33  1  0  0  0  0
 18 19  1  0  0  0  0
 18 34  1  0  0  0  0
 19 20  1  0  0  0  0
 19 23  1  0  0  0  0
 19 35  1  0  0  0  0
 20 21  1  0  0  0  0
 20 36  1  0  0  0  0
 20 37  1  0  0  0  0
 21 22  1  0  0  0  0
 21 24  1  0  0  0  0
 21 38  1  0  0  0  0
 22 23  1  0  0  0  0
 22 39  1  0  0  0  0
 22 40  1  0  0  0  0
 23 41  1  0  0  0  0
 23 42  1  0  0  0  0
 24 43  1  0  0  0  0
 24 44  1  0  0  0  0
M  END
> <ConfClashScore>
0 

> <ConfOneFourInteractionScore>
-0.978454 

> <ConfScore>
0.249353 

> <ConfScorePBest>
0.0014474 

> <ConfTolerance>
0.819785 

$$$$
c13.sdf
 OpenBabel04162418043D

 44 47  0  0  0  0  0  0  0  0999 V2000
    7.1016    1.3073   -2.9334 N   0  0  0  1  0  0  0  0  0  0  0  0
    6.0084    1.1727   -3.6649 C   0  0  0  1  0  0  0  0  0  0  0  0
    6.0455    1.0461   -4.9717 N   0  0  0  1  0  0  0  0  0  0  0  0
    7.2147    1.0494   -5.6171 C   0  0  0  1  0  0  0  0  0  0  0  0
    8.4023    1.1910   -4.8682 C   0  0  0  1  0  0  0  0  0  0  0  0
    8.3021    1.3214   -3.4862 C   0  0  0  1  0  0  0  0  0  0  0  0
    7.5975    0.9378   -6.9718 C   0  0  0  1  0  0  0  0  0  0  0  0
    8.8964    1.0046   -7.0465 N   0  0  0  1  0  0  0  0  0  0  0  0
    9.4374    1.1619   -5.7638 N   0  0  0  1  0  0  0  0  0  0  0  0
   10.8357    1.2605   -5.5747 C   0  0  0  1  0  0  0  0  0  0  0  0
   11.5017    2.2742   -6.2373 C   0  0  0  1  0  0  0  0  0  0  0  0
   12.8716    2.4197   -6.0832 C   0  0  0  1  0  0  0  0  0  0  0  0
   13.5723    1.5479   -5.2713 C   0  0  0  1  0  0  0  0  0  0  0  0
   12.9042    0.5313   -4.6068 C   0  0  0  1  0  0  0  0  0  0  0  0
   11.5383    0.3861   -4.7603 C   0  0  0  1  0  0  0  0  0  0  0  0
   14.9086    1.7414   -5.1678 O   0  0  0  1  0  0  0  0  0  0  0  0
   15.6422    0.8249   -4.3405 C   0  0  0  1  0  0  0  0  0  0  0  0
    4.8126    1.1651   -3.0489 N   0  0  0  1  0  0  0  0  0  0  0  0
    4.5200    1.1834   -1.6149 C   0  0  0  1  0  0  0  0  0  0  0  0
    4.8646   -0.1681   -0.9797 C   0  0  0  1  0  0  0  0  0  0  0  0
    6.3153   -0.0257   -0.5189 C   0  0  0  1  0  0  0  0  0  0  0  0
    6.3426    1.4084    0.0152 C   0  0  0  1  0  0  0  0  0  0  0  0
    5.4098    2.2070   -0.8983 C   0  0  0  1  0  0  0  0  0  0  0  0
    6.6392   -1.0026    0.5469 N   0  0  0  1  0  0  0  0  0  0  0  0
    9.1547    1.4279   -2.9002 H   0  0  0  1  0  0  0  0  0  0  0  0
    6.9495    0.8215   -7.7769 H   0  0  0  1  0  0  0  0  0  0  0  0
   10.9751    2.9278   -6.8514 H   0  0  0  1  0  0  0  0  0  0  0  0
   13.3721    3.1850   -6.5787 H   0  0  0  1  0  0  0  0  0  0  0  0
   13.4308   -0.1223   -3.9926 H   0  0  0  1  0  0  0  0  0  0  0  0
   11.0377   -0.3792   -4.2649 H   0  0  0  1  0  0  0  0  0  0  0  0
   16.6561    0.7718   -4.6783 H   0  0  0  1  0  0  0  0  0  0  0  0
   15.1952   -0.1454   -4.4003 H   0  0  0  1  0  0  0  0  0  0  0  0
   15.6219    1.1656   -3.3264 H   0  0  0  1  0  0  0  0  0  0  0  0
    4.0315    1.1445   -3.6404 H   0  0  0  1  0  0  0  0  0  0  0  0
    3.4863    1.4153   -1.4642 H   0  0  0  1  0  0  0  0  0  0  0  0
    4.2228   -0.3676   -0.1471 H   0  0  0  1  0  0  0  0  0  0  0  0
    4.7733   -0.9560   -1.6979 H   0  0  0  1  0  0  0  0  0  0  0  0
    6.9959   -0.1490   -1.3352 H   0  0  0  1  0  0  0  0  0  0  0  0
    7.3359    1.8039   -0.0281 H   0  0  0  1  0  0  0  0  0  0  0  0
    5.9904    1.4373    1.0252 H   0  0  0  1  0  0  0  0  0  0  0  0
    4.8095    2.8768   -0.3188 H   0  0  0  1  0  0  0  0  0  0  0  0
    5.9798    2.7646   -1.6119 H   0  0  0  1  0  0  0  0  0  0  0  0
    7.0368   -0.5340    1.3103 H   0  0  0  1  0  0  0  0  0  0  0  0
    7.2756   -1.6631    0.2019 H   0  0  0  1  0  0  0  0  0  0  0  0
  1  2  4  0  0  0  0
  1  6  4  0  0  0  0
  2  3  4  0  0  0  0
  2 18  1  0  0  0  0
  3  4  4  0  0  0  0
  4  5  4  0  0  0  0
  4  7  4  0  0  0  0
  5  6  4  0  0  0  0
  5  9  4  0  0  0  0
  6 25  1  0  0  0  0
  7  8  4  0  0  0  0
  7 26  1  0  0  0  0
  8  9  4  0  0  0  0
  9 10  1  0  0  0  0
 10 11  4  0  0  0  0
 10 15  4  0  0  0  0
 11 12  4  0  0  0  0
 11 27  1  0  0  0  0
 12 13  4  0  0  0  0
 12 28  1  0  0  0  0
 13 14  4  0  0  0  0
 13 16  1  0  0  0  0
 14 15  4  0  0  0  0
 14 29  1  0  0  0  0
 15 30  1  0  0  0  0
 16 17  1  0  0  0  0
 17 31  1  0  0  0  0
 17 32  1  0  0  0  0
 17 33  1  0  0  0  0
 18 19  1  0  0  0  0
 18 34  1  0  0  0  0
 19 20  1  0  0  0  0
 19 23  1  0  0  0  0
 19 35  1  0  0  0  0
 20 21  1  0  0  0  0
 20 36  1  0  0  0  0
 20 37  1  0  0  0  0
 21 22  1  0  0  0  0
 21 24  1  0  0  0  0
 21 38  1  0  0  0  0
 22 23  1  0  0  0  0
 22 39  1  0  0  0  0
 22 40  1  0  0  0  0
 23 41  1  0  0  0  0
 23 42  1  0  0  0  0
 24 43  1  0  0  0  0
 24 44  1  0  0  0  0
M  END
> <ConfClashScore>
0 

> <ConfOneFourInteractionScore>
-0.982693 

> <ConfScore>
0.267187 

> <ConfScorePBest>
0.00143407 

> <ConfTolerance>
0.52263 

$$$$
c13.sdf
 OpenBabel04162418043D

 44 47  0  0  0  0  0  0  0  0999 V2000
    2.0454    2.9733   -3.0834 N   0  0  0  1  0  0  0  0  0  0  0  0
    2.8611    2.6522   -2.0935 C   0  0  0  1  0  0  0  0  0  0  0  0
    3.0603    3.4387   -1.0607 N   0  0  0  1  0  0  0  0  0  0  0  0
    2.4314    4.6138   -0.9760 C   0  0  0  1  0  0  0  0  0  0  0  0
    1.5531    4.9892   -2.0147 C   0  0  0  1  0  0  0  0  0  0  0  0
    1.3809    4.1157   -3.0845 C   0  0  0  1  0  0  0  0  0  0  0  0
    2.4203    5.6645   -0.0326 C   0  0  0  1  0  0  0  0  0  0  0  0
    1.6120    6.5958   -0.4528 N   0  0  0  1  0  0  0  0  0  0  0  0
    1.0515    6.2184   -1.6801 N   0  0  0  1  0  0  0  0  0  0  0  0
    0.1387    7.0611   -2.3461 C   0  0  0  1  0  0  0  0  0  0  0  0
   -0.0269    8.3900   -2.0044 C   0  0  0  1  0  0  0  0  0  0  0  0
   -0.9355    9.1754   -2.6965 C   0  0  0  1  0  0  0  0  0  0  0  0
   -1.6796    8.6284   -3.7248 C   0  0  0  1  0  0  0  0  0  0  0  0
   -1.5134    7.2955   -4.0674 C   0  0  0  1  0  0  0  0  0  0  0  0
   -0.6075    6.5123   -3.3774 C   0  0  0  1  0  0  0  0  0  0  0  0
   -2.5973    9.2932   -4.4662 O   0  0  0  1  0  0  0  0  0  0  0  0
   -3.3062    8.5402   -5.4626 C   0  0  0  1  0  0  0  0  0  0  0  0
    3.5211    1.4594   -2.1455 N   0  0  0  1  0  0  0  0  0  0  0  0
    4.4434    1.0440   -1.0876 C   0  0  0  1  0  0  0  0  0  0  0  0
    5.2666   -0.1589   -1.5403 C   0  0  0  1  0  0  0  0  0  0  0  0
    6.4952   -0.0924   -0.6129 C   0  0  0  1  0  0  0  0  0  0  0  0
    6.6608    1.3735   -0.2444 C   0  0  0  1  0  0  0  0  0  0  0  0
    5.4519    2.1430   -0.8016 C   0  0  0  1  0  0  0  0  0  0  0  0
    6.2669   -0.9067    0.6036 N   0  0  0  1  0  0  0  0  0  0  0  0
    0.7422    4.3572   -3.8689 H   0  0  0  1  0  0  0  0  0  0  0  0
    2.9671    5.6906    0.8517 H   0  0  0  1  0  0  0  0  0  0  0  0
    0.5301    8.8006   -1.2280 H   0  0  0  1  0  0  0  0  0  0  0  0
   -1.0572   10.1764   -2.4421 H   0  0  0  1  0  0  0  0  0  0  0  0
   -2.0703    6.8849   -4.8438 H   0  0  0  1  0  0  0  0  0  0  0  0
   -0.4857    5.5112   -3.6318 H   0  0  0  1  0  0  0  0  0  0  0  0
   -2.6244    8.2261   -6.2251 H   0  0  0  1  0  0  0  0  0  0  0  0
   -4.0688    9.1526   -5.8966 H   0  0  0  1  0  0  0  0  0  0  0  0
   -3.7536    7.6808   -5.0085 H   0  0  0  1  0  0  0  0  0  0  0  0
    3.3739    0.8654   -2.9110 H   0  0  0  1  0  0  0  0  0  0  0  0
    3.8893    0.8062   -0.2037 H   0  0  0  1  0  0  0  0  0  0  0  0
    5.5525   -0.0669   -2.5673 H   0  0  0  1  0  0  0  0  0  0  0  0
    4.7260   -1.0716   -1.4004 H   0  0  0  1  0  0  0  0  0  0  0  0
    7.3658   -0.4485   -1.1229 H   0  0  0  1  0  0  0  0  0  0  0  0
    6.6986    1.4783    0.8197 H   0  0  0  1  0  0  0  0  0  0  0  0
    7.5634    1.7559   -0.6733 H   0  0  0  1  0  0  0  0  0  0  0  0
    5.0712    2.8345   -0.0793 H   0  0  0  1  0  0  0  0  0  0  0  0
    5.7110    2.6683   -1.6970 H   0  0  0  1  0  0  0  0  0  0  0  0
    5.3187   -0.8701    0.8486 H   0  0  0  1  0  0  0  0  0  0  0  0
    6.8081   -0.5525    1.3398 H   0  0  0  1  0  0  0  0  0  0  0  0
  1  2  4  0  0  0  0
  1  6  4  0  0  0  0
  2  3  4  0  0  0  0
  2 18  1  0  0  0  0
  3  4  4  0  0  0  0
  4  5  4  0  0  0  0
  4  7  4  0  0  0  0
  5  6  4  0  0  0  0
  5  9  4  0  0  0  0
  6 25  1  0  0  0  0
  7  8  4  0  0  0  0
  7 26  1  0  0  0  0
  8  9  4  0  0  0  0
  9 10  1  0  0  0  0
 10 11  4  0  0  0  0
 10 15  4  0  0  0  0
 11 12  4  0  0  0  0
 11 27  1  0  0  0  0
 12 13  4  0  0  0  0
 12 28  1  0  0  0  0
 13 14  4  0  0  0  0
 13 16  1  0  0  0  0
 14 15  4  0  0  0  0
 14 29  1  0  0  0  0
 15 30  1  0  0  0  0
 16 17  1  0  0  0  0
 17 31  1  0  0  0  0
 17 32  1  0  0  0  0
 17 33  1  0  0  0  0
 18 19  1  0  0  0  0
 18 34  1  0  0  0  0
 19 20  1  0  0  0  0
 19 23  1  0  0  0  0
 19 35  1  0  0  0  0
 20 21  1  0  0  0  0
 20 36  1  0  0  0  0
 20 37  1  0  0  0  0
 21 22  1  0  0  0  0
 21 24  1  0  0  0  0
 21 38  1  0  0  0  0
 22 23  1  0  0  0  0
 22 39  1  0  0  0  0
 22 40  1  0  0  0  0
 23 41  1  0  0  0  0
 23 42  1  0  0  0  0
 24 43  1  0  0  0  0
 24 44  1  0  0  0  0
M  END
> <ConfClashScore>
0.00258056 

> <ConfOneFourInteractionScore>
-0.985399 

> <ConfScore>
0.337217 

> <ConfScorePBest>
0.00142074 

> <ConfTolerance>
1.06396 

$$$$
c13.sdf
 OpenBabel04162418043D

 44 47  0  0  0  0  0  0  0  0999 V2000
    1.3553    1.0098   -2.9946 N   0  0  0  1  0  0  0  0  0  0  0  0
    2.5048    0.5699   -2.5117 C   0  0  0  1  0  0  0  0  0  0  0  0
    2.7962   -0.7088   -2.4395 N   0  0  0  1  0  0  0  0  0  0  0  0
    1.9210   -1.6252   -2.8610 C   0  0  0  1  0  0  0  0  0  0  0  0
    0.6835   -1.1916   -3.3826 C   0  0  0  1  0  0  0  0  0  0  0  0
    0.4294    0.1757   -3.4347 C   0  0  0  1  0  0  0  0  0  0  0  0
    1.9180   -3.0360   -2.9229 C   0  0  0  1  0  0  0  0  0  0  0  0
    0.7863   -3.4302   -3.4340 N   0  0  0  1  0  0  0  0  0  0  0  0
   -0.0110   -2.3180   -3.7342 N   0  0  0  1  0  0  0  0  0  0  0  0
   -1.3267   -2.4413   -4.2048 C   0  0  0  1  0  0  0  0  0  0  0  0
   -1.4580   -3.0163   -5.4547 C   0  0  0  1  0  0  0  0  0  0  0  0
   -2.7166   -3.1890   -6.0092 C   0  0  0  1  0  0  0  0  0  0  0  0
   -3.8398   -2.7814   -5.3146 C   0  0  0  1  0  0  0  0  0  0  0  0
   -3.7080   -2.2046   -4.0610 C   0  0  0  1  0  0  0  0  0  0  0  0
   -2.4531   -2.0324   -3.5080 C   0  0  0  1  0  0  0  0  0  0  0  0
   -4.9827   -3.0129   -5.9894 O   0  0  0  1  0  0  0  0  0  0  0  0
   -6.1954   -2.7057   -5.2630 C   0  0  0  1  0  0  0  0  0  0  0  0
    3.4557    1.4154   -2.0601 N   0  0  0  1  0  0  0  0  0  0  0  0
    4.4260    1.0718   -1.0159 C   0  0  0  1  0  0  0  0  0  0  0  0
    5.2626   -0.1441   -1.4143 C   0  0  0  1  0  0  0  0  0  0  0  0
    6.5327   -0.0430   -0.5626 C   0  0  0  1  0  0  0  0  0  0  0  0
    6.7251    1.4556   -0.2975 C   0  0  0  1  0  0  0  0  0  0  0  0
    5.4922    2.1601   -0.8686 C   0  0  0  1  0  0  0  0  0  0  0  0
    6.3603   -0.7834    0.7231 N   0  0  0  1  0  0  0  0  0  0  0  0
   -0.4710    0.5339   -3.8123 H   0  0  0  1  0  0  0  0  0  0  0  0
    2.6916   -3.6577   -2.6119 H   0  0  0  1  0  0  0  0  0  0  0  0
   -0.6126   -3.3194   -5.9792 H   0  0  0  1  0  0  0  0  0  0  0  0
   -2.8157   -3.6254   -6.9480 H   0  0  0  1  0  0  0  0  0  0  0  0
   -4.5534   -1.9016   -3.5366 H   0  0  0  1  0  0  0  0  0  0  0  0
   -2.3539   -1.5960   -2.5692 H   0  0  0  1  0  0  0  0  0  0  0  0
   -7.0432   -3.0269   -5.8313 H   0  0  0  1  0  0  0  0  0  0  0  0
   -6.2551   -1.6500   -5.0995 H   0  0  0  1  0  0  0  0  0  0  0  0
   -6.1848   -3.2131   -4.3210 H   0  0  0  1  0  0  0  0  0  0  0  0
    3.5000    2.3118   -2.4537 H   0  0  0  1  0  0  0  0  0  0  0  0
    3.9124    0.9040   -0.0923 H   0  0  0  1  0  0  0  0  0  0  0  0
    4.7360   -1.0504   -1.1991 H   0  0  0  1  0  0  0  0  0  0  0  0
    5.5041   -0.1101   -2.4561 H   0  0  0  1  0  0  0  0  0  0  0  0
    7.3724   -0.4402   -1.0936 H   0  0  0  1  0  0  0  0  0  0  0  0
    6.8008    1.6380    0.7541 H   0  0  0  1  0  0  0  0  0  0  0  0
    7.6103    1.8064   -0.7855 H   0  0  0  1  0  0  0  0  0  0  0  0
    5.1557    2.9242   -0.1994 H   0  0  0  1  0  0  0  0  0  0  0  0
    5.7175    2.5931   -1.8208 H   0  0  0  1  0  0  0  0  0  0  0  0
    6.0354   -1.6892    0.5379 H   0  0  0  1  0  0  0  0  0  0  0  0
    5.7112   -0.3126    1.2864 H   0  0  0  1  0  0  0  0  0  0  0  0
  1  2  4  0  0  0  0
  1  6  4  0  0  0  0
  2  3  4  0  0  0  0
  2 18  1  0  0  0  0
  3  4  4  0  0  0  0
  4  5  4  0  0  0  0
  4  7  4  0  0  0  0
  5  6  4  0  0  0  0
  5  9  4  0  0  0  0
  6 25  1  0  0  0  0
  7  8  4  0  0  0  0
  7 26  1  0  0  0  0
  8  9  4  0  0  0  0
  9 10  1  0  0  0  0
 10 11  4  0  0  0  0
 10 15  4  0  0  0  0
 11 12  4  0  0  0  0
 11 27  1  0  0  0  0
 12 13  4  0  0  0  0
 12 28  1  0  0  0  0
 13 14  4  0  0  0  0
 13 16  1  0  0  0  0
 14 15  4  0  0  0  0
 14 29  1  0  0  0  0
 15 30  1  0  0  0  0
 16 17  1  0  0  0  0
 17 31  1  0  0  0  0
 17 32  1  0  0  0  0
 17 33  1  0  0  0  0
 18 19  1  0  0  0  0
 18 34  1  0  0  0  0
 19 20  1  0  0  0  0
 19 23  1  0  0  0  0
 19 35  1  0  0  0  0
 20 21  1  0  0  0  0
 20 36  1  0  0  0  0
 20 37  1  0  0  0  0
 21 22  1  0  0  0  0
 21 24  1  0  0  0  0
 21 38  1  0  0  0  0
 22 23  1  0  0  0  0
 22 39  1  0  0  0  0
 22 40  1  0  0  0  0
 23 41  1  0  0  0  0
 23 42  1  0  0  0  0
 24 43  1  0  0  0  0
 24 44  1  0  0  0  0
M  END
> <ConfClashScore>
0 

> <ConfOneFourInteractionScore>
-0.981704 

> <ConfScore>
0.354945 

> <ConfScorePBest>
0.00140741 

> <ConfTolerance>
1.03682 

$$$$
c13.sdf
 OpenBabel04162418043D

 44 47  0  0  0  0  0  0  0  0999 V2000
    6.1580    0.5534   -3.4717 N   0  0  0  1  0  0  0  0  0  0  0  0
    4.9687    1.0487   -3.7695 C   0  0  0  1  0  0  0  0  0  0  0  0
    4.5775    1.2474   -5.0075 N   0  0  0  1  0  0  0  0  0  0  0  0
    5.3867    0.9489   -6.0271 C   0  0  0  1  0  0  0  0  0  0  0  0
    6.6638    0.4183   -5.7464 C   0  0  0  1  0  0  0  0  0  0  0  0
    7.0244    0.2291   -4.4156 C   0  0  0  1  0  0  0  0  0  0  0  0
    5.2811    1.0363   -7.4326 C   0  0  0  1  0  0  0  0  0  0  0  0
    6.3882    0.6006   -7.9634 N   0  0  0  1  0  0  0  0  0  0  0  0
    7.2752    0.2065   -6.9530 N   0  0  0  1  0  0  0  0  0  0  0  0
    8.6047   -0.2186   -7.2287 C   0  0  0  1  0  0  0  0  0  0  0  0
    8.9149   -0.7620   -8.4610 C   0  0  0  1  0  0  0  0  0  0  0  0
   10.2114   -1.1711   -8.7314 C   0  0  0  1  0  0  0  0  0  0  0  0
   11.1927   -1.0407   -7.7669 C   0  0  0  1  0  0  0  0  0  0  0  0
   10.8814   -0.4958   -6.5309 C   0  0  0  1  0  0  0  0  0  0  0  0
    9.5887   -0.0877   -6.2612 C   0  0  0  1  0  0  0  0  0  0  0  0
   12.4878   -1.4084   -7.9135 O   0  0  0  1  0  0  0  0  0  0  0  0
   13.3954   -1.0483   -6.8604 C   0  0  0  1  0  0  0  0  0  0  0  0
    4.1237    1.3624   -2.7643 N   0  0  0  1  0  0  0  0  0  0  0  0
    4.4534    1.2162   -1.3457 C   0  0  0  1  0  0  0  0  0  0  0  0
    5.0492   -0.1726   -1.0789 C   0  0  0  1  0  0  0  0  0  0  0  0
    6.4621    0.0848   -0.5478 C   0  0  0  1  0  0  0  0  0  0  0  0
    6.3937    1.4884    0.0637 C   0  0  0  1  0  0  0  0  0  0  0  0
    5.5305    2.2295   -0.9441 C   0  0  0  1  0  0  0  0  0  0  0  0
    6.8295   -0.9301    0.4946 N   0  0  0  1  0  0  0  0  0  0  0  0
    7.9569   -0.1596   -4.1688 H   0  0  0  1  0  0  0  0  0  0  0  0
    4.4558    1.3900   -7.9573 H   0  0  0  1  0  0  0  0  0  0  0  0
    8.1756   -0.8638   -9.1854 H   0  0  0  1  0  0  0  0  0  0  0  0
   10.4457   -1.5763   -9.6601 H   0  0  0  1  0  0  0  0  0  0  0  0
   11.6207   -0.3939   -5.8065 H   0  0  0  1  0  0  0  0  0  0  0  0
    9.3543    0.3174   -5.3325 H   0  0  0  1  0  0  0  0  0  0  0  0
   13.1536   -0.0705   -6.4994 H   0  0  0  1  0  0  0  0  0  0  0  0
   14.3971   -1.0518   -7.2364 H   0  0  0  1  0  0  0  0  0  0  0  0
   13.3116   -1.7542   -6.0607 H   0  0  0  1  0  0  0  0  0  0  0  0
    3.2372    1.7084   -2.9983 H   0  0  0  1  0  0  0  0  0  0  0  0
    3.5713    1.3603   -0.7573 H   0  0  0  1  0  0  0  0  0  0  0  0
    5.0877   -0.7430   -1.9833 H   0  0  0  1  0  0  0  0  0  0  0  0
    4.4656   -0.6963   -0.3508 H   0  0  0  1  0  0  0  0  0  0  0  0
    7.1765    0.0538   -1.3439 H   0  0  0  1  0  0  0  0  0  0  0  0
    5.9341    1.4696    1.0298 H   0  0  0  1  0  0  0  0  0  0  0  0
    7.3665    1.9273    0.1395 H   0  0  0  1  0  0  0  0  0  0  0  0
    5.0875    3.0953   -0.4980 H   0  0  0  1  0  0  0  0  0  0  0  0
    6.1096    2.5227   -1.7947 H   0  0  0  1  0  0  0  0  0  0  0  0
    7.1197   -1.7578    0.0574 H   0  0  0  1  0  0  0  0  0  0  0  0
    6.0501   -1.1150    1.0591 H   0  0  0  1  0  0  0  0  0  0  0  0
  1  2  4  0  0  0  0
  1  6  4  0  0  0  0
  2  3  4  0  0  0  0
  2 18  1  0  0  0  0
  3  4  4  0  0  0  0
  4  5  4  0  0  0  0
  4  7  4  0  0  0  0
  5  6  4  0  0  0  0
  5  9  4  0  0  0  0
  6 25  1  0  0  0  0
  7  8  4  0  0  0  0
  7 26  1  0  0  0  0
  8  9  4  0  0  0  0
  9 10  1  0  0  0  0
 10 11  4  0  0  0  0
 10 15  4  0  0  0  0
 11 12  4  0  0  0  0
 11 27  1  0  0  0  0
 12 13  4  0  0  0  0
 12 28  1  0  0  0  0
 13 14  4  0  0  0  0
 13 16  1  0  0  0  0
 14 15  4  0  0  0  0
 14 29  1  0  0  0  0
 15 30  1  0  0  0  0
 16 17  1  0  0  0  0
 17 31  1  0  0  0  0
 17 32  1  0  0  0  0
 17 33  1  0  0  0  0
 18 19  1  0  0  0  0
 18 34  1  0  0  0  0
 19 20  1  0  0  0  0
 19 23  1  0  0  0  0
 19 35  1  0  0  0  0
 20 21  1  0  0  0  0
 20 36  1  0  0  0  0
 20 37  1  0  0  0  0
 21 22  1  0  0  0  0
 21 24  1  0  0  0  0
 21 38  1  0  0  0  0
 22 23  1  0  0  0  0
 22 39  1  0  0  0  0
 22 40  1  0  0  0  0
 23 41  1  0  0  0  0
 23 42  1  0  0  0  0
 24 43  1  0  0  0  0
 24 44  1  0  0  0  0
M  END
> <ConfClashScore>
0.00237968 

> <ConfOneFourInteractionScore>
-0.980204 

> <ConfScore>
0.407733 

> <ConfScorePBest>
0.00139408 

> <ConfTolerance>
0.649192 

$$$$
c13.sdf
 OpenBabel04162418043D

 44 47  0  0  0  0  0  0  0  0999 V2000
    7.2417    1.5939   -2.7339 N   0  0  0  1  0  0  0  0  0  0  0  0
    6.2395    1.3235   -3.5528 C   0  0  0  1  0  0  0  0  0  0  0  0
    6.3950    1.2409   -4.8544 N   0  0  0  1  0  0  0  0  0  0  0  0
    7.5971    1.4319   -5.4039 C   0  0  0  1  0  0  0  0  0  0  0  0
    8.6901    1.7224   -4.5598 C   0  0  0  1  0  0  0  0  0  0  0  0
    8.4660    1.7975   -3.1883 C   0  0  0  1  0  0  0  0  0  0  0  0
    8.0950    1.4156   -6.7252 C   0  0  0  1  0  0  0  0  0  0  0  0
    9.3720    1.6719   -6.6945 N   0  0  0  1  0  0  0  0  0  0  0  0
    9.7840    1.8691   -5.3700 N   0  0  0  1  0  0  0  0  0  0  0  0
   11.1433    2.1656   -5.0657 C   0  0  0  1  0  0  0  0  0  0  0  0
   11.4772    2.6844   -3.8290 C   0  0  0  1  0  0  0  0  0  0  0  0
   12.8009    2.9680   -3.5310 C   0  0  0  1  0  0  0  0  0  0  0  0
   13.7861    2.7370   -4.4724 C   0  0  0  1  0  0  0  0  0  0  0  0
   13.4511    2.2167   -5.7128 C   0  0  0  1  0  0  0  0  0  0  0  0
   12.1312    1.9339   -6.0100 C   0  0  0  1  0  0  0  0  0  0  0  0
   15.0392    3.0570   -4.0705 O   0  0  0  1  0  0  0  0  0  0  0  0
   16.0968    2.8955   -5.0286 C   0  0  0  1  0  0  0  0  0  0  0  0
    4.9977    1.1163   -3.1007 N   0  0  0  1  0  0  0  0  0  0  0  0
    4.5600    1.1656   -1.7004 C   0  0  0  1  0  0  0  0  0  0  0  0
    4.8561   -0.1498   -0.9844 C   0  0  0  1  0  0  0  0  0  0  0  0
    6.3103   -0.0315   -0.5635 C   0  0  0  1  0  0  0  0  0  0  0  0
    6.3304    1.3608    0.0461 C   0  0  0  1  0  0  0  0  0  0  0  0
    5.4252    2.2264   -0.8604 C   0  0  0  1  0  0  0  0  0  0  0  0
    6.6755   -1.0751    0.4432 N   0  0  0  1  0  0  0  0  0  0  0  0
    9.2462    2.0095   -2.5342 H   0  0  0  1  0  0  0  0  0  0  0  0
    7.5348    1.2298   -7.5815 H   0  0  0  1  0  0  0  0  0  0  0  0
   10.7354    2.8620   -3.1220 H   0  0  0  1  0  0  0  0  0  0  0  0
   13.0527    3.3546   -2.5989 H   0  0  0  1  0  0  0  0  0  0  0  0
   14.1928    2.0391   -6.4197 H   0  0  0  1  0  0  0  0  0  0  0  0
   11.8794    1.5473   -6.9421 H   0  0  0  1  0  0  0  0  0  0  0  0
   16.0529    1.9115   -5.4465 H   0  0  0  1  0  0  0  0  0  0  0  0
   17.0407    3.0353   -4.5444 H   0  0  0  1  0  0  0  0  0  0  0  0
   15.9848    3.6193   -5.8085 H   0  0  0  1  0  0  0  0  0  0  0  0
    4.3123    0.9112   -3.7706 H   0  0  0  1  0  0  0  0  0  0  0  0
    3.5169    1.4005   -1.6603 H   0  0  0  1  0  0  0  0  0  0  0  0
    4.2229   -0.2665   -0.1298 H   0  0  0  1  0  0  0  0  0  0  0  0
    4.7199   -0.9798   -1.6459 H   0  0  0  1  0  0  0  0  0  0  0  0
    6.9685   -0.1005   -1.4043 H   0  0  0  1  0  0  0  0  0  0  0  0
    5.9452    1.3367    1.0440 H   0  0  0  1  0  0  0  0  0  0  0  0
    7.3274    1.7488    0.0573 H   0  0  0  1  0  0  0  0  0  0  0  0
    4.7874    2.8513   -0.2707 H   0  0  0  1  0  0  0  0  0  0  0  0
    6.0157    2.8340   -1.5138 H   0  0  0  1  0  0  0  0  0  0  0  0
    6.5333   -0.7223    1.3464 H   0  0  0  1  0  0  0  0  0  0  0  0
    7.6181   -1.3195    0.3328 H   0  0  0  1  0  0  0  0  0  0  0  0
  1  2  4  0  0  0  0
  1  6  4  0  0  0  0
  2  3  4  0  0  0  0
  2 18  1  0  0  0  0
  3  4  4  0  0  0  0
  4  5  4  0  0  0  0
  4  7  4  0  0  0  0
  5  6  4  0  0  0  0
  5  9  4  0  0  0  0
  6 25  1  0  0  0  0
  7  8  4  0  0  0  0
  7 26  1  0  0  0  0
  8  9  4  0  0  0  0
  9 10  1  0  0  0  0
 10 11  4  0  0  0  0
 10 15  4  0  0  0  0
 11 12  4  0  0  0  0
 11 27  1  0  0  0  0
 12 13  4  0  0  0  0
 12 28  1  0  0  0  0
 13 14  4  0  0  0  0
 13 16  1  0  0  0  0
 14 15  4  0  0  0  0
 14 29  1  0  0  0  0
 15 30  1  0  0  0  0
 16 17  1  0  0  0  0
 17 31  1  0  0  0  0
 17 32  1  0  0  0  0
 17 33  1  0  0  0  0
 18 19  1  0  0  0  0
 18 34  1  0  0  0  0
 19 20  1  0  0  0  0
 19 23  1  0  0  0  0
 19 35  1  0  0  0  0
 20 21  1  0  0  0  0
 20 36  1  0  0  0  0
 20 37  1  0  0  0  0
 21 22  1  0  0  0  0
 21 24  1  0  0  0  0
 21 38  1  0  0  0  0
 22 23  1  0  0  0  0
 22 39  1  0  0  0  0
 22 40  1  0  0  0  0
 23 41  1  0  0  0  0
 23 42  1  0  0  0  0
 24 43  1  0  0  0  0
 24 44  1  0  0  0  0
M  END
> <ConfClashScore>
0.00173975 

> <ConfOneFourInteractionScore>
-0.982693 

> <ConfScore>
0.408878 

> <ConfScorePBest>
0.00138075 

> <ConfTolerance>
0.943758 

$$$$
c13.sdf
 OpenBabel04162418043D

 44 47  0  0  0  0  0  0  0  0999 V2000
    1.4003    0.8481   -1.3422 N   0  0  0  1  0  0  0  0  0  0  0  0
    2.1899    1.7183   -1.9486 C   0  0  0  1  0  0  0  0  0  0  0  0
    1.7513    2.8682   -2.4072 N   0  0  0  1  0  0  0  0  0  0  0  0
    0.4653    3.2023   -2.2725 C   0  0  0  1  0  0  0  0  0  0  0  0
   -0.4066    2.2975   -1.6301 C   0  0  0  1  0  0  0  0  0  0  0  0
    0.1139    1.0937   -1.1643 C   0  0  0  1  0  0  0  0  0  0  0  0
   -0.3094    4.3243   -2.6398 C   0  0  0  1  0  0  0  0  0  0  0  0
   -1.5395    4.1266   -2.2589 N   0  0  0  1  0  0  0  0  0  0  0  0
   -1.6455    2.8804   -1.6275 N   0  0  0  1  0  0  0  0  0  0  0  0
   -2.9055    2.3953   -1.2058 C   0  0  0  1  0  0  0  0  0  0  0  0
   -3.9265    2.2352   -2.1234 C   0  0  0  1  0  0  0  0  0  0  0  0
   -5.1597    1.7547   -1.7111 C   0  0  0  1  0  0  0  0  0  0  0  0
   -5.3699    1.4409   -0.3816 C   0  0  0  1  0  0  0  0  0  0  0  0
   -4.3457    1.6015    0.5386 C   0  0  0  1  0  0  0  0  0  0  0  0
   -3.1161    2.0806    0.1276 C   0  0  0  1  0  0  0  0  0  0  0  0
   -6.5253    0.8763    0.0429 O   0  0  0  1  0  0  0  0  0  0  0  0
   -7.4977    0.5393   -0.9588 C   0  0  0  1  0  0  0  0  0  0  0  0
    3.4915    1.4157   -2.1024 N   0  0  0  1  0  0  0  0  0  0  0  0
    4.4315    1.0720   -1.0427 C   0  0  0  1  0  0  0  0  0  0  0  0
    5.2872   -0.1342   -1.4299 C   0  0  0  1  0  0  0  0  0  0  0  0
    6.5341   -0.0314   -0.5447 C   0  0  0  1  0  0  0  0  0  0  0  0
    6.7082    1.4661   -0.2617 C   0  0  0  1  0  0  0  0  0  0  0  0
    5.4853    2.1666   -0.8584 C   0  0  0  1  0  0  0  0  0  0  0  0
    6.3339   -0.7853    0.7310 N   0  0  0  1  0  0  0  0  0  0  0  0
   -0.4971    0.4014   -0.6858 H   0  0  0  1  0  0  0  0  0  0  0  0
    0.0437    5.1691   -3.1329 H   0  0  0  1  0  0  0  0  0  0  0  0
   -3.7697    2.4751   -3.1231 H   0  0  0  1  0  0  0  0  0  0  0  0
   -5.9268    1.6304   -2.4023 H   0  0  0  1  0  0  0  0  0  0  0  0
   -4.5025    1.3616    1.5383 H   0  0  0  1  0  0  0  0  0  0  0  0
   -2.3489    2.2049    0.8188 H   0  0  0  1  0  0  0  0  0  0  0  0
   -8.3587    0.1100   -0.4905 H   0  0  0  1  0  0  0  0  0  0  0  0
   -7.0748   -0.1665   -1.6428 H   0  0  0  1  0  0  0  0  0  0  0  0
   -7.7841    1.4233   -1.4892 H   0  0  0  1  0  0  0  0  0  0  0  0
    3.8426    1.4275   -3.0173 H   0  0  0  1  0  0  0  0  0  0  0  0
    3.8954    0.8922   -0.1342 H   0  0  0  1  0  0  0  0  0  0  0  0
    5.5553   -0.0892   -2.4648 H   0  0  0  1  0  0  0  0  0  0  0  0
    4.7621   -1.0462   -1.2363 H   0  0  0  1  0  0  0  0  0  0  0  0
    7.3902   -0.4177   -1.0573 H   0  0  0  1  0  0  0  0  0  0  0  0
    7.6031    1.8277   -0.7235 H   0  0  0  1  0  0  0  0  0  0  0  0
    6.7554    1.6397    0.7931 H   0  0  0  1  0  0  0  0  0  0  0  0
    5.7319    2.6097   -1.8006 H   0  0  0  1  0  0  0  0  0  0  0  0
    5.1258    2.9223   -0.1915 H   0  0  0  1  0  0  0  0  0  0  0  0
    6.1304   -1.7224    0.5288 H   0  0  0  1  0  0  0  0  0  0  0  0
    5.5891   -0.3899    1.2304 H   0  0  0  1  0  0  0  0  0  0  0  0
  1  2  4  0  0  0  0
  1  6  4  0  0  0  0
  2  3  4  0  0  0  0
  2 18  1  0  0  0  0
  3  4  4  0  0  0  0
  4  5  4  0  0  0  0
  4  7  4  0  0  0  0
  5  6  4  0  0  0  0
  5  9  4  0  0  0  0
  6 25  1  0  0  0  0
  7  8  4  0  0  0  0
  7 26  1  0  0  0  0
  8  9  4  0  0  0  0
  9 10  1  0  0  0  0
 10 11  4  0  0  0  0
 10 15  4  0  0  0  0
 11 12  4  0  0  0  0
 11 27  1  0  0  0  0
 12 13  4  0  0  0  0
 12 28  1  0  0  0  0
 13 14  4  0  0  0  0
 13 16  1  0  0  0  0
 14 15  4  0  0  0  0
 14 29  1  0  0  0  0
 15 30  1  0  0  0  0
 16 17  1  0  0  0  0
 17 31  1  0  0  0  0
 17 32  1  0  0  0  0
 17 33  1  0  0  0  0
 18 19  1  0  0  0  0
 18 34  1  0  0  0  0
 19 20  1  0  0  0  0
 19 23  1  0  0  0  0
 19 35  1  0  0  0  0
 20 21  1  0  0  0  0
 20 36  1  0  0  0  0
 20 37  1  0  0  0  0
 21 22  1  0  0  0  0
 21 24  1  0  0  0  0
 21 38  1  0  0  0  0
 22 23  1  0  0  0  0
 22 39  1  0  0  0  0
 22 40  1  0  0  0  0
 23 41  1  0  0  0  0
 23 42  1  0  0  0  0
 24 43  1  0  0  0  0
 24 44  1  0  0  0  0
M  END
> <ConfClashScore>
0 

> <ConfOneFourInteractionScore>
-0.982233 

> <ConfScore>
0.435927 

> <ConfScorePBest>
0.00136743 

> <ConfTolerance>
1.39162 

$$$$
c13.sdf
 OpenBabel04162418043D

 44 47  0  0  0  0  0  0  0  0999 V2000
    6.2617    1.9819   -4.7401 N   0  0  0  1  0  0  0  0  0  0  0  0
    6.1073    1.4010   -3.5624 C   0  0  0  1  0  0  0  0  0  0  0  0
    7.0066    0.5910   -3.0524 N   0  0  0  1  0  0  0  0  0  0  0  0
    8.1303    0.3225   -3.7223 C   0  0  0  1  0  0  0  0  0  0  0  0
    8.3288    0.9252   -4.9827 C   0  0  0  1  0  0  0  0  0  0  0  0
    7.3417    1.7749   -5.4733 C   0  0  0  1  0  0  0  0  0  0  0  0
    9.2659   -0.4779   -3.4694 C   0  0  0  1  0  0  0  0  0  0  0  0
   10.0832   -0.3758   -4.4788 N   0  0  0  1  0  0  0  0  0  0  0  0
    9.5413    0.4855   -5.4419 N   0  0  0  1  0  0  0  0  0  0  0  0
   10.2754    0.8779   -6.5855 C   0  0  0  1  0  0  0  0  0  0  0  0
    9.7269    1.6591   -7.5850 C   0  0  0  1  0  0  0  0  0  0  0  0
   10.4935    2.0193   -8.6823 C   0  0  0  1  0  0  0  0  0  0  0  0
   11.8046    1.5928   -8.7796 C   0  0  0  1  0  0  0  0  0  0  0  0
   12.3546    0.8093   -7.7770 C   0  0  0  1  0  0  0  0  0  0  0  0
   11.5903    0.4501   -6.6828 C   0  0  0  1  0  0  0  0  0  0  0  0
   12.4516    2.0020   -9.8967 O   0  0  0  1  0  0  0  0  0  0  0  0
   13.7519    1.4443  -10.1433 C   0  0  0  1  0  0  0  0  0  0  0  0
    4.9767    1.6775   -2.8998 N   0  0  0  1  0  0  0  0  0  0  0  0
    4.5454    1.2026   -1.5821 C   0  0  0  1  0  0  0  0  0  0  0  0
    5.0470   -0.2289   -1.3170 C   0  0  0  1  0  0  0  0  0  0  0  0
    6.4470   -0.1084   -0.6201 C   0  0  0  1  0  0  0  0  0  0  0  0
    6.6162    1.3851   -0.3606 C   0  0  0  1  0  0  0  0  0  0  0  0
    5.2246    2.0252   -0.4362 C   0  0  0  1  0  0  0  0  0  0  0  0
    6.4656   -0.8762    0.6690 N   0  0  0  1  0  0  0  0  0  0  0  0
    7.4517    2.2376   -6.3982 H   0  0  0  1  0  0  0  0  0  0  0  0
    9.4238   -1.0538   -2.6179 H   0  0  0  1  0  0  0  0  0  0  0  0
    8.7392    1.9767   -7.5139 H   0  0  0  1  0  0  0  0  0  0  0  0
   10.0821    2.6105   -9.4325 H   0  0  0  1  0  0  0  0  0  0  0  0
   13.3424    0.4917   -7.8481 H   0  0  0  1  0  0  0  0  0  0  0  0
   12.0017   -0.1411   -5.9326 H   0  0  0  1  0  0  0  0  0  0  0  0
   14.1223    1.8029  -11.0810 H   0  0  0  1  0  0  0  0  0  0  0  0
   13.6823    0.3770  -10.1722 H   0  0  0  1  0  0  0  0  0  0  0  0
   14.4198    1.7377   -9.3606 H   0  0  0  1  0  0  0  0  0  0  0  0
    4.3533    2.2789   -3.3582 H   0  0  0  1  0  0  0  0  0  0  0  0
    3.4788    1.2559   -1.5147 H   0  0  0  1  0  0  0  0  0  0  0  0
    5.1420   -0.7608   -2.2405 H   0  0  0  1  0  0  0  0  0  0  0  0
    4.3621   -0.7445   -0.6766 H   0  0  0  1  0  0  0  0  0  0  0  0
    7.2218   -0.4708   -1.2629 H   0  0  0  1  0  0  0  0  0  0  0  0
    7.2568    1.8146   -1.1022 H   0  0  0  1  0  0  0  0  0  0  0  0
    7.0383    1.5418    0.6101 H   0  0  0  1  0  0  0  0  0  0  0  0
    5.2881    3.0630   -0.6887 H   0  0  0  1  0  0  0  0  0  0  0  0
    4.6957    1.9139    0.4873 H   0  0  0  1  0  0  0  0  0  0  0  0
    5.7041   -0.6043    1.2228 H   0  0  0  1  0  0  0  0  0  0  0  0
    7.3002   -0.6903    1.1477 H   0  0  0  1  0  0  0  0  0  0  0  0
  1  2  4  0  0  0  0
  1  6  4  0  0  0  0
  2  3  4  0  0  0  0
  2 18  1  0  0  0  0
  3  4  4  0  0  0  0
  4  5  4  0  0  0  0
  4  7  4  0  0  0  0
  5  6  4  0  0  0  0
  5  9  4  0  0  0  0
  6 25  1  0  0  0  0
  7  8  4  0  0  0  0
  7 26  1  0  0  0  0
  8  9  4  0  0  0  0
  9 10  1  0  0  0  0
 10 11  4  0  0  0  0
 10 15  4  0  0  0  0
 11 12  4  0  0  0  0
 11 27  1  0  0  0  0
 12 13  4  0  0  0  0
 12 28  1  0  0  0  0
 13 14  4  0  0  0  0
 13 16  1  0  0  0  0
 14 15  4  0  0  0  0
 14 29  1  0  0  0  0
 15 30  1  0  0  0  0
 16 17  1  0  0  0  0
 17 31  1  0  0  0  0
 17 32  1  0  0  0  0
 17 33  1  0  0  0  0
 18 19  1  0  0  0  0
 18 34  1  0  0  0  0
 19 20  1  0  0  0  0
 19 23  1  0  0  0  0
 19 35  1  0  0  0  0
 20 21  1  0  0  0  0
 20 36  1  0  0  0  0
 20 37  1  0  0  0  0
 21 22  1  0  0  0  0
 21 24  1  0  0  0  0
 21 38  1  0  0  0  0
 22 23  1  0  0  0  0
 22 39  1  0  0  0  0
 22 40  1  0  0  0  0
 23 41  1  0  0  0  0
 23 42  1  0  0  0  0
 24 43  1  0  0  0  0
 24 44  1  0  0  0  0
M  END
> <ConfClashScore>
0.0046836 

> <ConfOneFourInteractionScore>
-0.982693 

> <ConfScore>
0.519732 

> <ConfScorePBest>
0.0013541 

> <ConfTolerance>
0.851921 

$$$$
c13.sdf
 OpenBabel04162418043D

 44 47  0  0  0  0  0  0  0  0999 V2000
    4.2355    1.9284   -4.2237 N   0  0  0  1  0  0  0  0  0  0  0  0
    3.7432    2.3462   -3.0698 C   0  0  0  1  0  0  0  0  0  0  0  0
    3.5006    3.6134   -2.8241 N   0  0  0  1  0  0  0  0  0  0  0  0
    3.7493    4.5405   -3.7526 C   0  0  0  1  0  0  0  0  0  0  0  0
    4.2751    4.1306   -4.9963 C   0  0  0  1  0  0  0  0  0  0  0  0
    4.5121    2.7745   -5.2006 C   0  0  0  1  0  0  0  0  0  0  0  0
    3.6081    5.9443   -3.8120 C   0  0  0  1  0  0  0  0  0  0  0  0
    4.0092    6.3562   -4.9811 N   0  0  0  1  0  0  0  0  0  0  0  0
    4.4321    5.2634   -5.7491 N   0  0  0  1  0  0  0  0  0  0  0  0
    4.9991    5.4631   -7.0241 C   0  0  0  1  0  0  0  0  0  0  0  0
    4.5358    6.5295   -7.7711 C   0  0  0  1  0  0  0  0  0  0  0  0
    5.0626    6.7749   -9.0296 C   0  0  0  1  0  0  0  0  0  0  0  0
    6.0475    5.9500   -9.5395 C   0  0  0  1  0  0  0  0  0  0  0  0
    6.5121    4.8804   -8.7901 C   0  0  0  1  0  0  0  0  0  0  0  0
    5.9868    4.6356   -7.5353 C   0  0  0  1  0  0  0  0  0  0  0  0
    6.4784    6.2827  -10.7718 O   0  0  0  1  0  0  0  0  0  0  0  0
    7.4937    5.4111  -11.3213 C   0  0  0  1  0  0  0  0  0  0  0  0
    3.4804    1.4404   -2.1107 N   0  0  0  1  0  0  0  0  0  0  0  0
    4.4190    1.0861   -1.0423 C   0  0  0  1  0  0  0  0  0  0  0  0
    5.2569   -0.1789   -1.4310 C   0  0  0  1  0  0  0  0  0  0  0  0
    6.5396   -0.0395   -0.5437 C   0  0  0  1  0  0  0  0  0  0  0  0
    6.7242    1.4814   -0.2787 C   0  0  0  1  0  0  0  0  0  0  0  0
    5.4846    2.1841   -0.8599 C   0  0  0  1  0  0  0  0  0  0  0  0
    6.3578   -0.7714    0.7474 N   0  0  0  1  0  0  0  0  0  0  0  0
    4.8991    2.4338   -6.1038 H   0  0  0  1  0  0  0  0  0  0  0  0
    3.2440    6.5494   -3.0486 H   0  0  0  1  0  0  0  0  0  0  0  0
    3.7919    7.1479   -7.3892 H   0  0  0  1  0  0  0  0  0  0  0  0
    4.7169    7.5798   -9.5901 H   0  0  0  1  0  0  0  0  0  0  0  0
    7.2559    4.2620   -9.1720 H   0  0  0  1  0  0  0  0  0  0  0  0
    6.3326    3.8308   -6.9747 H   0  0  0  1  0  0  0  0  0  0  0  0
    7.4291    4.4497  -10.8560 H   0  0  0  1  0  0  0  0  0  0  0  0
    8.4608    5.8311  -11.1388 H   0  0  0  1  0  0  0  0  0  0  0  0
    7.3423    5.3078  -12.3754 H   0  0  0  1  0  0  0  0  0  0  0  0
    2.6097    0.9908   -2.1272 H   0  0  0  1  0  0  0  0  0  0  0  0
    3.8796    0.9224   -0.1328 H   0  0  0  1  0  0  0  0  0  0  0  0
    4.7252   -1.0781   -1.1992 H   0  0  0  1  0  0  0  0  0  0  0  0
    5.5065   -0.1697   -2.4714 H   0  0  0  1  0  0  0  0  0  0  0  0
    7.3911   -0.4314   -1.0597 H   0  0  0  1  0  0  0  0  0  0  0  0
    7.6100    1.8354   -0.7633 H   0  0  0  1  0  0  0  0  0  0  0  0
    6.7940    1.6666    0.7729 H   0  0  0  1  0  0  0  0  0  0  0  0
    5.1323    2.9350   -0.1840 H   0  0  0  1  0  0  0  0  0  0  0  0
    5.7200    2.6335   -1.8020 H   0  0  0  1  0  0  0  0  0  0  0  0
    6.1997   -1.7213    0.5654 H   0  0  0  1  0  0  0  0  0  0  0  0
    5.5896   -0.3989    1.2284 H   0  0  0  1  0  0  0  0  0  0  0  0
  1  2  4  0  0  0  0
  1  6  4  0  0  0  0
  2  3  4  0  0  0  0
  2 18  1  0  0  0  0
  3  4  4  0  0  0  0
  4  5  4  0  0  0  0
  4  7  4  0  0  0  0
  5  6  4  0  0  0  0
  5  9  4  0  0  0  0
  6 25  1  0  0  0  0
  7  8  4  0  0  0  0
  7 26  1  0  0  0  0
  8  9  4  0  0  0  0
  9 10  1  0  0  0  0
 10 11  4  0  0  0  0
 10 15  4  0  0  0  0
 11 12  4  0  0  0  0
 11 27  1  0  0  0  0
 12 13  4  0  0  0  0
 12 28  1  0  0  0  0
 13 14  4  0  0  0  0
 13 16  1  0  0  0  0
 14 15  4  0  0  0  0
 14 29  1  0  0  0  0
 15 30  1  0  0  0  0
 16 17  1  0  0  0  0
 17 31  1  0  0  0  0
 17 32  1  0  0  0  0
 17 33  1  0  0  0  0
 18 19  1  0  0  0  0
 18 34  1  0  0  0  0
 19 20  1  0  0  0  0
 19 23  1  0  0  0  0
 19 35  1  0  0  0  0
 20 21  1  0  0  0  0
 20 36  1  0  0  0  0
 20 37  1  0  0  0  0
 21 22  1  0  0  0  0
 21 24  1  0  0  0  0
 21 38  1  0  0  0  0
 22 23  1  0  0  0  0
 22 39  1  0  0  0  0
 22 40  1  0  0  0  0
 23 41  1  0  0  0  0
 23 42  1  0  0  0  0
 24 43  1  0  0  0  0
 24 44  1  0  0  0  0
M  END
> <ConfClashScore>
0 

> <ConfOneFourInteractionScore>
-0.980588 

> <ConfScore>
0.646987 

> <ConfScorePBest>
0.00134077 

> <ConfTolerance>
2.00279 

$$$$
