6yky_lig_1.pdb
 OpenBabel04162415593D

 49 53  0  0  0  0  0  0  0  0999 V2000
    1.7337   -0.5052    0.9252 C   0  0  0  1  0  0  0  0  0  0  0  0
    3.6737   -1.7347    1.1106 C   0  0  0  1  0  0  0  0  0  0  0  0
    1.4239   -1.0365   -0.2378 N   0  0  0  1  0  0  0  0  0  0  0  0
    1.3327   -2.6771   -3.0957 C   0  0  0  1  0  0  0  0  0  0  0  0
    0.0290   -2.2313   -2.9876 C   0  0  0  1  0  0  0  0  0  0  0  0
    0.9302   -3.3092   -5.3729 C   0  0  0  1  0  0  0  0  0  0  0  0
    1.7833   -3.2194   -4.2892 C   0  0  0  1  0  0  0  0  0  0  0  0
   -0.3775   -2.8621   -5.2647 C   0  0  0  1  0  0  0  0  0  0  0  0
   -0.8265   -2.3214   -4.0746 C   0  0  0  1  0  0  0  0  0  0  0  0
    1.1954    1.1447    2.6819 C   0  0  0  1  0  0  0  0  0  0  0  0
    0.5610    0.4644    3.8594 C   0  0  0  1  0  0  0  0  0  0  0  0
   -0.9027    0.9792    3.7675 C   0  0  0  1  0  0  0  0  0  0  0  0
   -1.7048    3.2593    3.2310 C   0  0  0  1  0  0  0  0  0  0  0  0
    2.8272   -0.8402    1.5875 N   0  0  0  1  0  0  0  0  0  0  0  0
    3.3932   -2.3321   -0.1235 C   0  0  0  1  0  0  0  0  0  0  0  0
    2.2155   -1.9446   -0.7951 C   0  0  0  1  0  0  0  0  0  0  0  0
    2.1865   -2.6684   -1.9550 N   0  0  0  1  0  0  0  0  0  0  0  0
    4.0164   -3.2554   -0.8878 N   0  0  0  1  0  0  0  0  0  0  0  0
    3.3371   -3.4712   -1.9600 N   0  0  0  1  0  0  0  0  0  0  0  0
   -1.1197   -3.0060   -6.3882 O   0  0  0  1  0  0  0  0  0  0  0  0
    0.9085    0.4122    1.4608 N   0  0  0  1  0  0  0  0  0  0  0  0
   -2.4636   -2.5005   -6.3560 C   0  0  0  1  0  0  0  0  0  0  0  0
   -0.7194    2.2935    3.2094 N   0  0  0  1  0  0  0  0  0  0  0  0
    0.5885    2.5176    2.6221 C   0  0  0  1  0  0  0  0  0  0  0  0
   -1.8859    4.1210    4.2970 C   0  0  0  1  0  0  0  0  0  0  0  0
   -2.8321    5.1223    4.1889 C   0  0  0  1  0  0  0  0  0  0  0  0
   -3.5900    5.3031    3.1030 N   0  0  0  1  0  0  0  0  0  0  0  0
   -3.4070    4.4577    2.0788 C   0  0  0  1  0  0  0  0  0  0  0  0
   -2.4799    3.4304    2.1006 C   0  0  0  1  0  0  0  0  0  0  0  0
    4.5309   -1.9900    1.6413 H   0  0  0  1  0  0  0  0  0  0  0  0
   -0.3101   -1.8282   -2.0909 H   0  0  0  1  0  0  0  0  0  0  0  0
    1.2693   -3.7123   -6.2696 H   0  0  0  1  0  0  0  0  0  0  0  0
    2.7632   -3.5586   -4.3692 H   0  0  0  1  0  0  0  0  0  0  0  0
   -1.8064   -1.9822   -3.9945 H   0  0  0  1  0  0  0  0  0  0  0  0
    2.2547    1.2119    2.8176 H   0  0  0  1  0  0  0  0  0  0  0  0
    1.0225    0.7626    4.7775 H   0  0  0  1  0  0  0  0  0  0  0  0
    0.6066   -0.6005    3.7660 H   0  0  0  1  0  0  0  0  0  0  0  0
   -1.4929    0.3615    3.1233 H   0  0  0  1  0  0  0  0  0  0  0  0
   -1.3599    1.0269    4.7338 H   0  0  0  1  0  0  0  0  0  0  0  0
    0.0637    0.5974    0.9998 H   0  0  0  1  0  0  0  0  0  0  0  0
   -2.9621   -2.7531   -7.2685 H   0  0  0  1  0  0  0  0  0  0  0  0
   -2.4416   -1.4366   -6.2445 H   0  0  0  1  0  0  0  0  0  0  0  0
   -2.9883   -2.9354   -5.5311 H   0  0  0  1  0  0  0  0  0  0  0  0
    1.1571    3.2195    3.1956 H   0  0  0  1  0  0  0  0  0  0  0  0
    0.5075    2.8634    1.6128 H   0  0  0  1  0  0  0  0  0  0  0  0
   -1.3206    4.0176    5.1638 H   0  0  0  1  0  0  0  0  0  0  0  0
   -2.9610    5.7683    4.9937 H   0  0  0  1  0  0  0  0  0  0  0  0
   -3.9901    4.5798    1.2263 H   0  0  0  1  0  0  0  0  0  0  0  0
   -2.3689    2.7993    1.2815 H   0  0  0  1  0  0  0  0  0  0  0  0
  1  3  4  0  0  0  0
  1 14  4  0  0  0  0
  1 21  1  0  0  0  0
  2 14  4  0  0  0  0
  2 15  4  0  0  0  0
  2 30  1  0  0  0  0
  3 16  4  0  0  0  0
  4  5  4  0  0  0  0
  4  7  4  0  0  0  0
  4 17  1  0  0  0  0
  5  9  4  0  0  0  0
  5 31  1  0  0  0  0
  6  7  4  0  0  0  0
  6  8  4  0  0  0  0
  6 32  1  0  0  0  0
  7 33  1  0  0  0  0
  8  9  4  0  0  0  0
  8 20  1  0  0  0  0
  9 34  1  0  0  0  0
 10 11  1  0  0  0  0
 10 21  1  0  0  0  0
 10 24  1  0  0  0  0
 10 35  1  0  0  0  0
 11 12  1  0  0  0  0
 11 36  1  0  0  0  0
 11 37  1  0  0  0  0
 12 23  1  0  0  0  0
 12 38  1  0  0  0  0
 12 39  1  0  0  0  0
 13 23  1  0  0  0  0
 13 25  4  0  0  0  0
 13 29  4  0  0  0  0
 15 16  4  0  0  0  0
 15 18  4  0  0  0  0
 16 17  4  0  0  0  0
 17 19  4  0  0  0  0
 18 19  4  0  0  0  0
 20 22  1  0  0  0  0
 21 40  1  0  0  0  0
 22 41  1  0  0  0  0
 22 42  1  0  0  0  0
 22 43  1  0  0  0  0
 23 24  1  0  0  0  0
 24 44  1  0  0  0  0
 24 45  1  0  0  0  0
 25 26  4  0  0  0  0
 25 46  1  0  0  0  0
 26 27  4  0  0  0  0
 26 47  1  0  0  0  0
 27 28  4  0  0  0  0
 28 29  4  0  0  0  0
 28 48  1  0  0  0  0
 29 49  1  0  0  0  0
M  END
> <ConfClashScore>
0 

> <ConfOneFourInteractionScore>
-0.986948 

> <ConfScore>
-0.101809 

> <ConfScorePBest>
0.0053259 

> <ConfTolerance>
0.40029 

> <HETNAM>
     OWQ A 303  OWQ                                                       

> <pdb_OW>
Q_303 -16.5129 3.80749 7.62812 0.15963 1.39178 -0.28144 -3.20151 0 0 0 -1.30514 0 0 0 0 0 0 0 0 -8.31393

$$$$
6yky_lig_1.pdb
 OpenBabel04162415593D

 49 53  0  0  0  0  0  0  0  0999 V2000
    0.7431   -0.3898    1.0312 C   0  0  0  1  0  0  0  0  0  0  0  0
    2.1979   -1.1221    2.6612 C   0  0  0  1  0  0  0  0  0  0  0  0
    1.5042   -0.8314    0.0532 N   0  0  0  1  0  0  0  0  0  0  0  0
    3.8046   -2.1318   -1.8495 C   0  0  0  1  0  0  0  0  0  0  0  0
    2.6607   -2.1766   -2.6238 C   0  0  0  1  0  0  0  0  0  0  0  0
    5.1431   -2.5179   -3.8006 C   0  0  0  1  0  0  0  0  0  0  0  0
    5.0476   -2.3053   -2.4382 C   0  0  0  1  0  0  0  0  0  0  0  0
    3.9959   -2.5629   -4.5773 C   0  0  0  1  0  0  0  0  0  0  0  0
    2.7567   -2.3898   -3.9901 C   0  0  0  1  0  0  0  0  0  0  0  0
   -1.3019    0.7724    1.7519 C   0  0  0  1  0  0  0  0  0  0  0  0
   -2.3557   -0.2686    2.2211 C   0  0  0  1  0  0  0  0  0  0  0  0
   -3.5910    0.5126    2.7158 C   0  0  0  1  0  0  0  0  0  0  0  0
   -4.1594    2.9677    2.4039 C   0  0  0  1  0  0  0  0  0  0  0  0
    1.0742   -0.5277    2.3032 N   0  0  0  1  0  0  0  0  0  0  0  0
    3.0458   -1.6113    1.6610 C   0  0  0  1  0  0  0  0  0  0  0  0
    2.6527   -1.4422    0.3175 C   0  0  0  1  0  0  0  0  0  0  0  0
    3.6450   -2.0009   -0.4397 N   0  0  0  1  0  0  0  0  0  0  0  0
    4.2351   -2.2519    1.6628 N   0  0  0  1  0  0  0  0  0  0  0  0
    4.6086   -2.4916    0.4542 N   0  0  0  1  0  0  0  0  0  0  0  0
    4.2133   -2.7821   -5.8959 O   0  0  0  1  0  0  0  0  0  0  0  0
   -0.4307    0.2332    0.7227 N   0  0  0  1  0  0  0  0  0  0  0  0
    3.0858   -2.6567   -6.7766 C   0  0  0  1  0  0  0  0  0  0  0  0
   -3.3846    1.8641    2.1228 N   0  0  0  1  0  0  0  0  0  0  0  0
   -2.2408    1.8606    1.1961 C   0  0  0  1  0  0  0  0  0  0  0  0
   -5.1842    3.3984    1.5818 C   0  0  0  1  0  0  0  0  0  0  0  0
   -5.9084    4.5156    1.9520 C   0  0  0  1  0  0  0  0  0  0  0  0
   -5.6688    5.2100    3.0685 N   0  0  0  1  0  0  0  0  0  0  0  0
   -4.6695    4.7838    3.8540 C   0  0  0  1  0  0  0  0  0  0  0  0
   -3.8967    3.6735    3.5617 C   0  0  0  1  0  0  0  0  0  0  0  0
    2.4475   -1.2246    3.6656 H   0  0  0  1  0  0  0  0  0  0  0  0
    1.7280   -2.0504   -2.1814 H   0  0  0  1  0  0  0  0  0  0  0  0
    6.0759   -2.6441   -4.2429 H   0  0  0  1  0  0  0  0  0  0  0  0
    5.9080   -2.2755   -1.8549 H   0  0  0  1  0  0  0  0  0  0  0  0
    1.8962   -2.4195   -4.5734 H   0  0  0  1  0  0  0  0  0  0  0  0
   -0.7105    1.1351    2.5665 H   0  0  0  1  0  0  0  0  0  0  0  0
   -2.6286   -0.9050    1.4054 H   0  0  0  1  0  0  0  0  0  0  0  0
   -1.9550   -0.8605    3.0173 H   0  0  0  1  0  0  0  0  0  0  0  0
   -3.6146    0.5600    3.7845 H   0  0  0  1  0  0  0  0  0  0  0  0
   -4.4965    0.0688    2.3579 H   0  0  0  1  0  0  0  0  0  0  0  0
   -0.6928    0.3190   -0.2177 H   0  0  0  1  0  0  0  0  0  0  0  0
    3.4061   -2.7929   -7.7884 H   0  0  0  1  0  0  0  0  0  0  0  0
    2.6547   -1.6835   -6.6672 H   0  0  0  1  0  0  0  0  0  0  0  0
    2.3567   -3.4001   -6.5303 H   0  0  0  1  0  0  0  0  0  0  0  0
   -2.5581    1.6162    0.2039 H   0  0  0  1  0  0  0  0  0  0  0  0
   -1.7546    2.8137    1.1910 H   0  0  0  1  0  0  0  0  0  0  0  0
   -5.4059    2.8911    0.7014 H   0  0  0  1  0  0  0  0  0  0  0  0
   -6.6794    4.8323    1.3299 H   0  0  0  1  0  0  0  0  0  0  0  0
   -4.4651    5.3133    4.7255 H   0  0  0  1  0  0  0  0  0  0  0  0
   -3.1327    3.3763    4.2017 H   0  0  0  1  0  0  0  0  0  0  0  0
  1  3  4  0  0  0  0
  1 14  4  0  0  0  0
  1 21  1  0  0  0  0
  2 14  4  0  0  0  0
  2 15  4  0  0  0  0
  2 30  1  0  0  0  0
  3 16  4  0  0  0  0
  4  5  4  0  0  0  0
  4  7  4  0  0  0  0
  4 17  1  0  0  0  0
  5  9  4  0  0  0  0
  5 31  1  0  0  0  0
  6  7  4  0  0  0  0
  6  8  4  0  0  0  0
  6 32  1  0  0  0  0
  7 33  1  0  0  0  0
  8  9  4  0  0  0  0
  8 20  1  0  0  0  0
  9 34  1  0  0  0  0
 10 11  1  0  0  0  0
 10 21  1  0  0  0  0
 10 24  1  0  0  0  0
 10 35  1  0  0  0  0
 11 12  1  0  0  0  0
 11 36  1  0  0  0  0
 11 37  1  0  0  0  0
 12 23  1  0  0  0  0
 12 38  1  0  0  0  0
 12 39  1  0  0  0  0
 13 23  1  0  0  0  0
 13 25  4  0  0  0  0
 13 29  4  0  0  0  0
 15 16  4  0  0  0  0
 15 18  4  0  0  0  0
 16 17  4  0  0  0  0
 17 19  4  0  0  0  0
 18 19  4  0  0  0  0
 20 22  1  0  0  0  0
 21 40  1  0  0  0  0
 22 41  1  0  0  0  0
 22 42  1  0  0  0  0
 22 43  1  0  0  0  0
 23 24  1  0  0  0  0
 24 44  1  0  0  0  0
 24 45  1  0  0  0  0
 25 26  4  0  0  0  0
 25 46  1  0  0  0  0
 26 27  4  0  0  0  0
 26 47  1  0  0  0  0
 27 28  4  0  0  0  0
 28 29  4  0  0  0  0
 28 48  1  0  0  0  0
 29 49  1  0  0  0  0
M  END
> <ConfClashScore>
0 

> <ConfOneFourInteractionScore>
-0.986948 

> <ConfScore>
-0.0978971 

> <ConfScorePBest>
0.00531257 

> <ConfTolerance>
0.310744 

> <HETNAM>
     OWQ A 303  OWQ                                                       

> <pdb_OW>
Q_303 -16.5129 3.80749 7.62812 0.15963 1.39178 -0.28144 -3.20151 0 0 0 -1.30514 0 0 0 0 0 0 0 0 -8.31393

$$$$
6yky_lig_1.pdb
 OpenBabel04162415593D

 49 53  0  0  0  0  0  0  0  0999 V2000
    1.2511   -1.4016   -2.4950 C   0  0  0  1  0  0  0  0  0  0  0  0
    3.2362   -2.2976   -3.2473 C   0  0  0  1  0  0  0  0  0  0  0  0
    1.7075   -1.2348   -1.2724 N   0  0  0  1  0  0  0  0  0  0  0  0
    3.4212   -1.0965    1.4930 C   0  0  0  1  0  0  0  0  0  0  0  0
    2.5261   -0.0620    1.6899 C   0  0  0  1  0  0  0  0  0  0  0  0
    3.8969   -1.1350    3.8423 C   0  0  0  1  0  0  0  0  0  0  0  0
    4.1097   -1.6321    2.5704 C   0  0  0  1  0  0  0  0  0  0  0  0
    2.9992   -0.0974    4.0400 C   0  0  0  1  0  0  0  0  0  0  0  0
    2.3129    0.4364    2.9656 C   0  0  0  1  0  0  0  0  0  0  0  0
   -0.9151   -0.5036   -1.7513 C   0  0  0  1  0  0  0  0  0  0  0  0
   -1.9387   -1.5457   -1.3271 C   0  0  0  1  0  0  0  0  0  0  0  0
   -3.0877   -0.7237   -0.7397 C   0  0  0  1  0  0  0  0  0  0  0  0
   -3.8984    1.5981   -1.3297 C   0  0  0  1  0  0  0  0  0  0  0  0
    1.9895   -1.9184   -3.4616 N   0  0  0  1  0  0  0  0  0  0  0  0
    3.7731   -2.1427   -1.9642 C   0  0  0  1  0  0  0  0  0  0  0  0
    2.9495   -1.5870   -0.9637 C   0  0  0  1  0  0  0  0  0  0  0  0
    3.7087   -1.5496    0.1730 N   0  0  0  1  0  0  0  0  0  0  0  0
    4.9724   -2.4135   -1.4045 N   0  0  0  1  0  0  0  0  0  0  0  0
    4.9643   -2.0788   -0.1613 N   0  0  0  1  0  0  0  0  0  0  0  0
    2.7223    0.3302    5.2947 O   0  0  0  1  0  0  0  0  0  0  0  0
   -0.0304   -1.0282   -2.7766 N   0  0  0  1  0  0  0  0  0  0  0  0
    1.8126    1.4336    5.4261 C   0  0  0  1  0  0  0  0  0  0  0  0
   -2.9767    0.5607   -1.4488 N   0  0  0  1  0  0  0  0  0  0  0  0
   -1.7780    0.6197   -2.2979 C   0  0  0  1  0  0  0  0  0  0  0  0
   -3.7840    2.5294   -0.3142 C   0  0  0  1  0  0  0  0  0  0  0  0
   -4.7181    3.5447   -0.2353 C   0  0  0  1  0  0  0  0  0  0  0  0
   -5.7358    3.6753   -1.0917 N   0  0  0  1  0  0  0  0  0  0  0  0
   -5.8370    2.7629   -2.0687 C   0  0  0  1  0  0  0  0  0  0  0  0
   -4.9445    1.7166   -2.2238 C   0  0  0  1  0  0  0  0  0  0  0  0
    3.8073   -2.7030   -4.0162 H   0  0  0  1  0  0  0  0  0  0  0  0
    2.0127    0.3424    0.8809 H   0  0  0  1  0  0  0  0  0  0  0  0
    4.4104   -1.5395    4.6513 H   0  0  0  1  0  0  0  0  0  0  0  0
    4.7861   -2.4079    2.4216 H   0  0  0  1  0  0  0  0  0  0  0  0
    1.6364    1.2122    3.1144 H   0  0  0  1  0  0  0  0  0  0  0  0
   -0.3357   -0.1713   -0.9154 H   0  0  0  1  0  0  0  0  0  0  0  0
   -2.2715   -2.1157   -2.1692 H   0  0  0  1  0  0  0  0  0  0  0  0
   -1.5275   -2.2039   -0.5904 H   0  0  0  1  0  0  0  0  0  0  0  0
   -2.9652   -0.5917    0.3150 H   0  0  0  1  0  0  0  0  0  0  0  0
   -4.0313   -1.1892   -0.9342 H   0  0  0  1  0  0  0  0  0  0  0  0
   -0.3626   -1.1162   -3.6943 H   0  0  0  1  0  0  0  0  0  0  0  0
    0.8431    1.1402    5.0813 H   0  0  0  1  0  0  0  0  0  0  0  0
    2.1647    2.2575    4.8412 H   0  0  0  1  0  0  0  0  0  0  0  0
    1.7521    1.7253    6.4538 H   0  0  0  1  0  0  0  0  0  0  0  0
   -2.0257    0.4490   -3.3247 H   0  0  0  1  0  0  0  0  0  0  0  0
   -1.2851    1.5645   -2.2017 H   0  0  0  1  0  0  0  0  0  0  0  0
   -3.0097    2.4669    0.3772 H   0  0  0  1  0  0  0  0  0  0  0  0
   -4.6243    4.2430    0.5297 H   0  0  0  1  0  0  0  0  0  0  0  0
   -6.6246    2.8453   -2.7429 H   0  0  0  1  0  0  0  0  0  0  0  0
   -5.0592    1.0327   -2.9989 H   0  0  0  1  0  0  0  0  0  0  0  0
  1  3  4  0  0  0  0
  1 14  4  0  0  0  0
  1 21  1  0  0  0  0
  2 14  4  0  0  0  0
  2 15  4  0  0  0  0
  2 30  1  0  0  0  0
  3 16  4  0  0  0  0
  4  5  4  0  0  0  0
  4  7  4  0  0  0  0
  4 17  1  0  0  0  0
  5  9  4  0  0  0  0
  5 31  1  0  0  0  0
  6  7  4  0  0  0  0
  6  8  4  0  0  0  0
  6 32  1  0  0  0  0
  7 33  1  0  0  0  0
  8  9  4  0  0  0  0
  8 20  1  0  0  0  0
  9 34  1  0  0  0  0
 10 11  1  0  0  0  0
 10 21  1  0  0  0  0
 10 24  1  0  0  0  0
 10 35  1  0  0  0  0
 11 12  1  0  0  0  0
 11 36  1  0  0  0  0
 11 37  1  0  0  0  0
 12 23  1  0  0  0  0
 12 38  1  0  0  0  0
 12 39  1  0  0  0  0
 13 23  1  0  0  0  0
 13 25  4  0  0  0  0
 13 29  4  0  0  0  0
 15 16  4  0  0  0  0
 15 18  4  0  0  0  0
 16 17  4  0  0  0  0
 17 19  4  0  0  0  0
 18 19  4  0  0  0  0
 20 22  1  0  0  0  0
 21 40  1  0  0  0  0
 22 41  1  0  0  0  0
 22 42  1  0  0  0  0
 22 43  1  0  0  0  0
 23 24  1  0  0  0  0
 24 44  1  0  0  0  0
 24 45  1  0  0  0  0
 25 26  4  0  0  0  0
 25 46  1  0  0  0  0
 26 27  4  0  0  0  0
 26 47  1  0  0  0  0
 27 28  4  0  0  0  0
 28 29  4  0  0  0  0
 28 48  1  0  0  0  0
 29 49  1  0  0  0  0
M  END
> <ConfClashScore>
0 

> <ConfOneFourInteractionScore>
-0.986948 

> <ConfScore>
-0.0978971 

> <ConfScorePBest>
0.00529924 

> <ConfTolerance>
0.38066 

> <HETNAM>
     OWQ A 303  OWQ                                                       

> <pdb_OW>
Q_303 -16.5129 3.80749 7.62812 0.15963 1.39178 -0.28144 -3.20151 0 0 0 -1.30514 0 0 0 0 0 0 0 0 -8.31393

$$$$
6yky_lig_1.pdb
 OpenBabel04162415593D

 49 53  0  0  0  0  0  0  0  0999 V2000
   -0.4909   -0.6816   -2.2861 C   0  0  0  1  0  0  0  0  0  0  0  0
   -0.2569   -2.2218   -3.9839 C   0  0  0  1  0  0  0  0  0  0  0  0
    0.5233   -1.1712   -1.6060 N   0  0  0  1  0  0  0  0  0  0  0  0
    3.0748   -2.8330   -0.4521 C   0  0  0  1  0  0  0  0  0  0  0  0
    3.5542   -3.9740    0.1632 C   0  0  0  1  0  0  0  0  0  0  0  0
    3.9938   -1.4934    1.3108 C   0  0  0  1  0  0  0  0  0  0  0  0
    3.2925   -1.5911    0.1238 C   0  0  0  1  0  0  0  0  0  0  0  0
    4.4747   -2.6376    1.9281 C   0  0  0  1  0  0  0  0  0  0  0  0
    4.2575   -3.8758    1.3537 C   0  0  0  1  0  0  0  0  0  0  0  0
   -0.8591    0.9895   -0.5058 C   0  0  0  1  0  0  0  0  0  0  0  0
   -1.5648    0.2554    0.6287 C   0  0  0  1  0  0  0  0  0  0  0  0
   -2.9845    0.8108    0.5774 C   0  0  0  1  0  0  0  0  0  0  0  0
   -3.7146    3.2424    0.3198 C   0  0  0  1  0  0  0  0  0  0  0  0
   -0.8764   -1.1878   -3.4444 N   0  0  0  1  0  0  0  0  0  0  0  0
    0.8294   -2.7827   -3.3027 C   0  0  0  1  0  0  0  0  0  0  0  0
    1.2060   -2.2105   -2.0703 C   0  0  0  1  0  0  0  0  0  0  0  0
    2.2755   -2.9383   -1.6270 N   0  0  0  1  0  0  0  0  0  0  0  0
    1.6684   -3.8121   -3.5505 N   0  0  0  1  0  0  0  0  0  0  0  0
    2.5207   -3.9265   -2.5922 N   0  0  0  1  0  0  0  0  0  0  0  0
    5.1753   -2.6672    3.1033 O   0  0  0  1  0  0  0  0  0  0  0  0
   -1.1604    0.3723   -1.7857 N   0  0  0  1  0  0  0  0  0  0  0  0
    5.2638   -1.3790    3.7319 C   0  0  0  1  0  0  0  0  0  0  0  0
   -2.7595    2.2113    0.1605 N   0  0  0  1  0  0  0  0  0  0  0  0
   -1.4284    2.4127   -0.4397 C   0  0  0  1  0  0  0  0  0  0  0  0
   -3.7667    3.9048    1.5323 C   0  0  0  1  0  0  0  0  0  0  0  0
   -4.6933    4.9166    1.6977 C   0  0  0  1  0  0  0  0  0  0  0  0
   -5.5507    5.2909    0.7433 N   0  0  0  1  0  0  0  0  0  0  0  0
   -5.4921    4.6373   -0.4257 C   0  0  0  1  0  0  0  0  0  0  0  0
   -4.5937    3.6153   -0.6781 C   0  0  0  1  0  0  0  0  0  0  0  0
   -0.5698   -2.6113   -4.8961 H   0  0  0  1  0  0  0  0  0  0  0  0
    3.3874   -4.9060   -0.2669 H   0  0  0  1  0  0  0  0  0  0  0  0
    4.1606   -0.5613    1.7409 H   0  0  0  1  0  0  0  0  0  0  0  0
    2.9283   -0.7330   -0.3372 H   0  0  0  1  0  0  0  0  0  0  0  0
    4.6217   -4.7339    1.8147 H   0  0  0  1  0  0  0  0  0  0  0  0
    0.1999    0.9965   -0.3531 H   0  0  0  1  0  0  0  0  0  0  0  0
   -1.5607   -0.8016    0.4621 H   0  0  0  1  0  0  0  0  0  0  0  0
   -1.1032    0.4704    1.5698 H   0  0  0  1  0  0  0  0  0  0  0  0
   -3.5808    0.2845   -0.1385 H   0  0  0  1  0  0  0  0  0  0  0  0
   -3.4542    0.7630    1.5376 H   0  0  0  1  0  0  0  0  0  0  0  0
   -1.8950    0.7459   -2.3161 H   0  0  0  1  0  0  0  0  0  0  0  0
    5.8635   -1.4529    4.6150 H   0  0  0  1  0  0  0  0  0  0  0  0
    4.2826   -1.0424    3.9946 H   0  0  0  1  0  0  0  0  0  0  0  0
    5.7111   -0.6818    3.0546 H   0  0  0  1  0  0  0  0  0  0  0  0
   -0.8203    3.0416    0.1764 H   0  0  0  1  0  0  0  0  0  0  0  0
   -1.5085    2.8403   -1.4173 H   0  0  0  1  0  0  0  0  0  0  0  0
   -3.1207    3.6464    2.3053 H   0  0  0  1  0  0  0  0  0  0  0  0
   -4.7250    5.4120    2.6115 H   0  0  0  1  0  0  0  0  0  0  0  0
   -6.1539    4.9117   -1.1797 H   0  0  0  1  0  0  0  0  0  0  0  0
   -4.5809    3.1371   -1.6016 H   0  0  0  1  0  0  0  0  0  0  0  0
  1  3  4  0  0  0  0
  1 14  4  0  0  0  0
  1 21  1  0  0  0  0
  2 14  4  0  0  0  0
  2 15  4  0  0  0  0
  2 30  1  0  0  0  0
  3 16  4  0  0  0  0
  4  5  4  0  0  0  0
  4  7  4  0  0  0  0
  4 17  1  0  0  0  0
  5  9  4  0  0  0  0
  5 31  1  0  0  0  0
  6  7  4  0  0  0  0
  6  8  4  0  0  0  0
  6 32  1  0  0  0  0
  7 33  1  0  0  0  0
  8  9  4  0  0  0  0
  8 20  1  0  0  0  0
  9 34  1  0  0  0  0
 10 11  1  0  0  0  0
 10 21  1  0  0  0  0
 10 24  1  0  0  0  0
 10 35  1  0  0  0  0
 11 12  1  0  0  0  0
 11 36  1  0  0  0  0
 11 37  1  0  0  0  0
 12 23  1  0  0  0  0
 12 38  1  0  0  0  0
 12 39  1  0  0  0  0
 13 23  1  0  0  0  0
 13 25  4  0  0  0  0
 13 29  4  0  0  0  0
 15 16  4  0  0  0  0
 15 18  4  0  0  0  0
 16 17  4  0  0  0  0
 17 19  4  0  0  0  0
 18 19  4  0  0  0  0
 20 22  1  0  0  0  0
 21 40  1  0  0  0  0
 22 41  1  0  0  0  0
 22 42  1  0  0  0  0
 22 43  1  0  0  0  0
 23 24  1  0  0  0  0
 24 44  1  0  0  0  0
 24 45  1  0  0  0  0
 25 26  4  0  0  0  0
 25 46  1  0  0  0  0
 26 27  4  0  0  0  0
 26 47  1  0  0  0  0
 27 28  4  0  0  0  0
 28 29  4  0  0  0  0
 28 48  1  0  0  0  0
 29 49  1  0  0  0  0
M  END
> <ConfClashScore>
0 

> <ConfOneFourInteractionScore>
-0.986948 

> <ConfScore>
-0.097673 

> <ConfScorePBest>
0.00528591 

> <ConfTolerance>
0.465827 

> <HETNAM>
     OWQ A 303  OWQ                                                       

> <pdb_OW>
Q_303 -16.5129 3.80749 7.62812 0.15963 1.39178 -0.28144 -3.20151 0 0 0 -1.30514 0 0 0 0 0 0 0 0 -8.31393

$$$$
6yky_lig_1.pdb
 OpenBabel04162415593D

 49 53  0  0  0  0  0  0  0  0999 V2000
    0.7495   -0.3162    1.2152 C   0  0  0  1  0  0  0  0  0  0  0  0
    2.4810   -0.6795    2.6915 C   0  0  0  1  0  0  0  0  0  0  0  0
    1.4111   -0.8319    0.2016 N   0  0  0  1  0  0  0  0  0  0  0  0
    3.5751   -2.0741   -1.8581 C   0  0  0  1  0  0  0  0  0  0  0  0
    4.7655   -2.2964   -2.5243 C   0  0  0  1  0  0  0  0  0  0  0  0
    2.4061   -2.0481   -3.9510 C   0  0  0  1  0  0  0  0  0  0  0  0
    2.3941   -1.9471   -2.5726 C   0  0  0  1  0  0  0  0  0  0  0  0
    3.5999   -2.2711   -4.6193 C   0  0  0  1  0  0  0  0  0  0  0  0
    4.7774   -2.3977   -3.9067 C   0  0  0  1  0  0  0  0  0  0  0  0
   -1.3623    0.6398    2.0663 C   0  0  0  1  0  0  0  0  0  0  0  0
   -2.4280   -0.3893    2.4114 C   0  0  0  1  0  0  0  0  0  0  0  0
   -3.5208    0.4512    3.0475 C   0  0  0  1  0  0  0  0  0  0  0  0
   -4.4657    2.6900    2.2846 C   0  0  0  1  0  0  0  0  0  0  0  0
    1.2639   -0.2386    2.4301 N   0  0  0  1  0  0  0  0  0  0  0  0
    3.2299   -1.2381    1.6496 C   0  0  0  1  0  0  0  0  0  0  0  0
    2.6415   -1.3005    0.3697 C   0  0  0  1  0  0  0  0  0  0  0  0
    3.5731   -1.8802   -0.4465 N   0  0  0  1  0  0  0  0  0  0  0  0
    4.4678   -1.7713    1.5583 N   0  0  0  1  0  0  0  0  0  0  0  0
    4.6951   -2.1536    0.3501 N   0  0  0  1  0  0  0  0  0  0  0  0
    3.4888   -2.3462   -5.9669 O   0  0  0  1  0  0  0  0  0  0  0  0
   -0.4956    0.1494    1.0089 N   0  0  0  1  0  0  0  0  0  0  0  0
    4.7035   -2.4957   -6.7182 C   0  0  0  1  0  0  0  0  0  0  0  0
   -3.4374    1.7189    2.3078 N   0  0  0  1  0  0  0  0  0  0  0  0
   -2.1581    1.8584    1.5945 C   0  0  0  1  0  0  0  0  0  0  0  0
   -4.5144    3.6879    3.2404 C   0  0  0  1  0  0  0  0  0  0  0  0
   -5.5339    4.6186    3.1782 C   0  0  0  1  0  0  0  0  0  0  0  0
   -6.4849    4.6052    2.2391 N   0  0  0  1  0  0  0  0  0  0  0  0
   -6.4279    3.6296    1.3214 C   0  0  0  1  0  0  0  0  0  0  0  0
   -5.4407    2.6599    1.3067 C   0  0  0  1  0  0  0  0  0  0  0  0
    2.8748   -0.6129    3.6517 H   0  0  0  1  0  0  0  0  0  0  0  0
    5.6522   -2.3876   -1.9885 H   0  0  0  1  0  0  0  0  0  0  0  0
    1.5194   -1.9569   -4.4868 H   0  0  0  1  0  0  0  0  0  0  0  0
    1.4990   -1.7759   -2.0715 H   0  0  0  1  0  0  0  0  0  0  0  0
    5.6725   -2.5689   -4.4078 H   0  0  0  1  0  0  0  0  0  0  0  0
   -0.7742    0.8805    2.9272 H   0  0  0  1  0  0  0  0  0  0  0  0
   -2.0518   -1.1161    3.1006 H   0  0  0  1  0  0  0  0  0  0  0  0
   -2.7853   -0.8825    1.5316 H   0  0  0  1  0  0  0  0  0  0  0  0
   -4.4800   -0.0055    2.9202 H   0  0  0  1  0  0  0  0  0  0  0  0
   -3.3323    0.6015    4.0899 H   0  0  0  1  0  0  0  0  0  0  0  0
   -0.8382    0.1582    0.0907 H   0  0  0  1  0  0  0  0  0  0  0  0
    4.4793   -2.4909   -7.7644 H   0  0  0  1  0  0  0  0  0  0  0  0
    5.1716   -3.4222   -6.4582 H   0  0  0  1  0  0  0  0  0  0  0  0
    5.3647   -1.6856   -6.4916 H   0  0  0  1  0  0  0  0  0  0  0  0
   -2.3048    1.8342    0.5349 H   0  0  0  1  0  0  0  0  0  0  0  0
   -1.6644    2.7680    1.8661 H   0  0  0  1  0  0  0  0  0  0  0  0
   -3.7972    3.7371    3.9919 H   0  0  0  1  0  0  0  0  0  0  0  0
   -5.5628    5.3678    3.8989 H   0  0  0  1  0  0  0  0  0  0  0  0
   -7.1613    3.6001    0.5846 H   0  0  0  1  0  0  0  0  0  0  0  0
   -5.4330    1.9225    0.5734 H   0  0  0  1  0  0  0  0  0  0  0  0
  1  3  4  0  0  0  0
  1 14  4  0  0  0  0
  1 21  1  0  0  0  0
  2 14  4  0  0  0  0
  2 15  4  0  0  0  0
  2 30  1  0  0  0  0
  3 16  4  0  0  0  0
  4  5  4  0  0  0  0
  4  7  4  0  0  0  0
  4 17  1  0  0  0  0
  5  9  4  0  0  0  0
  5 31  1  0  0  0  0
  6  7  4  0  0  0  0
  6  8  4  0  0  0  0
  6 32  1  0  0  0  0
  7 33  1  0  0  0  0
  8  9  4  0  0  0  0
  8 20  1  0  0  0  0
  9 34  1  0  0  0  0
 10 11  1  0  0  0  0
 10 21  1  0  0  0  0
 10 24  1  0  0  0  0
 10 35  1  0  0  0  0
 11 12  1  0  0  0  0
 11 36  1  0  0  0  0
 11 37  1  0  0  0  0
 12 23  1  0  0  0  0
 12 38  1  0  0  0  0
 12 39  1  0  0  0  0
 13 23  1  0  0  0  0
 13 25  4  0  0  0  0
 13 29  4  0  0  0  0
 15 16  4  0  0  0  0
 15 18  4  0  0  0  0
 16 17  4  0  0  0  0
 17 19  4  0  0  0  0
 18 19  4  0  0  0  0
 20 22  1  0  0  0  0
 21 40  1  0  0  0  0
 22 41  1  0  0  0  0
 22 42  1  0  0  0  0
 22 43  1  0  0  0  0
 23 24  1  0  0  0  0
 24 44  1  0  0  0  0
 24 45  1  0  0  0  0
 25 26  4  0  0  0  0
 25 46  1  0  0  0  0
 26 27  4  0  0  0  0
 26 47  1  0  0  0  0
 27 28  4  0  0  0  0
 28 29  4  0  0  0  0
 28 48  1  0  0  0  0
 29 49  1  0  0  0  0
M  END
> <ConfClashScore>
0 

> <ConfOneFourInteractionScore>
-0.986948 

> <ConfScore>
-0.0802913 

> <ConfScorePBest>
0.00527258 

> <ConfTolerance>
0.366978 

> <HETNAM>
     OWQ A 303  OWQ                                                       

> <pdb_OW>
Q_303 -16.5129 3.80749 7.62812 0.15963 1.39178 -0.28144 -3.20151 0 0 0 -1.30514 0 0 0 0 0 0 0 0 -8.31393

$$$$
6yky_lig_1.pdb
 OpenBabel04162415593D

 49 53  0  0  0  0  0  0  0  0999 V2000
    0.8483   -0.9573   -2.5656 C   0  0  0  1  0  0  0  0  0  0  0  0
    2.5999   -1.7931   -3.8075 C   0  0  0  1  0  0  0  0  0  0  0  0
    1.5077   -1.0640   -1.4321 N   0  0  0  1  0  0  0  0  0  0  0  0
    3.6480   -1.5771    0.9676 C   0  0  0  1  0  0  0  0  0  0  0  0
    4.1974   -2.5256    1.8095 C   0  0  0  1  0  0  0  0  0  0  0  0
    2.8773   -0.3342    2.8672 C   0  0  0  1  0  0  0  0  0  0  0  0
    2.9847   -0.4811    1.4971 C   0  0  0  1  0  0  0  0  0  0  0  0
    3.4283   -1.2854    3.7118 C   0  0  0  1  0  0  0  0  0  0  0  0
    4.0896   -2.3781    3.1836 C   0  0  0  1  0  0  0  0  0  0  0  0
   -1.0618    0.0248   -1.3469 C   0  0  0  1  0  0  0  0  0  0  0  0
   -2.0919   -0.9952   -0.8128 C   0  0  0  1  0  0  0  0  0  0  0  0
   -3.3081   -0.2222   -0.3688 C   0  0  0  1  0  0  0  0  0  0  0  0
   -3.9811    2.2072   -0.9839 C   0  0  0  1  0  0  0  0  0  0  0  0
    1.3735   -1.3102   -3.7258 N   0  0  0  1  0  0  0  0  0  0  0  0
    3.3471   -1.9281   -2.6319 C   0  0  0  1  0  0  0  0  0  0  0  0
    2.7470   -1.5391   -1.4167 C   0  0  0  1  0  0  0  0  0  0  0  0
    3.6790   -1.7721   -0.4435 N   0  0  0  1  0  0  0  0  0  0  0  0
    4.5920   -2.3714   -2.3511 N   0  0  0  1  0  0  0  0  0  0  0  0
    4.8129   -2.2924   -1.0852 N   0  0  0  1  0  0  0  0  0  0  0  0
    3.3824   -1.2515    5.0577 O   0  0  0  1  0  0  0  0  0  0  0  0
   -0.4060   -0.4715   -2.5442 N   0  0  0  1  0  0  0  0  0  0  0  0
    2.6780   -0.1190    5.6179 C   0  0  0  1  0  0  0  0  0  0  0  0
   -3.0552    1.1459   -1.0391 N   0  0  0  1  0  0  0  0  0  0  0  0
   -1.9206    1.2352   -1.6561 C   0  0  0  1  0  0  0  0  0  0  0  0
   -3.9070    3.2243   -0.0503 C   0  0  0  1  0  0  0  0  0  0  0  0
   -4.8607    4.2240   -0.0794 C   0  0  0  1  0  0  0  0  0  0  0  0
   -5.8605    4.2603   -0.9656 N   0  0  0  1  0  0  0  0  0  0  0  0
   -5.9227    3.2655   -1.8622 C   0  0  0  1  0  0  0  0  0  0  0  0
   -5.0082    2.2278   -1.9072 C   0  0  0  1  0  0  0  0  0  0  0  0
    3.0022   -2.0674   -4.7265 H   0  0  0  1  0  0  0  0  0  0  0  0
    4.6915   -3.3499    1.4121 H   0  0  0  1  0  0  0  0  0  0  0  0
    2.3832    0.4901    3.2647 H   0  0  0  1  0  0  0  0  0  0  0  0
    2.5678    0.2305    0.8635 H   0  0  0  1  0  0  0  0  0  0  0  0
    4.5065   -3.0898    3.8171 H   0  0  0  1  0  0  0  0  0  0  0  0
   -0.3255    0.2537   -0.6051 H   0  0  0  1  0  0  0  0  0  0  0  0
   -2.3595   -1.6834   -1.5872 H   0  0  0  1  0  0  0  0  0  0  0  0
   -1.6784   -1.5323    0.0151 H   0  0  0  1  0  0  0  0  0  0  0  0
   -4.2107   -0.6727   -0.7256 H   0  0  0  1  0  0  0  0  0  0  0  0
   -3.3495   -0.1349    0.6969 H   0  0  0  1  0  0  0  0  0  0  0  0
   -0.9069   -0.4512   -3.3863 H   0  0  0  1  0  0  0  0  0  0  0  0
    3.1125    0.7881    5.2527 H   0  0  0  1  0  0  0  0  0  0  0  0
    2.7523   -0.1453    6.6850 H   0  0  0  1  0  0  0  0  0  0  0  0
    1.6483   -0.1620    5.3304 H   0  0  0  1  0  0  0  0  0  0  0  0
   -2.0946    1.2853   -2.7107 H   0  0  0  1  0  0  0  0  0  0  0  0
   -1.4125    2.1206   -1.3355 H   0  0  0  1  0  0  0  0  0  0  0  0
   -3.1479    3.2368    0.6604 H   0  0  0  1  0  0  0  0  0  0  0  0
   -4.7972    4.9871    0.6244 H   0  0  0  1  0  0  0  0  0  0  0  0
   -6.6958    3.2741   -2.5577 H   0  0  0  1  0  0  0  0  0  0  0  0
   -5.0927    1.4777   -2.6226 H   0  0  0  1  0  0  0  0  0  0  0  0
  1  3  4  0  0  0  0
  1 14  4  0  0  0  0
  1 21  1  0  0  0  0
  2 14  4  0  0  0  0
  2 15  4  0  0  0  0
  2 30  1  0  0  0  0
  3 16  4  0  0  0  0
  4  5  4  0  0  0  0
  4  7  4  0  0  0  0
  4 17  1  0  0  0  0
  5  9  4  0  0  0  0
  5 31  1  0  0  0  0
  6  7  4  0  0  0  0
  6  8  4  0  0  0  0
  6 32  1  0  0  0  0
  7 33  1  0  0  0  0
  8  9  4  0  0  0  0
  8 20  1  0  0  0  0
  9 34  1  0  0  0  0
 10 11  1  0  0  0  0
 10 21  1  0  0  0  0
 10 24  1  0  0  0  0
 10 35  1  0  0  0  0
 11 12  1  0  0  0  0
 11 36  1  0  0  0  0
 11 37  1  0  0  0  0
 12 23  1  0  0  0  0
 12 38  1  0  0  0  0
 12 39  1  0  0  0  0
 13 23  1  0  0  0  0
 13 25  4  0  0  0  0
 13 29  4  0  0  0  0
 15 16  4  0  0  0  0
 15 18  4  0  0  0  0
 16 17  4  0  0  0  0
 17 19  4  0  0  0  0
 18 19  4  0  0  0  0
 20 22  1  0  0  0  0
 21 40  1  0  0  0  0
 22 41  1  0  0  0  0
 22 42  1  0  0  0  0
 22 43  1  0  0  0  0
 23 24  1  0  0  0  0
 24 44  1  0  0  0  0
 24 45  1  0  0  0  0
 25 26  4  0  0  0  0
 25 46  1  0  0  0  0
 26 27  4  0  0  0  0
 26 47  1  0  0  0  0
 27 28  4  0  0  0  0
 28 29  4  0  0  0  0
 28 48  1  0  0  0  0
 29 49  1  0  0  0  0
M  END
> <ConfClashScore>
0 

> <ConfOneFourInteractionScore>
-0.986948 

> <ConfScore>
-0.0794017 

> <ConfScorePBest>
0.00525926 

> <ConfTolerance>
0.417673 

> <HETNAM>
     OWQ A 303  OWQ                                                       

> <pdb_OW>
Q_303 -16.5129 3.80749 7.62812 0.15963 1.39178 -0.28144 -3.20151 0 0 0 -1.30514 0 0 0 0 0 0 0 0 -8.31393

$$$$
6yky_lig_1.pdb
 OpenBabel04162415593D

 49 53  0  0  0  0  0  0  0  0999 V2000
    1.1057   -0.4170    1.1997 C   0  0  0  1  0  0  0  0  0  0  0  0
    2.7976   -1.3526    2.4533 C   0  0  0  1  0  0  0  0  0  0  0  0
    1.5583   -0.9296    0.0758 N   0  0  0  1  0  0  0  0  0  0  0  0
    3.1752   -2.4651   -2.2972 C   0  0  0  1  0  0  0  0  0  0  0  0
    4.1270   -3.1021   -3.0708 C   0  0  0  1  0  0  0  0  0  0  0  0
    1.9394   -1.9060   -4.2739 C   0  0  0  1  0  0  0  0  0  0  0  0
    2.0811   -1.8638   -2.8997 C   0  0  0  1  0  0  0  0  0  0  0  0
    2.8939   -2.5448   -5.0500 C   0  0  0  1  0  0  0  0  0  0  0  0
    3.9847   -3.1442   -4.4490 C   0  0  0  1  0  0  0  0  0  0  0  0
   -0.6721    0.8514    2.3524 C   0  0  0  1  0  0  0  0  0  0  0  0
   -1.6949   -0.1687    2.9002 C   0  0  0  1  0  0  0  0  0  0  0  0
   -2.9205    0.6005    3.3246 C   0  0  0  1  0  0  0  0  0  0  0  0
   -3.5980    2.9938    2.6619 C   0  0  0  1  0  0  0  0  0  0  0  0
    1.7037   -0.6185    2.3609 N   0  0  0  1  0  0  0  0  0  0  0  0
    3.3229   -1.9227    1.2881 C   0  0  0  1  0  0  0  0  0  0  0  0
    2.6524   -1.6812    0.0715 C   0  0  0  1  0  0  0  0  0  0  0  0
    3.3648   -2.3425   -0.8903 N   0  0  0  1  0  0  0  0  0  0  0  0
    4.3917   -2.7039    1.0193 N   0  0  0  1  0  0  0  0  0  0  0  0
    4.4416   -2.9643   -0.2406 N   0  0  0  1  0  0  0  0  0  0  0  0
    2.8650   -2.6459   -6.4001 O   0  0  0  1  0  0  0  0  0  0  0  0
   -0.0059    0.3400    1.1673 N   0  0  0  1  0  0  0  0  0  0  0  0
    1.7365   -2.0709   -7.0772 C   0  0  0  1  0  0  0  0  0  0  0  0
   -2.6776    1.9586    2.6307 N   0  0  0  1  0  0  0  0  0  0  0  0
   -1.5410    2.0477    2.0174 C   0  0  0  1  0  0  0  0  0  0  0  0
   -4.6799    3.0012    1.8012 C   0  0  0  1  0  0  0  0  0  0  0  0
   -5.5759    4.0511    1.8688 C   0  0  0  1  0  0  0  0  0  0  0  0
   -5.4514    5.0694    2.7253 N   0  0  0  1  0  0  0  0  0  0  0  0
   -4.3953    5.0517    3.5510 C   0  0  0  1  0  0  0  0  0  0  0  0
   -3.4525    4.0386    3.5536 C   0  0  0  1  0  0  0  0  0  0  0  0
    3.2591   -1.5039    3.3729 H   0  0  0  1  0  0  0  0  0  0  0  0
    4.9499   -3.5497   -2.6190 H   0  0  0  1  0  0  0  0  0  0  0  0
    1.1165   -1.4584   -4.7257 H   0  0  0  1  0  0  0  0  0  0  0  0
    1.3670   -1.3811   -2.3178 H   0  0  0  1  0  0  0  0  0  0  0  0
    4.6988   -3.6270   -5.0309 H   0  0  0  1  0  0  0  0  0  0  0  0
    0.0585    1.1008    3.0933 H   0  0  0  1  0  0  0  0  0  0  0  0
   -1.2801   -0.6867    3.7395 H   0  0  0  1  0  0  0  0  0  0  0  0
   -1.9522   -0.8733    2.1371 H   0  0  0  1  0  0  0  0  0  0  0  0
   -3.8170    0.1349    2.9719 H   0  0  0  1  0  0  0  0  0  0  0  0
   -2.9678    0.7067    4.3883 H   0  0  0  1  0  0  0  0  0  0  0  0
   -0.3889    0.5593    0.2923 H   0  0  0  1  0  0  0  0  0  0  0  0
    1.5881   -1.0679   -6.7355 H   0  0  0  1  0  0  0  0  0  0  0  0
    0.8621   -2.6515   -6.8688 H   0  0  0  1  0  0  0  0  0  0  0  0
    1.9185   -2.0651   -8.1316 H   0  0  0  1  0  0  0  0  0  0  0  0
   -1.7104    2.0771    0.9613 H   0  0  0  1  0  0  0  0  0  0  0  0
   -1.0429    2.9436    2.3242 H   0  0  0  1  0  0  0  0  0  0  0  0
   -4.8169    2.2311    1.1158 H   0  0  0  1  0  0  0  0  0  0  0  0
   -6.3887    4.0486    1.2200 H   0  0  0  1  0  0  0  0  0  0  0  0
   -4.2790    5.8375    4.2223 H   0  0  0  1  0  0  0  0  0  0  0  0
   -2.6497    4.0635    4.2143 H   0  0  0  1  0  0  0  0  0  0  0  0
  1  3  4  0  0  0  0
  1 14  4  0  0  0  0
  1 21  1  0  0  0  0
  2 14  4  0  0  0  0
  2 15  4  0  0  0  0
  2 30  1  0  0  0  0
  3 16  4  0  0  0  0
  4  5  4  0  0  0  0
  4  7  4  0  0  0  0
  4 17  1  0  0  0  0
  5  9  4  0  0  0  0
  5 31  1  0  0  0  0
  6  7  4  0  0  0  0
  6  8  4  0  0  0  0
  6 32  1  0  0  0  0
  7 33  1  0  0  0  0
  8  9  4  0  0  0  0
  8 20  1  0  0  0  0
  9 34  1  0  0  0  0
 10 11  1  0  0  0  0
 10 21  1  0  0  0  0
 10 24  1  0  0  0  0
 10 35  1  0  0  0  0
 11 12  1  0  0  0  0
 11 36  1  0  0  0  0
 11 37  1  0  0  0  0
 12 23  1  0  0  0  0
 12 38  1  0  0  0  0
 12 39  1  0  0  0  0
 13 23  1  0  0  0  0
 13 25  4  0  0  0  0
 13 29  4  0  0  0  0
 15 16  4  0  0  0  0
 15 18  4  0  0  0  0
 16 17  4  0  0  0  0
 17 19  4  0  0  0  0
 18 19  4  0  0  0  0
 20 22  1  0  0  0  0
 21 40  1  0  0  0  0
 22 41  1  0  0  0  0
 22 42  1  0  0  0  0
 22 43  1  0  0  0  0
 23 24  1  0  0  0  0
 24 44  1  0  0  0  0
 24 45  1  0  0  0  0
 25 26  4  0  0  0  0
 25 46  1  0  0  0  0
 26 27  4  0  0  0  0
 26 47  1  0  0  0  0
 27 28  4  0  0  0  0
 28 29  4  0  0  0  0
 28 48  1  0  0  0  0
 29 49  1  0  0  0  0
M  END
> <ConfClashScore>
0 

> <ConfOneFourInteractionScore>
-0.986948 

> <ConfScore>
-0.0762798 

> <ConfScorePBest>
0.00524593 

> <ConfTolerance>
0.320362 

> <HETNAM>
     OWQ A 303  OWQ                                                       

> <pdb_OW>
Q_303 -16.5129 3.80749 7.62812 0.15963 1.39178 -0.28144 -3.20151 0 0 0 -1.30514 0 0 0 0 0 0 0 0 -8.31393

$$$$
6yky_lig_1.pdb
 OpenBabel04162415593D

 49 53  0  0  0  0  0  0  0  0999 V2000
   -0.2062   -2.4063   -1.4344 C   0  0  0  1  0  0  0  0  0  0  0  0
    0.2120   -2.8748   -3.6514 C   0  0  0  1  0  0  0  0  0  0  0  0
    0.6983   -1.4518   -1.3919 N   0  0  0  1  0  0  0  0  0  0  0  0
    3.0375    0.7424   -1.9546 C   0  0  0  1  0  0  0  0  0  0  0  0
    2.6627    0.8366   -0.6277 C   0  0  0  1  0  0  0  0  0  0  0  0
    4.4652    2.6499   -1.6891 C   0  0  0  1  0  0  0  0  0  0  0  0
    3.9380    1.6520   -2.4869 C   0  0  0  1  0  0  0  0  0  0  0  0
    4.0893    2.7445   -0.3582 C   0  0  0  1  0  0  0  0  0  0  0  0
    3.1914    1.8375    0.1723 C   0  0  0  1  0  0  0  0  0  0  0  0
   -0.6764   -2.0505    0.9635 C   0  0  0  1  0  0  0  0  0  0  0  0
   -1.3848   -2.8023    2.0519 C   0  0  0  1  0  0  0  0  0  0  0  0
   -2.8322   -2.2506    1.9230 C   0  0  0  1  0  0  0  0  0  0  0  0
   -3.5623    0.0782    1.5186 C   0  0  0  1  0  0  0  0  0  0  0  0
   -0.4484   -3.1033   -2.5308 N   0  0  0  1  0  0  0  0  0  0  0  0
    1.1860   -1.8700   -3.6628 C   0  0  0  1  0  0  0  0  0  0  0  0
    1.4112   -1.1517   -2.4705 C   0  0  0  1  0  0  0  0  0  0  0  0
    2.3965   -0.2470   -2.7549 N   0  0  0  1  0  0  0  0  0  0  0  0
    2.0264   -1.3815   -4.6009 N   0  0  0  1  0  0  0  0  0  0  0  0
    2.7431   -0.4359   -4.1012 N   0  0  0  1  0  0  0  0  0  0  0  0
    4.7031    3.6733    0.4129 O   0  0  0  1  0  0  0  0  0  0  0  0
   -0.9105   -2.6839   -0.3225 N   0  0  0  1  0  0  0  0  0  0  0  0
    4.3214    3.7340    1.7961 C   0  0  0  1  0  0  0  0  0  0  0  0
   -2.5961   -0.9027    1.4756 N   0  0  0  1  0  0  0  0  0  0  0  0
   -1.2549   -0.6640    0.9757 C   0  0  0  1  0  0  0  0  0  0  0  0
   -3.8365    0.7464    2.6976 C   0  0  0  1  0  0  0  0  0  0  0  0
   -4.8110    1.7261    2.6951 C   0  0  0  1  0  0  0  0  0  0  0  0
   -5.5107    2.0640    1.6077 N   0  0  0  1  0  0  0  0  0  0  0  0
   -5.2376    1.4051    0.4725 C   0  0  0  1  0  0  0  0  0  0  0  0
   -4.2762    0.4134    0.3846 C   0  0  0  1  0  0  0  0  0  0  0  0
    0.0123   -3.4301   -4.5078 H   0  0  0  1  0  0  0  0  0  0  0  0
    1.9840    0.1566   -0.2295 H   0  0  0  1  0  0  0  0  0  0  0  0
    5.1439    3.3299   -2.0873 H   0  0  0  1  0  0  0  0  0  0  0  0
    4.2170    1.5834   -3.4865 H   0  0  0  1  0  0  0  0  0  0  0  0
    2.9125    1.9060    1.1719 H   0  0  0  1  0  0  0  0  0  0  0  0
    0.3751   -2.0164    1.1587 H   0  0  0  1  0  0  0  0  0  0  0  0
   -1.3531   -3.8581    1.8811 H   0  0  0  1  0  0  0  0  0  0  0  0
   -0.9679   -2.5832    3.0126 H   0  0  0  1  0  0  0  0  0  0  0  0
   -3.3395   -2.2648    2.8650 H   0  0  0  1  0  0  0  0  0  0  0  0
   -3.3979   -2.8058    1.2043 H   0  0  0  1  0  0  0  0  0  0  0  0
   -1.6238   -3.3531   -0.3838 H   0  0  0  1  0  0  0  0  0  0  0  0
    3.2571    3.8162    1.8696 H   0  0  0  1  0  0  0  0  0  0  0  0
    4.7773    4.5866    2.2545 H   0  0  0  1  0  0  0  0  0  0  0  0
    4.6454    2.8444    2.2946 H   0  0  0  1  0  0  0  0  0  0  0  0
   -0.7053   -0.0191    1.6292 H   0  0  0  1  0  0  0  0  0  0  0  0
   -1.2756   -0.2426   -0.0076 H   0  0  0  1  0  0  0  0  0  0  0  0
   -3.3191    0.5159    3.5698 H   0  0  0  1  0  0  0  0  0  0  0  0
   -5.0101    2.2262    3.5850 H   0  0  0  1  0  0  0  0  0  0  0  0
   -5.7743    1.6511   -0.3836 H   0  0  0  1  0  0  0  0  0  0  0  0
   -4.0947   -0.0701   -0.5181 H   0  0  0  1  0  0  0  0  0  0  0  0
  1  3  4  0  0  0  0
  1 14  4  0  0  0  0
  1 21  1  0  0  0  0
  2 14  4  0  0  0  0
  2 15  4  0  0  0  0
  2 30  1  0  0  0  0
  3 16  4  0  0  0  0
  4  5  4  0  0  0  0
  4  7  4  0  0  0  0
  4 17  1  0  0  0  0
  5  9  4  0  0  0  0
  5 31  1  0  0  0  0
  6  7  4  0  0  0  0
  6  8  4  0  0  0  0
  6 32  1  0  0  0  0
  7 33  1  0  0  0  0
  8  9  4  0  0  0  0
  8 20  1  0  0  0  0
  9 34  1  0  0  0  0
 10 11  1  0  0  0  0
 10 21  1  0  0  0  0
 10 24  1  0  0  0  0
 10 35  1  0  0  0  0
 11 12  1  0  0  0  0
 11 36  1  0  0  0  0
 11 37  1  0  0  0  0
 12 23  1  0  0  0  0
 12 38  1  0  0  0  0
 12 39  1  0  0  0  0
 13 23  1  0  0  0  0
 13 25  4  0  0  0  0
 13 29  4  0  0  0  0
 15 16  4  0  0  0  0
 15 18  4  0  0  0  0
 16 17  4  0  0  0  0
 17 19  4  0  0  0  0
 18 19  4  0  0  0  0
 20 22  1  0  0  0  0
 21 40  1  0  0  0  0
 22 41  1  0  0  0  0
 22 42  1  0  0  0  0
 22 43  1  0  0  0  0
 23 24  1  0  0  0  0
 24 44  1  0  0  0  0
 24 45  1  0  0  0  0
 25 26  4  0  0  0  0
 25 46  1  0  0  0  0
 26 27  4  0  0  0  0
 26 47  1  0  0  0  0
 27 28  4  0  0  0  0
 28 29  4  0  0  0  0
 28 48  1  0  0  0  0
 29 49  1  0  0  0  0
M  END
> <ConfClashScore>
0 

> <ConfOneFourInteractionScore>
-0.986948 

> <ConfScore>
-0.0752854 

> <ConfScorePBest>
0.0052326 

> <ConfTolerance>
0.480032 

> <HETNAM>
     OWQ A 303  OWQ                                                       

> <pdb_OW>
Q_303 -16.5129 3.80749 7.62812 0.15963 1.39178 -0.28144 -3.20151 0 0 0 -1.30514 0 0 0 0 0 0 0 0 -8.31393

$$$$
6yky_lig_1.pdb
 OpenBabel04162415593D

 49 53  0  0  0  0  0  0  0  0999 V2000
    1.7775    0.4366    0.2538 C   0  0  0  1  0  0  0  0  0  0  0  0
    3.3175    1.5323   -1.0642 C   0  0  0  1  0  0  0  0  0  0  0  0
    1.4754   -0.4261   -0.6924 N   0  0  0  1  0  0  0  0  0  0  0  0
    1.1360   -2.1426   -3.4518 C   0  0  0  1  0  0  0  0  0  0  0  0
    1.1758   -2.5935   -4.7576 C   0  0  0  1  0  0  0  0  0  0  0  0
   -0.6897   -3.6269   -2.9925 C   0  0  0  1  0  0  0  0  0  0  0  0
    0.2002   -2.6581   -2.5685 C   0  0  0  1  0  0  0  0  0  0  0  0
   -0.6499   -4.0793   -4.3022 C   0  0  0  1  0  0  0  0  0  0  0  0
    0.2833   -3.5652   -5.1827 C   0  0  0  1  0  0  0  0  0  0  0  0
    1.3884    0.9987    2.6313 C   0  0  0  1  0  0  0  0  0  0  0  0
    0.7539    0.3184    3.8087 C   0  0  0  1  0  0  0  0  0  0  0  0
   -0.7098    0.8331    3.7168 C   0  0  0  1  0  0  0  0  0  0  0  0
   -1.5066    3.1079    3.1801 C   0  0  0  1  0  0  0  0  0  0  0  0
    2.6732    1.3926    0.0801 N   0  0  0  1  0  0  0  0  0  0  0  0
    3.0350    0.6413   -2.1058 C   0  0  0  1  0  0  0  0  0  0  0  0
    2.0724   -0.3631   -1.8762 C   0  0  0  1  0  0  0  0  0  0  0  0
    1.9915   -1.0813   -3.0371 N   0  0  0  1  0  0  0  0  0  0  0  0
    3.4884    0.4937   -3.3698 N   0  0  0  1  0  0  0  0  0  0  0  0
    2.8989   -0.5010   -3.9361 N   0  0  0  1  0  0  0  0  0  0  0  0
   -1.5523   -5.0253   -4.6552 O   0  0  0  1  0  0  0  0  0  0  0  0
    1.1015    0.2662    1.4101 N   0  0  0  1  0  0  0  0  0  0  0  0
   -2.2520   -5.6932   -3.5936 C   0  0  0  1  0  0  0  0  0  0  0  0
   -0.5266    2.1475    3.1586 N   0  0  0  1  0  0  0  0  0  0  0  0
    0.7813    2.3716    2.5714 C   0  0  0  1  0  0  0  0  0  0  0  0
   -2.4739    3.0783    2.1926 C   0  0  0  1  0  0  0  0  0  0  0  0
   -3.4679    4.0382    2.2068 C   0  0  0  1  0  0  0  0  0  0  0  0
   -3.5445    5.0031    3.1283 N   0  0  0  1  0  0  0  0  0  0  0  0
   -2.5977    5.0225    4.0773 C   0  0  0  1  0  0  0  0  0  0  0  0
   -1.5693    4.0985    4.1405 C   0  0  0  1  0  0  0  0  0  0  0  0
    4.0202    2.2888   -1.1887 H   0  0  0  1  0  0  0  0  0  0  0  0
    1.8753   -2.2039   -5.4213 H   0  0  0  1  0  0  0  0  0  0  0  0
   -1.3892   -4.0166   -2.3289 H   0  0  0  1  0  0  0  0  0  0  0  0
    0.1677   -2.3158   -1.5870 H   0  0  0  1  0  0  0  0  0  0  0  0
    0.3158   -3.9074   -6.1642 H   0  0  0  1  0  0  0  0  0  0  0  0
    2.4476    1.0660    2.7669 H   0  0  0  1  0  0  0  0  0  0  0  0
    1.2154    0.6166    4.7269 H   0  0  0  1  0  0  0  0  0  0  0  0
    0.7996   -0.7465    3.7154 H   0  0  0  1  0  0  0  0  0  0  0  0
   -1.2999    0.2154    3.0725 H   0  0  0  1  0  0  0  0  0  0  0  0
   -1.1670    0.8808    4.6830 H   0  0  0  1  0  0  0  0  0  0  0  0
    0.3743   -0.3906    1.4265 H   0  0  0  1  0  0  0  0  0  0  0  0
   -1.5516   -6.2218   -2.9813 H   0  0  0  1  0  0  0  0  0  0  0  0
   -2.9547   -6.3847   -4.0096 H   0  0  0  1  0  0  0  0  0  0  0  0
   -2.7711   -4.9707   -2.9991 H   0  0  0  1  0  0  0  0  0  0  0  0
    1.3500    3.0735    3.1449 H   0  0  0  1  0  0  0  0  0  0  0  0
    0.7004    2.7173    1.5621 H   0  0  0  1  0  0  0  0  0  0  0  0
   -2.4537    2.3474    1.4530 H   0  0  0  1  0  0  0  0  0  0  0  0
   -4.1934    4.0082    1.4623 H   0  0  0  1  0  0  0  0  0  0  0  0
   -2.6380    5.7682    4.8012 H   0  0  0  1  0  0  0  0  0  0  0  0
   -0.8572    4.1492    4.8968 H   0  0  0  1  0  0  0  0  0  0  0  0
  1  3  4  0  0  0  0
  1 14  4  0  0  0  0
  1 21  1  0  0  0  0
  2 14  4  0  0  0  0
  2 15  4  0  0  0  0
  2 30  1  0  0  0  0
  3 16  4  0  0  0  0
  4  5  4  0  0  0  0
  4  7  4  0  0  0  0
  4 17  1  0  0  0  0
  5  9  4  0  0  0  0
  5 31  1  0  0  0  0
  6  7  4  0  0  0  0
  6  8  4  0  0  0  0
  6 32  1  0  0  0  0
  7 33  1  0  0  0  0
  8  9  4  0  0  0  0
  8 20  1  0  0  0  0
  9 34  1  0  0  0  0
 10 11  1  0  0  0  0
 10 21  1  0  0  0  0
 10 24  1  0  0  0  0
 10 35  1  0  0  0  0
 11 12  1  0  0  0  0
 11 36  1  0  0  0  0
 11 37  1  0  0  0  0
 12 23  1  0  0  0  0
 12 38  1  0  0  0  0
 12 39  1  0  0  0  0
 13 23  1  0  0  0  0
 13 25  4  0  0  0  0
 13 29  4  0  0  0  0
 15 16  4  0  0  0  0
 15 18  4  0  0  0  0
 16 17  4  0  0  0  0
 17 19  4  0  0  0  0
 18 19  4  0  0  0  0
 20 22  1  0  0  0  0
 21 40  1  0  0  0  0
 22 41  1  0  0  0  0
 22 42  1  0  0  0  0
 22 43  1  0  0  0  0
 23 24  1  0  0  0  0
 24 44  1  0  0  0  0
 24 45  1  0  0  0  0
 25 26  4  0  0  0  0
 25 46  1  0  0  0  0
 26 27  4  0  0  0  0
 26 47  1  0  0  0  0
 27 28  4  0  0  0  0
 28 29  4  0  0  0  0
 28 48  1  0  0  0  0
 29 49  1  0  0  0  0
M  END
> <ConfClashScore>
0 

> <ConfOneFourInteractionScore>
-0.986948 

> <ConfScore>
-0.0747058 

> <ConfScorePBest>
0.00521927 

> <ConfTolerance>
0.44997 

> <HETNAM>
     OWQ A 303  OWQ                                                       

> <pdb_OW>
Q_303 -16.5129 3.80749 7.62812 0.15963 1.39178 -0.28144 -3.20151 0 0 0 -1.30514 0 0 0 0 0 0 0 0 -8.31393

$$$$
6yky_lig_1.pdb
 OpenBabel04162415593D

 49 53  0  0  0  0  0  0  0  0999 V2000
    1.1148   -1.1664   -2.6580 C   0  0  0  1  0  0  0  0  0  0  0  0
    2.9651   -2.2327   -3.5233 C   0  0  0  1  0  0  0  0  0  0  0  0
    1.5776   -1.2090   -1.4272 N   0  0  0  1  0  0  0  0  0  0  0  0
    3.3085   -1.6543    1.3354 C   0  0  0  1  0  0  0  0  0  0  0  0
    2.5874   -0.5322    1.6972 C   0  0  0  1  0  0  0  0  0  0  0  0
    3.8091   -2.0788    3.6412 C   0  0  0  1  0  0  0  0  0  0  0  0
    3.9225   -2.4274    2.3085 C   0  0  0  1  0  0  0  0  0  0  0  0
    3.0859   -0.9533    4.0042 C   0  0  0  1  0  0  0  0  0  0  0  0
    2.4737   -0.1827    3.0338 C   0  0  0  1  0  0  0  0  0  0  0  0
   -0.9251   -0.0434   -1.8361 C   0  0  0  1  0  0  0  0  0  0  0  0
   -1.9860   -1.0670   -1.3450 C   0  0  0  1  0  0  0  0  0  0  0  0
   -3.1984   -0.2656   -0.8264 C   0  0  0  1  0  0  0  0  0  0  0  0
   -3.7361    2.2026   -1.1280 C   0  0  0  1  0  0  0  0  0  0  0  0
    1.7846   -1.6626   -3.6834 N   0  0  0  1  0  0  0  0  0  0  0  0
    3.5053   -2.3053   -2.2344 C   0  0  0  1  0  0  0  0  0  0  0  0
    2.7561   -1.7630   -1.1701 C   0  0  0  1  0  0  0  0  0  0  0  0
    3.5019   -1.9647   -0.0418 N   0  0  0  1  0  0  0  0  0  0  0  0
    4.6503   -2.8028   -1.7182 N   0  0  0  1  0  0  0  0  0  0  0  0
    4.6760   -2.6189   -0.4441 N   0  0  0  1  0  0  0  0  0  0  0  0
    2.8446   -0.6381    5.2989 O   0  0  0  1  0  0  0  0  0  0  0  0
   -0.0833   -0.5974   -2.8822 N   0  0  0  1  0  0  0  0  0  0  0  0
    1.8465    0.3621    5.5557 C   0  0  0  1  0  0  0  0  0  0  0  0
   -2.9820    1.0821   -1.4247 N   0  0  0  1  0  0  0  0  0  0  0  0
   -1.8572    1.0595   -2.3741 C   0  0  0  1  0  0  0  0  0  0  0  0
   -4.6538    2.1811   -0.0940 C   0  0  0  1  0  0  0  0  0  0  0  0
   -5.3836    3.3243    0.1708 C   0  0  0  1  0  0  0  0  0  0  0  0
   -5.2522    4.4577   -0.5252 N   0  0  0  1  0  0  0  0  0  0  0  0
   -4.3620    4.4631   -1.5276 C   0  0  0  1  0  0  0  0  0  0  0  0
   -3.5873    3.3652   -1.8589 C   0  0  0  1  0  0  0  0  0  0  0  0
    3.4826   -2.6196   -4.3383 H   0  0  0  1  0  0  0  0  0  0  0  0
    2.1301    0.0500    0.9668 H   0  0  0  1  0  0  0  0  0  0  0  0
    4.2664   -2.6610    4.3716 H   0  0  0  1  0  0  0  0  0  0  0  0
    4.4685   -3.2695    2.0359 H   0  0  0  1  0  0  0  0  0  0  0  0
    1.9278    0.6594    3.3064 H   0  0  0  1  0  0  0  0  0  0  0  0
   -0.3117    0.3101   -1.0338 H   0  0  0  1  0  0  0  0  0  0  0  0
   -2.2854   -1.6994   -2.1545 H   0  0  0  1  0  0  0  0  0  0  0  0
   -1.5790   -1.6648   -0.5564 H   0  0  0  1  0  0  0  0  0  0  0  0
   -3.1998   -0.2172    0.2425 H   0  0  0  1  0  0  0  0  0  0  0  0
   -4.1179   -0.6949   -1.1658 H   0  0  0  1  0  0  0  0  0  0  0  0
   -0.4074   -0.5540   -3.8060 H   0  0  0  1  0  0  0  0  0  0  0  0
    0.8851   -0.0112    5.2708 H   0  0  0  1  0  0  0  0  0  0  0  0
    2.0695    1.2419    4.9889 H   0  0  0  1  0  0  0  0  0  0  0  0
    1.8414    0.6010    6.5987 H   0  0  0  1  0  0  0  0  0  0  0  0
   -1.3559    2.0046   -2.3897 H   0  0  0  1  0  0  0  0  0  0  0  0
   -2.1982    0.8196   -3.3595 H   0  0  0  1  0  0  0  0  0  0  0  0
   -4.7922    1.3208    0.4737 H   0  0  0  1  0  0  0  0  0  0  0  0
   -6.0702    3.3016    0.9516 H   0  0  0  1  0  0  0  0  0  0  0  0
   -4.2481    5.3348   -2.0834 H   0  0  0  1  0  0  0  0  0  0  0  0
   -2.9061    3.4145   -2.6431 H   0  0  0  1  0  0  0  0  0  0  0  0
  1  3  4  0  0  0  0
  1 14  4  0  0  0  0
  1 21  1  0  0  0  0
  2 14  4  0  0  0  0
  2 15  4  0  0  0  0
  2 30  1  0  0  0  0
  3 16  4  0  0  0  0
  4  5  4  0  0  0  0
  4  7  4  0  0  0  0
  4 17  1  0  0  0  0
  5  9  4  0  0  0  0
  5 31  1  0  0  0  0
  6  7  4  0  0  0  0
  6  8  4  0  0  0  0
  6 32  1  0  0  0  0
  7 33  1  0  0  0  0
  8  9  4  0  0  0  0
  8 20  1  0  0  0  0
  9 34  1  0  0  0  0
 10 11  1  0  0  0  0
 10 21  1  0  0  0  0
 10 24  1  0  0  0  0
 10 35  1  0  0  0  0
 11 12  1  0  0  0  0
 11 36  1  0  0  0  0
 11 37  1  0  0  0  0
 12 23  1  0  0  0  0
 12 38  1  0  0  0  0
 12 39  1  0  0  0  0
 13 23  1  0  0  0  0
 13 25  4  0  0  0  0
 13 29  4  0  0  0  0
 15 16  4  0  0  0  0
 15 18  4  0  0  0  0
 16 17  4  0  0  0  0
 17 19  4  0  0  0  0
 18 19  4  0  0  0  0
 20 22  1  0  0  0  0
 21 40  1  0  0  0  0
 22 41  1  0  0  0  0
 22 42  1  0  0  0  0
 22 43  1  0  0  0  0
 23 24  1  0  0  0  0
 24 44  1  0  0  0  0
 24 45  1  0  0  0  0
 25 26  4  0  0  0  0
 25 46  1  0  0  0  0
 26 27  4  0  0  0  0
 26 47  1  0  0  0  0
 27 28  4  0  0  0  0
 28 29  4  0  0  0  0
 28 48  1  0  0  0  0
 29 49  1  0  0  0  0
M  END
> <ConfClashScore>
0 

> <ConfOneFourInteractionScore>
-0.986948 

> <ConfScore>
-0.0745008 

> <ConfScorePBest>
0.00520594 

> <ConfTolerance>
0.358736 

> <HETNAM>
     OWQ A 303  OWQ                                                       

> <pdb_OW>
Q_303 -16.5129 3.80749 7.62812 0.15963 1.39178 -0.28144 -3.20151 0 0 0 -1.30514 0 0 0 0 0 0 0 0 -8.31393

$$$$
6yky_lig_1.pdb
 OpenBabel04162415593D

 49 53  0  0  0  0  0  0  0  0999 V2000
   -0.4060   -1.1838   -2.0666 C   0  0  0  1  0  0  0  0  0  0  0  0
    0.1317   -2.8906   -3.5182 C   0  0  0  1  0  0  0  0  0  0  0  0
    0.6869   -1.3504   -1.3533 N   0  0  0  1  0  0  0  0  0  0  0  0
    3.5225   -2.2721   -0.0444 C   0  0  0  1  0  0  0  0  0  0  0  0
    4.2342   -3.1837    0.7123 C   0  0  0  1  0  0  0  0  0  0  0  0
    4.1438   -0.5236    1.4735 C   0  0  0  1  0  0  0  0  0  0  0  0
    3.4749   -0.9406    0.3381 C   0  0  0  1  0  0  0  0  0  0  0  0
    4.8577   -1.4378    2.2325 C   0  0  0  1  0  0  0  0  0  0  0  0
    4.9050   -2.7653    1.8509 C   0  0  0  1  0  0  0  0  0  0  0  0
   -1.1027    0.5783   -0.4903 C   0  0  0  1  0  0  0  0  0  0  0  0
   -1.7862   -0.0869    0.6682 C   0  0  0  1  0  0  0  0  0  0  0  0
   -3.2584    0.3695    0.4675 C   0  0  0  1  0  0  0  0  0  0  0  0
   -4.1304    2.6227   -0.1983 C   0  0  0  1  0  0  0  0  0  0  0  0
   -0.6830   -1.9298   -3.1217 N   0  0  0  1  0  0  0  0  0  0  0  0
    1.3096   -3.1117   -2.7955 C   0  0  0  1  0  0  0  0  0  0  0  0
    1.5646   -2.2922   -1.6768 C   0  0  0  1  0  0  0  0  0  0  0  0
    2.7594   -2.7150   -1.1633 N   0  0  0  1  0  0  0  0  0  0  0  0
    2.3386   -3.9792   -2.9116 N   0  0  0  1  0  0  0  0  0  0  0  0
    3.1976   -3.7719   -1.9752 N   0  0  0  1  0  0  0  0  0  0  0  0
    5.5455   -1.1488    3.3627 O   0  0  0  1  0  0  0  0  0  0  0  0
   -1.2860   -0.2060   -1.7051 N   0  0  0  1  0  0  0  0  0  0  0  0
    5.3949    0.1734    3.9026 C   0  0  0  1  0  0  0  0  0  0  0  0
   -3.0866    1.6711   -0.1232 N   0  0  0  1  0  0  0  0  0  0  0  0
   -1.7527    1.9250   -0.6352 C   0  0  0  1  0  0  0  0  0  0  0  0
   -5.3978    2.3164    0.2615 C   0  0  0  1  0  0  0  0  0  0  0  0
   -6.3873    3.2769    0.1727 C   0  0  0  1  0  0  0  0  0  0  0  0
   -6.1855    4.4946   -0.3400 N   0  0  0  1  0  0  0  0  0  0  0  0
   -4.9531    4.7765   -0.7860 C   0  0  0  1  0  0  0  0  0  0  0  0
   -3.9034    3.8762   -0.7322 C   0  0  0  1  0  0  0  0  0  0  0  0
   -0.0974   -3.4710   -4.3503 H   0  0  0  1  0  0  0  0  0  0  0  0
    4.2665   -4.1834    0.4274 H   0  0  0  1  0  0  0  0  0  0  0  0
    4.1115    0.4761    1.7583 H   0  0  0  1  0  0  0  0  0  0  0  0
    2.9360   -0.2554   -0.2292 H   0  0  0  1  0  0  0  0  0  0  0  0
    5.4438   -3.4505    2.4181 H   0  0  0  1  0  0  0  0  0  0  0  0
   -0.0572    0.6895   -0.2913 H   0  0  0  1  0  0  0  0  0  0  0  0
   -1.3948    0.2578    1.6024 H   0  0  0  1  0  0  0  0  0  0  0  0
   -1.6971   -1.1518    0.6146 H   0  0  0  1  0  0  0  0  0  0  0  0
   -3.7775    0.4312    1.4011 H   0  0  0  1  0  0  0  0  0  0  0  0
   -3.7842   -0.2903   -0.1906 H   0  0  0  1  0  0  0  0  0  0  0  0
   -2.0613   -0.0264   -2.2769 H   0  0  0  1  0  0  0  0  0  0  0  0
    4.3551    0.4187    3.9619 H   0  0  0  1  0  0  0  0  0  0  0  0
    5.8913    0.8766    3.2669 H   0  0  0  1  0  0  0  0  0  0  0  0
    5.8262    0.2101    4.8811 H   0  0  0  1  0  0  0  0  0  0  0  0
   -1.2468    2.6658   -0.0520 H   0  0  0  1  0  0  0  0  0  0  0  0
   -1.7816    2.2347   -1.6589 H   0  0  0  1  0  0  0  0  0  0  0  0
   -5.6027    1.3806    0.6665 H   0  0  0  1  0  0  0  0  0  0  0  0
   -7.3376    3.0402    0.5228 H   0  0  0  1  0  0  0  0  0  0  0  0
   -4.7772    5.7177   -1.1920 H   0  0  0  1  0  0  0  0  0  0  0  0
   -2.9617    4.1384   -1.0872 H   0  0  0  1  0  0  0  0  0  0  0  0
  1  3  4  0  0  0  0
  1 14  4  0  0  0  0
  1 21  1  0  0  0  0
  2 14  4  0  0  0  0
  2 15  4  0  0  0  0
  2 30  1  0  0  0  0
  3 16  4  0  0  0  0
  4  5  4  0  0  0  0
  4  7  4  0  0  0  0
  4 17  1  0  0  0  0
  5  9  4  0  0  0  0
  5 31  1  0  0  0  0
  6  7  4  0  0  0  0
  6  8  4  0  0  0  0
  6 32  1  0  0  0  0
  7 33  1  0  0  0  0
  8  9  4  0  0  0  0
  8 20  1  0  0  0  0
  9 34  1  0  0  0  0
 10 11  1  0  0  0  0
 10 21  1  0  0  0  0
 10 24  1  0  0  0  0
 10 35  1  0  0  0  0
 11 12  1  0  0  0  0
 11 36  1  0  0  0  0
 11 37  1  0  0  0  0
 12 23  1  0  0  0  0
 12 38  1  0  0  0  0
 12 39  1  0  0  0  0
 13 23  1  0  0  0  0
 13 25  4  0  0  0  0
 13 29  4  0  0  0  0
 15 16  4  0  0  0  0
 15 18  4  0  0  0  0
 16 17  4  0  0  0  0
 17 19  4  0  0  0  0
 18 19  4  0  0  0  0
 20 22  1  0  0  0  0
 21 40  1  0  0  0  0
 22 41  1  0  0  0  0
 22 42  1  0  0  0  0
 22 43  1  0  0  0  0
 23 24  1  0  0  0  0
 24 44  1  0  0  0  0
 24 45  1  0  0  0  0
 25 26  4  0  0  0  0
 25 46  1  0  0  0  0
 26 27  4  0  0  0  0
 26 47  1  0  0  0  0
 27 28  4  0  0  0  0
 28 29  4  0  0  0  0
 28 48  1  0  0  0  0
 29 49  1  0  0  0  0
M  END
> <ConfClashScore>
0 

> <ConfOneFourInteractionScore>
-0.986948 

> <ConfScore>
-0.0742768 

> <ConfScorePBest>
0.00519261 

> <ConfTolerance>
0.498178 

> <HETNAM>
     OWQ A 303  OWQ                                                       

> <pdb_OW>
Q_303 -16.5129 3.80749 7.62812 0.15963 1.39178 -0.28144 -3.20151 0 0 0 -1.30514 0 0 0 0 0 0 0 0 -8.31393

$$$$
6yky_lig_1.pdb
 OpenBabel04162415593D

 49 53  0  0  0  0  0  0  0  0999 V2000
    0.5064   -0.9301   -2.5402 C   0  0  0  1  0  0  0  0  0  0  0  0
    1.8942   -2.3769   -3.6761 C   0  0  0  1  0  0  0  0  0  0  0  0
    1.1391   -1.1054   -1.4001 N   0  0  0  1  0  0  0  0  0  0  0  0
    3.1999   -1.9293    1.0288 C   0  0  0  1  0  0  0  0  0  0  0  0
    2.5457   -0.8138    1.5164 C   0  0  0  1  0  0  0  0  0  0  0  0
    4.3199   -2.1944    3.1318 C   0  0  0  1  0  0  0  0  0  0  0  0
    4.0903   -2.6191    1.8368 C   0  0  0  1  0  0  0  0  0  0  0  0
    3.6638   -1.0755    3.6210 C   0  0  0  1  0  0  0  0  0  0  0  0
    2.7760   -0.3879    2.8152 C   0  0  0  1  0  0  0  0  0  0  0  0
   -1.1675    0.4866   -1.3954 C   0  0  0  1  0  0  0  0  0  0  0  0
   -2.1526   -0.5062   -0.7391 C   0  0  0  1  0  0  0  0  0  0  0  0
   -3.3657    0.2776   -0.3057 C   0  0  0  1  0  0  0  0  0  0  0  0
   -4.0939    2.6140   -1.0810 C   0  0  0  1  0  0  0  0  0  0  0  0
    0.8682   -1.5457   -3.6523 N   0  0  0  1  0  0  0  0  0  0  0  0
    2.6037   -2.6005   -2.4907 C   0  0  0  1  0  0  0  0  0  0  0  0
    2.1826   -1.9226   -1.3283 C   0  0  0  1  0  0  0  0  0  0  0  0
    3.0334   -2.3158   -0.3325 N   0  0  0  1  0  0  0  0  0  0  0  0
    3.6700   -3.3606   -2.1587 N   0  0  0  1  0  0  0  0  0  0  0  0
    3.9429   -3.2151   -0.9089 N   0  0  0  1  0  0  0  0  0  0  0  0
    3.8108   -0.5652    4.8631 O   0  0  0  1  0  0  0  0  0  0  0  0
   -0.5510   -0.0914   -2.5769 N   0  0  0  1  0  0  0  0  0  0  0  0
    4.7700   -1.1490    5.7585 C   0  0  0  1  0  0  0  0  0  0  0  0
   -3.1700    1.5924   -1.0919 N   0  0  0  1  0  0  0  0  0  0  0  0
   -2.0640    1.6529   -1.7619 C   0  0  0  1  0  0  0  0  0  0  0  0
   -4.9452    2.7382   -2.1634 C   0  0  0  1  0  0  0  0  0  0  0  0
   -5.8787    3.7571   -2.1613 C   0  0  0  1  0  0  0  0  0  0  0  0
   -6.0028    4.6380   -1.1639 N   0  0  0  1  0  0  0  0  0  0  0  0
   -5.1681    4.5084   -0.1228 C   0  0  0  1  0  0  0  0  0  0  0  0
   -4.2071    3.5159   -0.0411 C   0  0  0  1  0  0  0  0  0  0  0  0
    2.1693   -2.8554   -4.5576 H   0  0  0  1  0  0  0  0  0  0  0  0
    1.8806   -0.2939    0.9088 H   0  0  0  1  0  0  0  0  0  0  0  0
    4.9849   -2.7142    3.7394 H   0  0  0  1  0  0  0  0  0  0  0  0
    4.5856   -3.4562    1.4685 H   0  0  0  1  0  0  0  0  0  0  0  0
    2.2806    0.4492    3.1835 H   0  0  0  1  0  0  0  0  0  0  0  0
   -0.4062    0.7871   -0.7061 H   0  0  0  1  0  0  0  0  0  0  0  0
   -1.6938   -0.9681    0.1100 H   0  0  0  1  0  0  0  0  0  0  0  0
   -2.4370   -1.2585   -1.4448 H   0  0  0  1  0  0  0  0  0  0  0  0
   -3.3650    0.4487    0.7506 H   0  0  0  1  0  0  0  0  0  0  0  0
   -4.2724   -0.2161   -0.5869 H   0  0  0  1  0  0  0  0  0  0  0  0
   -0.9248    0.1412   -3.4525 H   0  0  0  1  0  0  0  0  0  0  0  0
    5.7462   -1.0894    5.3244 H   0  0  0  1  0  0  0  0  0  0  0  0
    4.5185   -2.1746    5.9308 H   0  0  0  1  0  0  0  0  0  0  0  0
    4.7599   -0.6178    6.6873 H   0  0  0  1  0  0  0  0  0  0  0  0
   -1.5622    2.5700   -1.5340 H   0  0  0  1  0  0  0  0  0  0  0  0
   -2.2823    1.6158   -2.8088 H   0  0  0  1  0  0  0  0  0  0  0  0
   -4.8841    2.0772   -2.9640 H   0  0  0  1  0  0  0  0  0  0  0  0
   -6.5173    3.8429   -2.9776 H   0  0  0  1  0  0  0  0  0  0  0  0
   -5.2466    5.1868    0.6616 H   0  0  0  1  0  0  0  0  0  0  0  0
   -3.5820    3.4505    0.7875 H   0  0  0  1  0  0  0  0  0  0  0  0
  1  3  4  0  0  0  0
  1 14  4  0  0  0  0
  1 21  1  0  0  0  0
  2 14  4  0  0  0  0
  2 15  4  0  0  0  0
  2 30  1  0  0  0  0
  3 16  4  0  0  0  0
  4  5  4  0  0  0  0
  4  7  4  0  0  0  0
  4 17  1  0  0  0  0
  5  9  4  0  0  0  0
  5 31  1  0  0  0  0
  6  7  4  0  0  0  0
  6  8  4  0  0  0  0
  6 32  1  0  0  0  0
  7 33  1  0  0  0  0
  8  9  4  0  0  0  0
  8 20  1  0  0  0  0
  9 34  1  0  0  0  0
 10 11  1  0  0  0  0
 10 21  1  0  0  0  0
 10 24  1  0  0  0  0
 10 35  1  0  0  0  0
 11 12  1  0  0  0  0
 11 36  1  0  0  0  0
 11 37  1  0  0  0  0
 12 23  1  0  0  0  0
 12 38  1  0  0  0  0
 12 39  1  0  0  0  0
 13 23  1  0  0  0  0
 13 25  4  0  0  0  0
 13 29  4  0  0  0  0
 15 16  4  0  0  0  0
 15 18  4  0  0  0  0
 16 17  4  0  0  0  0
 17 19  4  0  0  0  0
 18 19  4  0  0  0  0
 20 22  1  0  0  0  0
 21 40  1  0  0  0  0
 22 41  1  0  0  0  0
 22 42  1  0  0  0  0
 22 43  1  0  0  0  0
 23 24  1  0  0  0  0
 24 44  1  0  0  0  0
 24 45  1  0  0  0  0
 25 26  4  0  0  0  0
 25 46  1  0  0  0  0
 26 27  4  0  0  0  0
 26 47  1  0  0  0  0
 27 28  4  0  0  0  0
 28 29  4  0  0  0  0
 28 48  1  0  0  0  0
 29 49  1  0  0  0  0
M  END
> <ConfClashScore>
0 

> <ConfOneFourInteractionScore>
-0.986948 

> <ConfScore>
-0.0630073 

> <ConfScorePBest>
0.00517929 

> <ConfTolerance>
0.429273 

> <HETNAM>
     OWQ A 303  OWQ                                                       

> <pdb_OW>
Q_303 -16.5129 3.80749 7.62812 0.15963 1.39178 -0.28144 -3.20151 0 0 0 -1.30514 0 0 0 0 0 0 0 0 -8.31393

$$$$
6yky_lig_1.pdb
 OpenBabel04162415593D

 49 53  0  0  0  0  0  0  0  0999 V2000
    1.9230   -0.4426    0.6901 C   0  0  0  1  0  0  0  0  0  0  0  0
    3.9270   -1.5772    0.6105 C   0  0  0  1  0  0  0  0  0  0  0  0
    1.5250   -0.9203   -0.4694 N   0  0  0  1  0  0  0  0  0  0  0  0
    1.1543   -2.4299   -3.3307 C   0  0  0  1  0  0  0  0  0  0  0  0
   -0.1658   -2.2929   -2.9451 C   0  0  0  1  0  0  0  0  0  0  0  0
    0.4575   -2.7934   -5.5955 C   0  0  0  1  0  0  0  0  0  0  0  0
    1.4664   -2.6831   -4.6573 C   0  0  0  1  0  0  0  0  0  0  0  0
   -0.8667   -2.6560   -5.2089 C   0  0  0  1  0  0  0  0  0  0  0  0
   -1.1776   -2.4035   -3.8861 C   0  0  0  1  0  0  0  0  0  0  0  0
    1.4414    0.9856    2.6461 C   0  0  0  1  0  0  0  0  0  0  0  0
    0.7408    0.2442    3.7806 C   0  0  0  1  0  0  0  0  0  0  0  0
   -0.6758    0.8160    3.7600 C   0  0  0  1  0  0  0  0  0  0  0  0
   -1.4458    3.2123    3.3596 C   0  0  0  1  0  0  0  0  0  0  0  0
    3.0910   -0.7579    1.2220 N   0  0  0  1  0  0  0  0  0  0  0  0
    3.5542   -2.1150   -0.6266 C   0  0  0  1  0  0  0  0  0  0  0  0
    2.2992   -1.7512   -1.1565 C   0  0  0  1  0  0  0  0  0  0  0  0
    2.1896   -2.4062   -2.3519 N   0  0  0  1  0  0  0  0  0  0  0  0
    4.1412   -2.9577   -1.5042 N   0  0  0  1  0  0  0  0  0  0  0  0
    3.3702   -3.1456   -2.5180 N   0  0  0  1  0  0  0  0  0  0  0  0
   -1.7661   -2.7891   -6.2125 O   0  0  0  1  0  0  0  0  0  0  0  0
    1.1128    0.3971    1.3594 N   0  0  0  1  0  0  0  0  0  0  0  0
   -3.1569   -2.7317   -5.8592 C   0  0  0  1  0  0  0  0  0  0  0  0
   -0.4662    2.2009    3.2949 N   0  0  0  1  0  0  0  0  0  0  0  0
    0.8882    2.3989    2.7558 C   0  0  0  1  0  0  0  0  0  0  0  0
   -1.2304    4.5005    2.9060 C   0  0  0  1  0  0  0  0  0  0  0  0
   -2.2553    5.4216    3.0090 C   0  0  0  1  0  0  0  0  0  0  0  0
   -3.4520    5.1341    3.5301 N   0  0  0  1  0  0  0  0  0  0  0  0
   -3.6457    3.8826    3.9699 C   0  0  0  1  0  0  0  0  0  0  0  0
   -2.6764    2.8971    3.9019 C   0  0  0  1  0  0  0  0  0  0  0  0
    4.8434   -1.8177    1.0393 H   0  0  0  1  0  0  0  0  0  0  0  0
   -0.4000   -2.1069   -1.9490 H   0  0  0  1  0  0  0  0  0  0  0  0
    0.6917   -2.9794   -6.5916 H   0  0  0  1  0  0  0  0  0  0  0  0
    2.4596   -2.7901   -4.9467 H   0  0  0  1  0  0  0  0  0  0  0  0
   -2.1707   -2.2965   -3.5967 H   0  0  0  1  0  0  0  0  0  0  0  0
    2.5028    0.9782    2.7817 H   0  0  0  1  0  0  0  0  0  0  0  0
    0.7300   -0.8102    3.5989 H   0  0  0  1  0  0  0  0  0  0  0  0
    1.2185    0.4403    4.7177 H   0  0  0  1  0  0  0  0  0  0  0  0
   -1.3002    0.2728    3.0817 H   0  0  0  1  0  0  0  0  0  0  0  0
   -1.1114    0.8001    4.7372 H   0  0  0  1  0  0  0  0  0  0  0  0
    0.2498    0.6253    0.9549 H   0  0  0  1  0  0  0  0  0  0  0  0
   -3.3488   -3.4085   -5.0529 H   0  0  0  1  0  0  0  0  0  0  0  0
   -3.7512   -3.0074   -6.7051 H   0  0  0  1  0  0  0  0  0  0  0  0
   -3.4068   -1.7364   -5.5562 H   0  0  0  1  0  0  0  0  0  0  0  0
    1.4813    2.9903    3.4217 H   0  0  0  1  0  0  0  0  0  0  0  0
    0.8517    2.8700    1.7959 H   0  0  0  1  0  0  0  0  0  0  0  0
   -0.3142    4.7711    2.4950 H   0  0  0  1  0  0  0  0  0  0  0  0
   -2.0869    6.3879    2.6635 H   0  0  0  1  0  0  0  0  0  0  0  0
   -4.5693    3.6405    4.3822 H   0  0  0  1  0  0  0  0  0  0  0  0
   -2.8708    1.9375    4.2526 H   0  0  0  1  0  0  0  0  0  0  0  0
  1  3  4  0  0  0  0
  1 14  4  0  0  0  0
  1 21  1  0  0  0  0
  2 14  4  0  0  0  0
  2 15  4  0  0  0  0
  2 30  1  0  0  0  0
  3 16  4  0  0  0  0
  4  5  4  0  0  0  0
  4  7  4  0  0  0  0
  4 17  1  0  0  0  0
  5  9  4  0  0  0  0
  5 31  1  0  0  0  0
  6  7  4  0  0  0  0
  6  8  4  0  0  0  0
  6 32  1  0  0  0  0
  7 33  1  0  0  0  0
  8  9  4  0  0  0  0
  8 20  1  0  0  0  0
  9 34  1  0  0  0  0
 10 11  1  0  0  0  0
 10 21  1  0  0  0  0
 10 24  1  0  0  0  0
 10 35  1  0  0  0  0
 11 12  1  0  0  0  0
 11 36  1  0  0  0  0
 11 37  1  0  0  0  0
 12 23  1  0  0  0  0
 12 38  1  0  0  0  0
 12 39  1  0  0  0  0
 13 23  1  0  0  0  0
 13 25  4  0  0  0  0
 13 29  4  0  0  0  0
 15 16  4  0  0  0  0
 15 18  4  0  0  0  0
 16 17  4  0  0  0  0
 17 19  4  0  0  0  0
 18 19  4  0  0  0  0
 20 22  1  0  0  0  0
 21 40  1  0  0  0  0
 22 41  1  0  0  0  0
 22 42  1  0  0  0  0
 22 43  1  0  0  0  0
 23 24  1  0  0  0  0
 24 44  1  0  0  0  0
 24 45  1  0  0  0  0
 25 26  4  0  0  0  0
 25 46  1  0  0  0  0
 26 27  4  0  0  0  0
 26 47  1  0  0  0  0
 27 28  4  0  0  0  0
 28 29  4  0  0  0  0
 28 48  1  0  0  0  0
 29 49  1  0  0  0  0
M  END
> <ConfClashScore>
0 

> <ConfOneFourInteractionScore>
-0.986948 

> <ConfScore>
-0.0601651 

> <ConfScorePBest>
0.00516596 

> <ConfTolerance>
0.428768 

> <HETNAM>
     OWQ A 303  OWQ                                                       

> <pdb_OW>
Q_303 -16.5129 3.80749 7.62812 0.15963 1.39178 -0.28144 -3.20151 0 0 0 -1.30514 0 0 0 0 0 0 0 0 -8.31393

$$$$
6yky_lig_1.pdb
 OpenBabel04162415593D

 49 53  0  0  0  0  0  0  0  0999 V2000
    0.8913   -0.4344    1.0696 C   0  0  0  1  0  0  0  0  0  0  0  0
    2.6464   -0.9324    2.4770 C   0  0  0  1  0  0  0  0  0  0  0  0
    1.4950   -0.9473    0.0191 N   0  0  0  1  0  0  0  0  0  0  0  0
    3.5005   -2.3514   -2.1278 C   0  0  0  1  0  0  0  0  0  0  0  0
    3.5519   -1.3145   -3.0401 C   0  0  0  1  0  0  0  0  0  0  0  0
    3.1122   -3.9048   -3.9121 C   0  0  0  1  0  0  0  0  0  0  0  0
    3.2776   -3.6482   -2.5641 C   0  0  0  1  0  0  0  0  0  0  0  0
    3.1638   -2.8648   -4.8272 C   0  0  0  1  0  0  0  0  0  0  0  0
    3.3860   -1.5720   -4.3920 C   0  0  0  1  0  0  0  0  0  0  0  0
   -1.1811    0.6465    1.9795 C   0  0  0  1  0  0  0  0  0  0  0  0
   -2.2533   -0.3753    2.4492 C   0  0  0  1  0  0  0  0  0  0  0  0
   -3.4598    0.4285    2.9777 C   0  0  0  1  0  0  0  0  0  0  0  0
   -3.9792    2.9159    2.7201 C   0  0  0  1  0  0  0  0  0  0  0  0
    1.4456   -0.4236    2.2692 N   0  0  0  1  0  0  0  0  0  0  0  0
    3.3343   -1.4915    1.3940 C   0  0  0  1  0  0  0  0  0  0  0  0
    2.7048   -1.4813    0.1323 C   0  0  0  1  0  0  0  0  0  0  0  0
    3.5808   -2.0781   -0.7317 N   0  0  0  1  0  0  0  0  0  0  0  0
    4.5405   -2.0815    1.2458 N   0  0  0  1  0  0  0  0  0  0  0  0
    4.7114   -2.4333    0.0192 N   0  0  0  1  0  0  0  0  0  0  0  0
    3.1284   -3.0784   -6.1640 O   0  0  0  1  0  0  0  0  0  0  0  0
   -0.3346    0.0986    0.9185 N   0  0  0  1  0  0  0  0  0  0  0  0
    3.0119   -1.9238   -7.0101 C   0  0  0  1  0  0  0  0  0  0  0  0
   -3.2286    1.7842    2.4037 N   0  0  0  1  0  0  0  0  0  0  0  0
   -2.1008    1.7674    1.4578 C   0  0  0  1  0  0  0  0  0  0  0  0
   -3.6133    3.7258    3.7792 C   0  0  0  1  0  0  0  0  0  0  0  0
   -4.3231    4.8904    4.0016 C   0  0  0  1  0  0  0  0  0  0  0  0
   -5.3540    5.2785    3.2448 N   0  0  0  1  0  0  0  0  0  0  0  0
   -5.7007    4.4817    2.2240 C   0  0  0  1  0  0  0  0  0  0  0  0
   -5.0429    3.3007    1.9275 C   0  0  0  1  0  0  0  0  0  0  0  0
    3.0721   -0.9180    3.4258 H   0  0  0  1  0  0  0  0  0  0  0  0
    3.7152   -0.3411   -2.7123 H   0  0  0  1  0  0  0  0  0  0  0  0
    2.9489   -4.8782   -4.2399 H   0  0  0  1  0  0  0  0  0  0  0  0
    3.2349   -4.4279   -1.8772 H   0  0  0  1  0  0  0  0  0  0  0  0
    3.4287   -0.7922   -5.0788 H   0  0  0  1  0  0  0  0  0  0  0  0
   -0.5671    0.9801    2.7898 H   0  0  0  1  0  0  0  0  0  0  0  0
   -2.5560   -0.9906    1.6278 H   0  0  0  1  0  0  0  0  0  0  0  0
   -1.8548   -0.9906    3.2286 H   0  0  0  1  0  0  0  0  0  0  0  0
   -4.3822    0.0140    2.6279 H   0  0  0  1  0  0  0  0  0  0  0  0
   -3.4645    0.4583    4.0473 H   0  0  0  1  0  0  0  0  0  0  0  0
   -0.6966    0.1224    0.0082 H   0  0  0  1  0  0  0  0  0  0  0  0
    3.7253   -1.1859   -6.7077 H   0  0  0  1  0  0  0  0  0  0  0  0
    2.0245   -1.5198   -6.9278 H   0  0  0  1  0  0  0  0  0  0  0  0
    3.1990   -2.2055   -8.0252 H   0  0  0  1  0  0  0  0  0  0  0  0
   -1.5904    2.7078    1.4602 H   0  0  0  1  0  0  0  0  0  0  0  0
   -2.4407    1.5480    0.4672 H   0  0  0  1  0  0  0  0  0  0  0  0
   -2.8188    3.4634    4.3970 H   0  0  0  1  0  0  0  0  0  0  0  0
   -4.0406    5.4959    4.7986 H   0  0  0  1  0  0  0  0  0  0  0  0
   -6.5030    4.7647    1.6258 H   0  0  0  1  0  0  0  0  0  0  0  0
   -5.3439    2.7140    1.1232 H   0  0  0  1  0  0  0  0  0  0  0  0
  1  3  4  0  0  0  0
  1 14  4  0  0  0  0
  1 21  1  0  0  0  0
  2 14  4  0  0  0  0
  2 15  4  0  0  0  0
  2 30  1  0  0  0  0
  3 16  4  0  0  0  0
  4  5  4  0  0  0  0
  4  7  4  0  0  0  0
  4 17  1  0  0  0  0
  5  9  4  0  0  0  0
  5 31  1  0  0  0  0
  6  7  4  0  0  0  0
  6  8  4  0  0  0  0
  6 32  1  0  0  0  0
  7 33  1  0  0  0  0
  8  9  4  0  0  0  0
  8 20  1  0  0  0  0
  9 34  1  0  0  0  0
 10 11  1  0  0  0  0
 10 21  1  0  0  0  0
 10 24  1  0  0  0  0
 10 35  1  0  0  0  0
 11 12  1  0  0  0  0
 11 36  1  0  0  0  0
 11 37  1  0  0  0  0
 12 23  1  0  0  0  0
 12 38  1  0  0  0  0
 12 39  1  0  0  0  0
 13 23  1  0  0  0  0
 13 25  4  0  0  0  0
 13 29  4  0  0  0  0
 15 16  4  0  0  0  0
 15 18  4  0  0  0  0
 16 17  4  0  0  0  0
 17 19  4  0  0  0  0
 18 19  4  0  0  0  0
 20 22  1  0  0  0  0
 21 40  1  0  0  0  0
 22 41  1  0  0  0  0
 22 42  1  0  0  0  0
 22 43  1  0  0  0  0
 23 24  1  0  0  0  0
 24 44  1  0  0  0  0
 24 45  1  0  0  0  0
 25 26  4  0  0  0  0
 25 46  1  0  0  0  0
 26 27  4  0  0  0  0
 26 47  1  0  0  0  0
 27 28  4  0  0  0  0
 28 29  4  0  0  0  0
 28 48  1  0  0  0  0
 29 49  1  0  0  0  0
M  END
> <ConfClashScore>
0 

> <ConfOneFourInteractionScore>
-0.986948 

> <ConfScore>
-0.0581425 

> <ConfScorePBest>
0.00515263 

> <ConfTolerance>
0.395439 

> <HETNAM>
     OWQ A 303  OWQ                                                       

> <pdb_OW>
Q_303 -16.5129 3.80749 7.62812 0.15963 1.39178 -0.28144 -3.20151 0 0 0 -1.30514 0 0 0 0 0 0 0 0 -8.31393

$$$$
6yky_lig_1.pdb
 OpenBabel04162415593D

 49 53  0  0  0  0  0  0  0  0999 V2000
   -0.2633   -2.3142   -1.4481 C   0  0  0  1  0  0  0  0  0  0  0  0
    0.3036   -2.6042   -3.6626 C   0  0  0  1  0  0  0  0  0  0  0  0
    0.6524   -1.3882   -1.2612 N   0  0  0  1  0  0  0  0  0  0  0  0
    2.9651    0.8884   -1.5136 C   0  0  0  1  0  0  0  0  0  0  0  0
    4.3123    1.1968   -1.5107 C   0  0  0  1  0  0  0  0  0  0  0  0
    2.6140    2.3945    0.3183 C   0  0  0  1  0  0  0  0  0  0  0  0
    2.1150    1.4860   -0.5961 C   0  0  0  1  0  0  0  0  0  0  0  0
    3.9652    2.7039    0.3213 C   0  0  0  1  0  0  0  0  0  0  0  0
    4.8126    2.1080   -0.5936 C   0  0  0  1  0  0  0  0  0  0  0  0
   -0.8606   -2.1961    0.9451 C   0  0  0  1  0  0  0  0  0  0  0  0
   -1.6855   -3.0196    1.9278 C   0  0  0  1  0  0  0  0  0  0  0  0
   -3.0974   -2.4300    1.8147 C   0  0  0  1  0  0  0  0  0  0  0  0
   -3.8545   -0.0652    1.2623 C   0  0  0  1  0  0  0  0  0  0  0  0
   -0.4389   -2.9106   -2.6143 N   0  0  0  1  0  0  0  0  0  0  0  0
    1.2935   -1.6253   -3.5200 C   0  0  0  1  0  0  0  0  0  0  0  0
    1.4457   -1.0153   -2.2579 C   0  0  0  1  0  0  0  0  0  0  0  0
    2.4645   -0.1134   -2.3946 N   0  0  0  1  0  0  0  0  0  0  0  0
    2.2071   -1.0795   -4.3522 N   0  0  0  1  0  0  0  0  0  0  0  0
    2.9029   -0.1964   -3.7247 N   0  0  0  1  0  0  0  0  0  0  0  0
    4.3383    3.6013    1.2644 O   0  0  0  1  0  0  0  0  0  0  0  0
   -1.0500   -2.6676   -0.4157 N   0  0  0  1  0  0  0  0  0  0  0  0
    5.7261    3.9883    1.2927 C   0  0  0  1  0  0  0  0  0  0  0  0
   -2.8452   -1.0409    1.3911 N   0  0  0  1  0  0  0  0  0  0  0  0
   -1.4151   -0.7855    1.1164 C   0  0  0  1  0  0  0  0  0  0  0  0
   -4.2761    0.6618    2.3602 C   0  0  0  1  0  0  0  0  0  0  0  0
   -5.2654    1.6113    2.1885 C   0  0  0  1  0  0  0  0  0  0  0  0
   -5.8437    1.8653    1.0107 N   0  0  0  1  0  0  0  0  0  0  0  0
   -5.4283    1.1500   -0.0444 C   0  0  0  1  0  0  0  0  0  0  0  0
   -4.4415    0.1831    0.0370 C   0  0  0  1  0  0  0  0  0  0  0  0
    0.1558   -3.0807   -4.5751 H   0  0  0  1  0  0  0  0  0  0  0  0
    4.9507    0.7454   -2.1965 H   0  0  0  1  0  0  0  0  0  0  0  0
    1.9756    2.8459    1.0041 H   0  0  0  1  0  0  0  0  0  0  0  0
    1.1020    1.2508   -0.5957 H   0  0  0  1  0  0  0  0  0  0  0  0
    5.8256    2.3431   -0.5940 H   0  0  0  1  0  0  0  0  0  0  0  0
    0.1794   -2.2318    1.1940 H   0  0  0  1  0  0  0  0  0  0  0  0
   -1.6825   -4.0538    1.6531 H   0  0  0  1  0  0  0  0  0  0  0  0
   -1.3079   -2.9133    2.9233 H   0  0  0  1  0  0  0  0  0  0  0  0
   -3.6023   -2.4584    2.7577 H   0  0  0  1  0  0  0  0  0  0  0  0
   -3.6759   -2.9555    1.0839 H   0  0  0  1  0  0  0  0  0  0  0  0
   -1.7949   -3.2795   -0.5922 H   0  0  0  1  0  0  0  0  0  0  0  0
    5.9703    4.5086    0.3901 H   0  0  0  1  0  0  0  0  0  0  0  0
    6.3381    3.1147    1.3771 H   0  0  0  1  0  0  0  0  0  0  0  0
    5.9004    4.6290    2.1317 H   0  0  0  1  0  0  0  0  0  0  0  0
   -1.2890   -0.2087    0.2240 H   0  0  0  1  0  0  0  0  0  0  0  0
   -0.9469   -0.2821    1.9363 H   0  0  0  1  0  0  0  0  0  0  0  0
   -3.8567    0.4973    3.2975 H   0  0  0  1  0  0  0  0  0  0  0  0
   -5.5757    2.1561    3.0182 H   0  0  0  1  0  0  0  0  0  0  0  0
   -5.8691    1.3305   -0.9689 H   0  0  0  1  0  0  0  0  0  0  0  0
   -4.1475   -0.3464   -0.8085 H   0  0  0  1  0  0  0  0  0  0  0  0
  1  3  4  0  0  0  0
  1 14  4  0  0  0  0
  1 21  1  0  0  0  0
  2 14  4  0  0  0  0
  2 15  4  0  0  0  0
  2 30  1  0  0  0  0
  3 16  4  0  0  0  0
  4  5  4  0  0  0  0
  4  7  4  0  0  0  0
  4 17  1  0  0  0  0
  5  9  4  0  0  0  0
  5 31  1  0  0  0  0
  6  7  4  0  0  0  0
  6  8  4  0  0  0  0
  6 32  1  0  0  0  0
  7 33  1  0  0  0  0
  8  9  4  0  0  0  0
  8 20  1  0  0  0  0
  9 34  1  0  0  0  0
 10 11  1  0  0  0  0
 10 21  1  0  0  0  0
 10 24  1  0  0  0  0
 10 35  1  0  0  0  0
 11 12  1  0  0  0  0
 11 36  1  0  0  0  0
 11 37  1  0  0  0  0
 12 23  1  0  0  0  0
 12 38  1  0  0  0  0
 12 39  1  0  0  0  0
 13 23  1  0  0  0  0
 13 25  4  0  0  0  0
 13 29  4  0  0  0  0
 15 16  4  0  0  0  0
 15 18  4  0  0  0  0
 16 17  4  0  0  0  0
 17 19  4  0  0  0  0
 18 19  4  0  0  0  0
 20 22  1  0  0  0  0
 21 40  1  0  0  0  0
 22 41  1  0  0  0  0
 22 42  1  0  0  0  0
 22 43  1  0  0  0  0
 23 24  1  0  0  0  0
 24 44  1  0  0  0  0
 24 45  1  0  0  0  0
 25 26  4  0  0  0  0
 25 46  1  0  0  0  0
 26 27  4  0  0  0  0
 26 47  1  0  0  0  0
 27 28  4  0  0  0  0
 28 29  4  0  0  0  0
 28 48  1  0  0  0  0
 29 49  1  0  0  0  0
M  END
> <ConfClashScore>
0 

> <ConfOneFourInteractionScore>
-0.986948 

> <ConfScore>
-0.0581038 

> <ConfScorePBest>
0.0051393 

> <ConfTolerance>
0.497426 

> <HETNAM>
     OWQ A 303  OWQ                                                       

> <pdb_OW>
Q_303 -16.5129 3.80749 7.62812 0.15963 1.39178 -0.28144 -3.20151 0 0 0 -1.30514 0 0 0 0 0 0 0 0 -8.31393

$$$$
6yky_lig_1.pdb
 OpenBabel04162415593D

 49 53  0  0  0  0  0  0  0  0999 V2000
    1.6194   -0.7593    0.8145 C   0  0  0  1  0  0  0  0  0  0  0  0
    3.4673   -2.1220    1.0093 C   0  0  0  1  0  0  0  0  0  0  0  0
    1.3519   -1.1763   -0.4043 N   0  0  0  1  0  0  0  0  0  0  0  0
    1.2248   -2.5690   -3.3010 C   0  0  0  1  0  0  0  0  0  0  0  0
    1.2266   -1.3638   -3.9773 C   0  0  0  1  0  0  0  0  0  0  0  0
   -0.6028   -3.3282   -4.6540 C   0  0  0  1  0  0  0  0  0  0  0  0
    0.3071   -3.5518   -3.6379 C   0  0  0  1  0  0  0  0  0  0  0  0
   -0.6012   -2.1194   -5.3324 C   0  0  0  1  0  0  0  0  0  0  0  0
    0.3139   -1.1397   -4.9963 C   0  0  0  1  0  0  0  0  0  0  0  0
    1.1130    0.6643    2.7732 C   0  0  0  1  0  0  0  0  0  0  0  0
    0.3704   -0.1554    3.7872 C   0  0  0  1  0  0  0  0  0  0  0  0
   -1.0516    0.4677    3.7134 C   0  0  0  1  0  0  0  0  0  0  0  0
   -1.7301    2.9083    3.5386 C   0  0  0  1  0  0  0  0  0  0  0  0
    2.6474   -1.2151    1.5088 N   0  0  0  1  0  0  0  0  0  0  0  0
    3.2296   -2.6010   -0.2841 C   0  0  0  1  0  0  0  0  0  0  0  0
    2.1214   -2.0868   -0.9881 C   0  0  0  1  0  0  0  0  0  0  0  0
    2.1220   -2.7136   -2.2035 N   0  0  0  1  0  0  0  0  0  0  0  0
    3.8433   -3.4994   -1.0848 N   0  0  0  1  0  0  0  0  0  0  0  0
    3.2209   -3.5858   -2.2085 N   0  0  0  1  0  0  0  0  0  0  0  0
   -1.5402   -2.0134   -6.3024 O   0  0  0  1  0  0  0  0  0  0  0  0
    0.8548    0.1654    1.4336 N   0  0  0  1  0  0  0  0  0  0  0  0
   -1.5308   -0.8171   -7.0970 C   0  0  0  1  0  0  0  0  0  0  0  0
   -0.7568    1.8403    3.3944 N   0  0  0  1  0  0  0  0  0  0  0  0
    0.5946    2.0670    2.9168 C   0  0  0  1  0  0  0  0  0  0  0  0
   -1.6987    3.6715    4.6911 C   0  0  0  1  0  0  0  0  0  0  0  0
   -2.6178    4.6930    4.8371 C   0  0  0  1  0  0  0  0  0  0  0  0
   -3.5447    4.9843    3.9194 N   0  0  0  1  0  0  0  0  0  0  0  0
   -3.5665    4.2336    2.8088 C   0  0  0  1  0  0  0  0  0  0  0  0
   -2.6818    3.1944    2.5793 C   0  0  0  1  0  0  0  0  0  0  0  0
    4.2729   -2.4729    1.5655 H   0  0  0  1  0  0  0  0  0  0  0  0
    1.9125   -0.6250   -3.7217 H   0  0  0  1  0  0  0  0  0  0  0  0
   -1.2888   -4.0670   -4.9095 H   0  0  0  1  0  0  0  0  0  0  0  0
    0.3032   -4.4572   -3.1262 H   0  0  0  1  0  0  0  0  0  0  0  0
    0.3178   -0.2342   -5.5079 H   0  0  0  1  0  0  0  0  0  0  0  0
    2.1645    0.6346    2.9689 H   0  0  0  1  0  0  0  0  0  0  0  0
    0.3571   -1.1909    3.5178 H   0  0  0  1  0  0  0  0  0  0  0  0
    0.7942   -0.0458    4.7636 H   0  0  0  1  0  0  0  0  0  0  0  0
   -1.6390    0.0074    2.9466 H   0  0  0  1  0  0  0  0  0  0  0  0
   -1.5612    0.3867    4.6508 H   0  0  0  1  0  0  0  0  0  0  0  0
    0.0797    0.5210    0.9507 H   0  0  0  1  0  0  0  0  0  0  0  0
   -2.3907   -0.8044   -7.7336 H   0  0  0  1  0  0  0  0  0  0  0  0
   -0.6440   -0.7936   -7.6952 H   0  0  0  1  0  0  0  0  0  0  0  0
   -1.5507    0.0379   -6.4540 H   0  0  0  1  0  0  0  0  0  0  0  0
    0.5942    2.5796    1.9776 H   0  0  0  1  0  0  0  0  0  0  0  0
    1.1698    2.6234    3.6271 H   0  0  0  1  0  0  0  0  0  0  0  0
   -0.9966    3.4802    5.4342 H   0  0  0  1  0  0  0  0  0  0  0  0
   -2.5866    5.2644    5.7055 H   0  0  0  1  0  0  0  0  0  0  0  0
   -4.2830    4.4424    2.0846 H   0  0  0  1  0  0  0  0  0  0  0  0
   -2.7327    2.6394    1.7013 H   0  0  0  1  0  0  0  0  0  0  0  0
  1  3  4  0  0  0  0
  1 14  4  0  0  0  0
  1 21  1  0  0  0  0
  2 14  4  0  0  0  0
  2 15  4  0  0  0  0
  2 30  1  0  0  0  0
  3 16  4  0  0  0  0
  4  5  4  0  0  0  0
  4  7  4  0  0  0  0
  4 17  1  0  0  0  0
  5  9  4  0  0  0  0
  5 31  1  0  0  0  0
  6  7  4  0  0  0  0
  6  8  4  0  0  0  0
  6 32  1  0  0  0  0
  7 33  1  0  0  0  0
  8  9  4  0  0  0  0
  8 20  1  0  0  0  0
  9 34  1  0  0  0  0
 10 11  1  0  0  0  0
 10 21  1  0  0  0  0
 10 24  1  0  0  0  0
 10 35  1  0  0  0  0
 11 12  1  0  0  0  0
 11 36  1  0  0  0  0
 11 37  1  0  0  0  0
 12 23  1  0  0  0  0
 12 38  1  0  0  0  0
 12 39  1  0  0  0  0
 13 23  1  0  0  0  0
 13 25  4  0  0  0  0
 13 29  4  0  0  0  0
 15 16  4  0  0  0  0
 15 18  4  0  0  0  0
 16 17  4  0  0  0  0
 17 19  4  0  0  0  0
 18 19  4  0  0  0  0
 20 22  1  0  0  0  0
 21 40  1  0  0  0  0
 22 41  1  0  0  0  0
 22 42  1  0  0  0  0
 22 43  1  0  0  0  0
 23 24  1  0  0  0  0
 24 44  1  0  0  0  0
 24 45  1  0  0  0  0
 25 26  4  0  0  0  0
 25 46  1  0  0  0  0
 26 27  4  0  0  0  0
 26 47  1  0  0  0  0
 27 28  4  0  0  0  0
 28 29  4  0  0  0  0
 28 48  1  0  0  0  0
 29 49  1  0  0  0  0
M  END
> <ConfClashScore>
0 

> <ConfOneFourInteractionScore>
-0.986948 

> <ConfScore>
-0.0579184 

> <ConfScorePBest>
0.00512597 

> <ConfTolerance>
0.491715 

> <HETNAM>
     OWQ A 303  OWQ                                                       

> <pdb_OW>
Q_303 -16.5129 3.80749 7.62812 0.15963 1.39178 -0.28144 -3.20151 0 0 0 -1.30514 0 0 0 0 0 0 0 0 -8.31393

$$$$
6yky_lig_1.pdb
 OpenBabel04162415593D

 49 53  0  0  0  0  0  0  0  0999 V2000
    0.8784   -1.0368   -2.7133 C   0  0  0  1  0  0  0  0  0  0  0  0
    2.7296   -2.0375   -3.6519 C   0  0  0  1  0  0  0  0  0  0  0  0
    1.4289   -0.9744   -1.5200 N   0  0  0  1  0  0  0  0  0  0  0  0
    3.3109   -1.2201    1.1396 C   0  0  0  1  0  0  0  0  0  0  0  0
    4.3961   -1.3814    1.9801 C   0  0  0  1  0  0  0  0  0  0  0  0
    1.9315   -0.6720    3.0221 C   0  0  0  1  0  0  0  0  0  0  0  0
    2.0761   -0.8675    1.6615 C   0  0  0  1  0  0  0  0  0  0  0  0
    3.0198   -0.8337    3.8653 C   0  0  0  1  0  0  0  0  0  0  0  0
    4.2509   -1.1853    3.3446 C   0  0  0  1  0  0  0  0  0  0  0  0
   -1.2355   -0.0274   -1.8308 C   0  0  0  1  0  0  0  0  0  0  0  0
   -2.3018   -1.0654   -1.3838 C   0  0  0  1  0  0  0  0  0  0  0  0
   -3.5290   -0.2801   -0.8756 C   0  0  0  1  0  0  0  0  0  0  0  0
   -4.0869    2.2133   -1.1325 C   0  0  0  1  0  0  0  0  0  0  0  0
    1.5055   -1.5530   -3.7558 N   0  0  0  1  0  0  0  0  0  0  0  0
    3.3633   -1.9966   -2.4048 C   0  0  0  1  0  0  0  0  0  0  0  0
    2.6569   -1.4371   -1.3203 C   0  0  0  1  0  0  0  0  0  0  0  0
    3.4925   -1.5218   -0.2411 N   0  0  0  1  0  0  0  0  0  0  0  0
    4.5725   -2.3891   -1.9479 N   0  0  0  1  0  0  0  0  0  0  0  0
    4.6760   -2.1254   -0.6920 N   0  0  0  1  0  0  0  0  0  0  0  0
    2.7565   -0.6213    5.1765 O   0  0  0  1  0  0  0  0  0  0  0  0
   -0.3608   -0.5609   -2.8787 N   0  0  0  1  0  0  0  0  0  0  0  0
    3.8258   -0.8537    6.1066 C   0  0  0  1  0  0  0  0  0  0  0  0
   -3.3062    1.0805   -1.4414 N   0  0  0  1  0  0  0  0  0  0  0  0
   -2.1610    1.0822   -2.3663 C   0  0  0  1  0  0  0  0  0  0  0  0
   -5.2273    2.0890   -0.3606 C   0  0  0  1  0  0  0  0  0  0  0  0
   -5.9119    3.2331    0.0028 C   0  0  0  1  0  0  0  0  0  0  0  0
   -5.5308    4.4628   -0.3562 N   0  0  0  1  0  0  0  0  0  0  0  0
   -4.4260    4.5683   -1.1081 C   0  0  0  1  0  0  0  0  0  0  0  0
   -3.6784    3.4765   -1.5137 C   0  0  0  1  0  0  0  0  0  0  0  0
    3.2126   -2.4412   -4.4797 H   0  0  0  1  0  0  0  0  0  0  0  0
    5.3216   -1.6499    1.5889 H   0  0  0  1  0  0  0  0  0  0  0  0
    1.0060   -0.4035    3.4133 H   0  0  0  1  0  0  0  0  0  0  0  0
    1.2587   -0.7501    1.0294 H   0  0  0  1  0  0  0  0  0  0  0  0
    5.0684   -1.3028    3.9767 H   0  0  0  1  0  0  0  0  0  0  0  0
   -0.6413    0.3123   -1.0083 H   0  0  0  1  0  0  0  0  0  0  0  0
   -2.5806   -1.6824   -2.2124 H   0  0  0  1  0  0  0  0  0  0  0  0
   -1.9092   -1.6774   -0.5989 H   0  0  0  1  0  0  0  0  0  0  0  0
   -4.4389   -0.7063   -1.2435 H   0  0  0  1  0  0  0  0  0  0  0  0
   -3.5539   -0.2535    0.1938 H   0  0  0  1  0  0  0  0  0  0  0  0
   -0.7192   -0.5700   -3.7908 H   0  0  0  1  0  0  0  0  0  0  0  0
    3.9908   -1.9063    6.2054 H   0  0  0  1  0  0  0  0  0  0  0  0
    3.5649   -0.4429    7.0595 H   0  0  0  1  0  0  0  0  0  0  0  0
    4.7183   -0.3851    5.7479 H   0  0  0  1  0  0  0  0  0  0  0  0
   -2.4794    0.8611   -3.3637 H   0  0  0  1  0  0  0  0  0  0  0  0
   -1.6639    2.0296   -2.3519 H   0  0  0  1  0  0  0  0  0  0  0  0
   -5.5635    1.1521   -0.0593 H   0  0  0  1  0  0  0  0  0  0  0  0
   -6.7674    3.1320    0.5855 H   0  0  0  1  0  0  0  0  0  0  0  0
   -4.1155    5.5167   -1.4008 H   0  0  0  1  0  0  0  0  0  0  0  0
   -2.8253    3.6047   -2.0946 H   0  0  0  1  0  0  0  0  0  0  0  0
  1  3  4  0  0  0  0
  1 14  4  0  0  0  0
  1 21  1  0  0  0  0
  2 14  4  0  0  0  0
  2 15  4  0  0  0  0
  2 30  1  0  0  0  0
  3 16  4  0  0  0  0
  4  5  4  0  0  0  0
  4  7  4  0  0  0  0
  4 17  1  0  0  0  0
  5  9  4  0  0  0  0
  5 31  1  0  0  0  0
  6  7  4  0  0  0  0
  6  8  4  0  0  0  0
  6 32  1  0  0  0  0
  7 33  1  0  0  0  0
  8  9  4  0  0  0  0
  8 20  1  0  0  0  0
  9 34  1  0  0  0  0
 10 11  1  0  0  0  0
 10 21  1  0  0  0  0
 10 24  1  0  0  0  0
 10 35  1  0  0  0  0
 11 12  1  0  0  0  0
 11 36  1  0  0  0  0
 11 37  1  0  0  0  0
 12 23  1  0  0  0  0
 12 38  1  0  0  0  0
 12 39  1  0  0  0  0
 13 23  1  0  0  0  0
 13 25  4  0  0  0  0
 13 29  4  0  0  0  0
 15 16  4  0  0  0  0
 15 18  4  0  0  0  0
 16 17  4  0  0  0  0
 17 19  4  0  0  0  0
 18 19  4  0  0  0  0
 20 22  1  0  0  0  0
 21 40  1  0  0  0  0
 22 41  1  0  0  0  0
 22 42  1  0  0  0  0
 22 43  1  0  0  0  0
 23 24  1  0  0  0  0
 24 44  1  0  0  0  0
 24 45  1  0  0  0  0
 25 26  4  0  0  0  0
 25 46  1  0  0  0  0
 26 27  4  0  0  0  0
 26 47  1  0  0  0  0
 27 28  4  0  0  0  0
 28 29  4  0  0  0  0
 28 48  1  0  0  0  0
 29 49  1  0  0  0  0
M  END
> <ConfClashScore>
0 

> <ConfOneFourInteractionScore>
-0.986948 

> <ConfScore>
-0.0566682 

> <ConfScorePBest>
0.00511265 

> <ConfTolerance>
0.381444 

> <HETNAM>
     OWQ A 303  OWQ                                                       

> <pdb_OW>
Q_303 -16.5129 3.80749 7.62812 0.15963 1.39178 -0.28144 -3.20151 0 0 0 -1.30514 0 0 0 0 0 0 0 0 -8.31393

$$$$
6yky_lig_1.pdb
 OpenBabel04162415593D

 49 53  0  0  0  0  0  0  0  0999 V2000
    0.8923   -0.7042   -2.6185 C   0  0  0  1  0  0  0  0  0  0  0  0
    2.3848   -1.9650   -3.8402 C   0  0  0  1  0  0  0  0  0  0  0  0
    1.4297   -1.0522   -1.4691 N   0  0  0  1  0  0  0  0  0  0  0  0
    3.2306   -2.3133    0.9789 C   0  0  0  1  0  0  0  0  0  0  0  0
    3.7879   -3.3165    1.7489 C   0  0  0  1  0  0  0  0  0  0  0  0
    2.4920   -1.1949    2.9665 C   0  0  0  1  0  0  0  0  0  0  0  0
    2.5793   -1.2522    1.5884 C   0  0  0  1  0  0  0  0  0  0  0  0
    3.0509   -2.2010    3.7390 C   0  0  0  1  0  0  0  0  0  0  0  0
    3.7002   -3.2589    3.1311 C   0  0  0  1  0  0  0  0  0  0  0  0
   -0.7708    0.6635   -1.4095 C   0  0  0  1  0  0  0  0  0  0  0  0
   -1.7858   -0.3346   -0.8092 C   0  0  0  1  0  0  0  0  0  0  0  0
   -2.9802    0.4584   -0.3418 C   0  0  0  1  0  0  0  0  0  0  0  0
   -3.6579    2.8693   -0.9991 C   0  0  0  1  0  0  0  0  0  0  0  0
    1.3519   -1.1445   -3.7767 N   0  0  0  1  0  0  0  0  0  0  0  0
    2.9953   -2.3679   -2.6471 C   0  0  0  1  0  0  0  0  0  0  0  0
    2.4718   -1.8735   -1.4347 C   0  0  0  1  0  0  0  0  0  0  0  0
    3.2407   -2.4157   -0.4423 N   0  0  0  1  0  0  0  0  0  0  0  0
    4.0379   -3.1724   -2.3459 N   0  0  0  1  0  0  0  0  0  0  0  0
    4.2043   -3.2193   -1.0701 N   0  0  0  1  0  0  0  0  0  0  0  0
    3.0242   -2.2553    5.0919 O   0  0  0  1  0  0  0  0  0  0  0  0
   -0.1630    0.1300   -2.6162 N   0  0  0  1  0  0  0  0  0  0  0  0
    2.3174   -1.2094    5.7768 C   0  0  0  1  0  0  0  0  0  0  0  0
   -2.7449    1.8058   -1.0590 N   0  0  0  1  0  0  0  0  0  0  0  0
   -1.6338    1.8705   -1.7201 C   0  0  0  1  0  0  0  0  0  0  0  0
   -4.8269    2.8762   -0.2608 C   0  0  0  1  0  0  0  0  0  0  0  0
   -5.6287    4.0011   -0.2963 C   0  0  0  1  0  0  0  0  0  0  0  0
   -5.3355    5.0903   -1.0132 N   0  0  0  1  0  0  0  0  0  0  0  0
   -4.2013    5.0682   -1.7277 C   0  0  0  1  0  0  0  0  0  0  0  0
   -3.3389    3.9859   -1.7469 C   0  0  0  1  0  0  0  0  0  0  0  0
    2.7372   -2.3046   -4.7578 H   0  0  0  1  0  0  0  0  0  0  0  0
    4.2730   -4.1146    1.2914 H   0  0  0  1  0  0  0  0  0  0  0  0
    2.0068   -0.3968    3.4240 H   0  0  0  1  0  0  0  0  0  0  0  0
    2.1564   -0.4994    1.0087 H   0  0  0  1  0  0  0  0  0  0  0  0
    4.1231   -4.0118    3.7107 H   0  0  0  1  0  0  0  0  0  0  0  0
   -0.0059    0.9079   -0.7023 H   0  0  0  1  0  0  0  0  0  0  0  0
   -2.0860   -1.0421   -1.5537 H   0  0  0  1  0  0  0  0  0  0  0  0
   -1.3445   -0.8513    0.0173 H   0  0  0  1  0  0  0  0  0  0  0  0
   -3.8980    0.0043   -0.6521 H   0  0  0  1  0  0  0  0  0  0  0  0
   -2.9811    0.5754    0.7217 H   0  0  0  1  0  0  0  0  0  0  0  0
   -0.5443    0.3934   -3.4796 H   0  0  0  1  0  0  0  0  0  0  0  0
    2.1968   -1.4746    6.8063 H   0  0  0  1  0  0  0  0  0  0  0  0
    1.3553   -1.0762    5.3279 H   0  0  0  1  0  0  0  0  0  0  0  0
    2.8736   -0.2981    5.7063 H   0  0  0  1  0  0  0  0  0  0  0  0
   -1.1090    2.7610   -1.4434 H   0  0  0  1  0  0  0  0  0  0  0  0
   -1.8468    1.8927   -2.7684 H   0  0  0  1  0  0  0  0  0  0  0  0
   -5.0976    2.0504    0.3104 H   0  0  0  1  0  0  0  0  0  0  0  0
   -6.5052    4.0001    0.2635 H   0  0  0  1  0  0  0  0  0  0  0  0
   -3.9577    5.9050   -2.2952 H   0  0  0  1  0  0  0  0  0  0  0  0
   -2.4672    4.0130   -2.3135 H   0  0  0  1  0  0  0  0  0  0  0  0
  1  3  4  0  0  0  0
  1 14  4  0  0  0  0
  1 21  1  0  0  0  0
  2 14  4  0  0  0  0
  2 15  4  0  0  0  0
  2 30  1  0  0  0  0
  3 16  4  0  0  0  0
  4  5  4  0  0  0  0
  4  7  4  0  0  0  0
  4 17  1  0  0  0  0
  5  9  4  0  0  0  0
  5 31  1  0  0  0  0
  6  7  4  0  0  0  0
  6  8  4  0  0  0  0
  6 32  1  0  0  0  0
  7 33  1  0  0  0  0
  8  9  4  0  0  0  0
  8 20  1  0  0  0  0
  9 34  1  0  0  0  0
 10 11  1  0  0  0  0
 10 21  1  0  0  0  0
 10 24  1  0  0  0  0
 10 35  1  0  0  0  0
 11 12  1  0  0  0  0
 11 36  1  0  0  0  0
 11 37  1  0  0  0  0
 12 23  1  0  0  0  0
 12 38  1  0  0  0  0
 12 39  1  0  0  0  0
 13 23  1  0  0  0  0
 13 25  4  0  0  0  0
 13 29  4  0  0  0  0
 15 16  4  0  0  0  0
 15 18  4  0  0  0  0
 16 17  4  0  0  0  0
 17 19  4  0  0  0  0
 18 19  4  0  0  0  0
 20 22  1  0  0  0  0
 21 40  1  0  0  0  0
 22 41  1  0  0  0  0
 22 42  1  0  0  0  0
 22 43  1  0  0  0  0
 23 24  1  0  0  0  0
 24 44  1  0  0  0  0
 24 45  1  0  0  0  0
 25 26  4  0  0  0  0
 25 46  1  0  0  0  0
 26 27  4  0  0  0  0
 26 47  1  0  0  0  0
 27 28  4  0  0  0  0
 28 29  4  0  0  0  0
 28 48  1  0  0  0  0
 29 49  1  0  0  0  0
M  END
> <ConfClashScore>
0 

> <ConfOneFourInteractionScore>
-0.986948 

> <ConfScore>
-0.0560055 

> <ConfScorePBest>
0.00509932 

> <ConfTolerance>
0.394154 

> <HETNAM>
     OWQ A 303  OWQ                                                       

> <pdb_OW>
Q_303 -16.5129 3.80749 7.62812 0.15963 1.39178 -0.28144 -3.20151 0 0 0 -1.30514 0 0 0 0 0 0 0 0 -8.31393

$$$$
6yky_lig_1.pdb
 OpenBabel04162415593D

 49 53  0  0  0  0  0  0  0  0999 V2000
    0.8470    0.1094    0.8533 C   0  0  0  1  0  0  0  0  0  0  0  0
    2.6425    1.3196    1.6413 C   0  0  0  1  0  0  0  0  0  0  0  0
    1.5599   -0.4704   -0.0882 N   0  0  0  1  0  0  0  0  0  0  0  0
    3.8383   -1.4446   -2.2179 C   0  0  0  1  0  0  0  0  0  0  0  0
    4.7659   -1.1828   -3.2085 C   0  0  0  1  0  0  0  0  0  0  0  0
    2.8672   -3.1631   -3.5785 C   0  0  0  1  0  0  0  0  0  0  0  0
    2.8858   -2.4344   -2.4042 C   0  0  0  1  0  0  0  0  0  0  0  0
    3.7975   -2.9006   -4.5721 C   0  0  0  1  0  0  0  0  0  0  0  0
    4.7471   -1.9137   -4.3861 C   0  0  0  1  0  0  0  0  0  0  0  0
   -1.3330    0.3368    1.9907 C   0  0  0  1  0  0  0  0  0  0  0  0
   -2.3973   -0.7023    2.4398 C   0  0  0  1  0  0  0  0  0  0  0  0
   -3.6303    0.0815    2.9362 C   0  0  0  1  0  0  0  0  0  0  0  0
   -4.1969    2.5702    2.6584 C   0  0  0  1  0  0  0  0  0  0  0  0
    1.3671    0.9818    1.6988 N   0  0  0  1  0  0  0  0  0  0  0  0
    3.4479    0.7329    0.6586 C   0  0  0  1  0  0  0  0  0  0  0  0
    2.8510   -0.1924   -0.2222 C   0  0  0  1  0  0  0  0  0  0  0  0
    3.8442   -0.6048   -1.0668 N   0  0  0  1  0  0  0  0  0  0  0  0
    4.7508    0.8409    0.3186 N   0  0  0  1  0  0  0  0  0  0  0  0
    5.0103    0.0738   -0.6823 N   0  0  0  1  0  0  0  0  0  0  0  0
    3.8740   -3.5428   -5.7618 O   0  0  0  1  0  0  0  0  0  0  0  0
   -0.4587   -0.1958    0.9602 N   0  0  0  1  0  0  0  0  0  0  0  0
    2.9195   -4.5876   -6.0061 C   0  0  0  1  0  0  0  0  0  0  0  0
   -3.4102    1.4389    2.3617 N   0  0  0  1  0  0  0  0  0  0  0  0
   -2.2604    1.4387    1.4425 C   0  0  0  1  0  0  0  0  0  0  0  0
   -5.2006    2.4408    3.6006 C   0  0  0  1  0  0  0  0  0  0  0  0
   -5.9754    3.5446    3.9021 C   0  0  0  1  0  0  0  0  0  0  0  0
   -5.8086    4.7391    3.3263 N   0  0  0  1  0  0  0  0  0  0  0  0
   -4.8347    4.8491    2.4116 C   0  0  0  1  0  0  0  0  0  0  0  0
   -4.0103    3.7972    2.0522 C   0  0  0  1  0  0  0  0  0  0  0  0
    3.0402    2.0074    2.3124 H   0  0  0  1  0  0  0  0  0  0  0  0
    5.4779   -0.4375   -3.0703 H   0  0  0  1  0  0  0  0  0  0  0  0
    2.1551   -3.9084   -3.7167 H   0  0  0  1  0  0  0  0  0  0  0  0
    2.1853   -2.6286   -1.6604 H   0  0  0  1  0  0  0  0  0  0  0  0
    5.4476   -1.7194   -5.1298 H   0  0  0  1  0  0  0  0  0  0  0  0
   -0.7444    0.6849    2.8137 H   0  0  0  1  0  0  0  0  0  0  0  0
   -2.0061   -1.3071    3.2311 H   0  0  0  1  0  0  0  0  0  0  0  0
   -2.6694   -1.3265    1.6144 H   0  0  0  1  0  0  0  0  0  0  0  0
   -4.5365   -0.3512    2.5669 H   0  0  0  1  0  0  0  0  0  0  0  0
   -3.6606    0.1156    4.0053 H   0  0  0  1  0  0  0  0  0  0  0  0
   -0.8429   -0.8142    0.3041 H   0  0  0  1  0  0  0  0  0  0  0  0
    3.0801   -5.3873   -5.3136 H   0  0  0  1  0  0  0  0  0  0  0  0
    3.0379   -4.9522   -7.0051 H   0  0  0  1  0  0  0  0  0  0  0  0
    1.9292   -4.2019   -5.8818 H   0  0  0  1  0  0  0  0  0  0  0  0
   -2.5729    1.2091    0.4453 H   0  0  0  1  0  0  0  0  0  0  0  0
   -1.7674    2.3882    1.4526 H   0  0  0  1  0  0  0  0  0  0  0  0
   -5.3692    1.5300    4.0734 H   0  0  0  1  0  0  0  0  0  0  0  0
   -6.7268    3.4404    4.6136 H   0  0  0  1  0  0  0  0  0  0  0  0
   -4.6918    5.7698    1.9495 H   0  0  0  1  0  0  0  0  0  0  0  0
   -3.2645    3.9280    1.3393 H   0  0  0  1  0  0  0  0  0  0  0  0
  1  3  4  0  0  0  0
  1 14  4  0  0  0  0
  1 21  1  0  0  0  0
  2 14  4  0  0  0  0
  2 15  4  0  0  0  0
  2 30  1  0  0  0  0
  3 16  4  0  0  0  0
  4  5  4  0  0  0  0
  4  7  4  0  0  0  0
  4 17  1  0  0  0  0
  5  9  4  0  0  0  0
  5 31  1  0  0  0  0
  6  7  4  0  0  0  0
  6  8  4  0  0  0  0
  6 32  1  0  0  0  0
  7 33  1  0  0  0  0
  8  9  4  0  0  0  0
  8 20  1  0  0  0  0
  9 34  1  0  0  0  0
 10 11  1  0  0  0  0
 10 21  1  0  0  0  0
 10 24  1  0  0  0  0
 10 35  1  0  0  0  0
 11 12  1  0  0  0  0
 11 36  1  0  0  0  0
 11 37  1  0  0  0  0
 12 23  1  0  0  0  0
 12 38  1  0  0  0  0
 12 39  1  0  0  0  0
 13 23  1  0  0  0  0
 13 25  4  0  0  0  0
 13 29  4  0  0  0  0
 15 16  4  0  0  0  0
 15 18  4  0  0  0  0
 16 17  4  0  0  0  0
 17 19  4  0  0  0  0
 18 19  4  0  0  0  0
 20 22  1  0  0  0  0
 21 40  1  0  0  0  0
 22 41  1  0  0  0  0
 22 42  1  0  0  0  0
 22 43  1  0  0  0  0
 23 24  1  0  0  0  0
 24 44  1  0  0  0  0
 24 45  1  0  0  0  0
 25 26  4  0  0  0  0
 25 46  1  0  0  0  0
 26 27  4  0  0  0  0
 26 47  1  0  0  0  0
 27 28  4  0  0  0  0
 28 29  4  0  0  0  0
 28 48  1  0  0  0  0
 29 49  1  0  0  0  0
M  END
> <ConfClashScore>
0 

> <ConfOneFourInteractionScore>
-0.986948 

> <ConfScore>
-0.0546555 

> <ConfScorePBest>
0.00508599 

> <ConfTolerance>
0.35473 

> <HETNAM>
     OWQ A 303  OWQ                                                       

> <pdb_OW>
Q_303 -16.5129 3.80749 7.62812 0.15963 1.39178 -0.28144 -3.20151 0 0 0 -1.30514 0 0 0 0 0 0 0 0 -8.31393

$$$$
6yky_lig_1.pdb
 OpenBabel04162415593D

 49 53  0  0  0  0  0  0  0  0999 V2000
    0.9806   -0.8443   -2.7345 C   0  0  0  1  0  0  0  0  0  0  0  0
    2.7308   -1.9912   -3.6992 C   0  0  0  1  0  0  0  0  0  0  0  0
    1.4687   -0.9784   -1.5202 N   0  0  0  1  0  0  0  0  0  0  0  0
    3.2303   -1.6752    1.1701 C   0  0  0  1  0  0  0  0  0  0  0  0
    3.6338   -2.6239    2.0906 C   0  0  0  1  0  0  0  0  0  0  0  0
    2.3920   -0.3032    2.9484 C   0  0  0  1  0  0  0  0  0  0  0  0
    2.6061   -0.5143    1.5993 C   0  0  0  1  0  0  0  0  0  0  0  0
    2.7967   -1.2547    3.8717 C   0  0  0  1  0  0  0  0  0  0  0  0
    3.4191   -2.4121    3.4435 C   0  0  0  1  0  0  0  0  0  0  0  0
   -1.0228    0.3613   -1.8423 C   0  0  0  1  0  0  0  0  0  0  0  0
   -2.0951   -0.6604   -1.3724 C   0  0  0  1  0  0  0  0  0  0  0  0
   -3.3015    0.1435   -0.8438 C   0  0  0  1  0  0  0  0  0  0  0  0
   -3.8225    2.6336   -1.1008 C   0  0  0  1  0  0  0  0  0  0  0  0
    1.5894   -1.3346   -3.8001 N   0  0  0  1  0  0  0  0  0  0  0  0
    3.2955   -2.1633   -2.4303 C   0  0  0  1  0  0  0  0  0  0  0  0
    2.6116   -1.6236   -1.3217 C   0  0  0  1  0  0  0  0  0  0  0  0
    3.3684   -1.9306   -0.2249 N   0  0  0  1  0  0  0  0  0  0  0  0
    4.4151   -2.7626   -1.9696 N   0  0  0  1  0  0  0  0  0  0  0  0
    4.4841   -2.6431   -0.6895 N   0  0  0  1  0  0  0  0  0  0  0  0
    2.5296   -0.9411    5.1618 O   0  0  0  1  0  0  0  0  0  0  0  0
   -0.1800   -0.1844   -2.8989 N   0  0  0  1  0  0  0  0  0  0  0  0
    3.0963   -1.7879    6.1738 C   0  0  0  1  0  0  0  0  0  0  0  0
   -3.0703    1.4992   -1.4179 N   0  0  0  1  0  0  0  0  0  0  0  0
   -1.9426    1.4823   -2.3639 C   0  0  0  1  0  0  0  0  0  0  0  0
   -5.0135    2.5185   -0.4079 C   0  0  0  1  0  0  0  0  0  0  0  0
   -5.7237    3.6663   -0.1116 C   0  0  0  1  0  0  0  0  0  0  0  0
   -5.3208    4.8911   -0.4635 N   0  0  0  1  0  0  0  0  0  0  0  0
   -4.1666    4.9876   -1.1386 C   0  0  0  1  0  0  0  0  0  0  0  0
   -3.3908    3.8916   -1.4734 C   0  0  0  1  0  0  0  0  0  0  0  0
    3.2004   -2.3724   -4.5453 H   0  0  0  1  0  0  0  0  0  0  0  0
    4.0985   -3.4967    1.7681 H   0  0  0  1  0  0  0  0  0  0  0  0
    1.9274    0.5696    3.2708 H   0  0  0  1  0  0  0  0  0  0  0  0
    2.2989    0.1977    0.9064 H   0  0  0  1  0  0  0  0  0  0  0  0
    3.7263   -3.1242    4.1364 H   0  0  0  1  0  0  0  0  0  0  0  0
   -0.4088    0.6950   -1.0321 H   0  0  0  1  0  0  0  0  0  0  0  0
   -2.3978   -1.2757   -2.1938 H   0  0  0  1  0  0  0  0  0  0  0  0
   -1.6964   -1.2756   -0.5931 H   0  0  0  1  0  0  0  0  0  0  0  0
   -4.2239   -0.2710   -1.1935 H   0  0  0  1  0  0  0  0  0  0  0  0
   -3.3060    0.1734    0.2257 H   0  0  0  1  0  0  0  0  0  0  0  0
   -0.4894   -0.0580   -3.8202 H   0  0  0  1  0  0  0  0  0  0  0  0
    2.7060   -2.7788    6.0701 H   0  0  0  1  0  0  0  0  0  0  0  0
    2.8447   -1.4052    7.1408 H   0  0  0  1  0  0  0  0  0  0  0  0
    4.1605   -1.8108    6.0645 H   0  0  0  1  0  0  0  0  0  0  0  0
   -1.4322    2.4227   -2.3616 H   0  0  0  1  0  0  0  0  0  0  0  0
   -2.2826    1.2629   -3.3545 H   0  0  0  1  0  0  0  0  0  0  0  0
   -5.3681    1.5857   -0.1153 H   0  0  0  1  0  0  0  0  0  0  0  0
   -6.6173    3.5723    0.4119 H   0  0  0  1  0  0  0  0  0  0  0  0
   -3.8382    5.9321   -1.4246 H   0  0  0  1  0  0  0  0  0  0  0  0
   -2.4996    4.0128   -1.9957 H   0  0  0  1  0  0  0  0  0  0  0  0
  1  3  4  0  0  0  0
  1 14  4  0  0  0  0
  1 21  1  0  0  0  0
  2 14  4  0  0  0  0
  2 15  4  0  0  0  0
  2 30  1  0  0  0  0
  3 16  4  0  0  0  0
  4  5  4  0  0  0  0
  4  7  4  0  0  0  0
  4 17  1  0  0  0  0
  5  9  4  0  0  0  0
  5 31  1  0  0  0  0
  6  7  4  0  0  0  0
  6  8  4  0  0  0  0
  6 32  1  0  0  0  0
  7 33  1  0  0  0  0
  8  9  4  0  0  0  0
  8 20  1  0  0  0  0
  9 34  1  0  0  0  0
 10 11  1  0  0  0  0
 10 21  1  0  0  0  0
 10 24  1  0  0  0  0
 10 35  1  0  0  0  0
 11 12  1  0  0  0  0
 11 36  1  0  0  0  0
 11 37  1  0  0  0  0
 12 23  1  0  0  0  0
 12 38  1  0  0  0  0
 12 39  1  0  0  0  0
 13 23  1  0  0  0  0
 13 25  4  0  0  0  0
 13 29  4  0  0  0  0
 15 16  4  0  0  0  0
 15 18  4  0  0  0  0
 16 17  4  0  0  0  0
 17 19  4  0  0  0  0
 18 19  4  0  0  0  0
 20 22  1  0  0  0  0
 21 40  1  0  0  0  0
 22 41  1  0  0  0  0
 22 42  1  0  0  0  0
 22 43  1  0  0  0  0
 23 24  1  0  0  0  0
 24 44  1  0  0  0  0
 24 45  1  0  0  0  0
 25 26  4  0  0  0  0
 25 46  1  0  0  0  0
 26 27  4  0  0  0  0
 26 47  1  0  0  0  0
 27 28  4  0  0  0  0
 28 29  4  0  0  0  0
 28 48  1  0  0  0  0
 29 49  1  0  0  0  0
M  END
> <ConfClashScore>
0 

> <ConfOneFourInteractionScore>
-0.986948 

> <ConfScore>
-0.0541973 

> <ConfScorePBest>
0.00507266 

> <ConfTolerance>
0.398577 

> <HETNAM>
     OWQ A 303  OWQ                                                       

> <pdb_OW>
Q_303 -16.5129 3.80749 7.62812 0.15963 1.39178 -0.28144 -3.20151 0 0 0 -1.30514 0 0 0 0 0 0 0 0 -8.31393

$$$$
6yky_lig_1.pdb
 OpenBabel04162415593D

 49 53  0  0  0  0  0  0  0  0999 V2000
   -0.6594   -1.6246   -1.8454 C   0  0  0  1  0  0  0  0  0  0  0  0
   -0.0442   -2.1843   -3.9943 C   0  0  0  1  0  0  0  0  0  0  0  0
    0.5593   -1.2532   -1.5172 N   0  0  0  1  0  0  0  0  0  0  0  0
    3.7633   -0.5153   -1.3909 C   0  0  0  1  0  0  0  0  0  0  0  0
    3.2819   -0.2006   -0.1341 C   0  0  0  1  0  0  0  0  0  0  0  0
    5.9206    0.3327   -0.7793 C   0  0  0  1  0  0  0  0  0  0  0  0
    5.0839   -0.2458   -1.7149 C   0  0  0  1  0  0  0  0  0  0  0  0
    5.4379    0.6484    0.4813 C   0  0  0  1  0  0  0  0  0  0  0  0
    4.1212    0.3796    0.8041 C   0  0  0  1  0  0  0  0  0  0  0  0
   -1.3867   -1.0541    0.4402 C   0  0  0  1  0  0  0  0  0  0  0  0
   -2.1693   -1.8616    1.4713 C   0  0  0  1  0  0  0  0  0  0  0  0
   -3.5706   -1.2560    1.4107 C   0  0  0  1  0  0  0  0  0  0  0  0
   -4.2714    1.1849    1.1502 C   0  0  0  1  0  0  0  0  0  0  0  0
   -0.9607   -2.0788   -3.0493 N   0  0  0  1  0  0  0  0  0  0  0  0
    1.2697   -1.8029   -3.6995 C   0  0  0  1  0  0  0  0  0  0  0  0
    1.5458   -1.3241   -2.4024 C   0  0  0  1  0  0  0  0  0  0  0  0
    2.8808   -1.0282   -2.3851 N   0  0  0  1  0  0  0  0  0  0  0  0
    2.4244   -1.7781   -4.4003 N   0  0  0  1  0  0  0  0  0  0  0  0
    3.3792   -1.3318   -3.6609 N   0  0  0  1  0  0  0  0  0  0  0  0
    6.2564    1.2201    1.3962 O   0  0  0  1  0  0  0  0  0  0  0  0
   -1.6489   -1.5381   -0.9102 N   0  0  0  1  0  0  0  0  0  0  0  0
    5.6571    1.6743    2.6197 C   0  0  0  1  0  0  0  0  0  0  0  0
   -3.3061    0.1544    1.0662 N   0  0  0  1  0  0  0  0  0  0  0  0
   -1.9179    0.3598    0.6248 C   0  0  0  1  0  0  0  0  0  0  0  0
   -4.2381    2.0990    2.1870 C   0  0  0  1  0  0  0  0  0  0  0  0
   -5.1980    3.0922    2.2286 C   0  0  0  1  0  0  0  0  0  0  0  0
   -6.1664    3.2169    1.3159 N   0  0  0  1  0  0  0  0  0  0  0  0
   -6.1893    2.3212    0.3187 C   0  0  0  1  0  0  0  0  0  0  0  0
   -5.2656    1.2977    0.1981 C   0  0  0  1  0  0  0  0  0  0  0  0
   -0.2936   -2.5432   -4.9379 H   0  0  0  1  0  0  0  0  0  0  0  0
    2.2900   -0.3991    0.1076 H   0  0  0  1  0  0  0  0  0  0  0  0
    6.9125    0.5312   -1.0210 H   0  0  0  1  0  0  0  0  0  0  0  0
    5.4450   -0.4790   -2.6619 H   0  0  0  1  0  0  0  0  0  0  0  0
    3.7600    0.6128    1.7511 H   0  0  0  1  0  0  0  0  0  0  0  0
   -0.3359   -1.0972    0.6374 H   0  0  0  1  0  0  0  0  0  0  0  0
   -2.1895   -2.8988    1.2092 H   0  0  0  1  0  0  0  0  0  0  0  0
   -1.7457   -1.7480    2.4473 H   0  0  0  1  0  0  0  0  0  0  0  0
   -4.1630   -1.7315    0.6572 H   0  0  0  1  0  0  0  0  0  0  0  0
   -4.0650   -1.3348    2.3564 H   0  0  0  1  0  0  0  0  0  0  0  0
   -2.5593   -1.8083   -1.1522 H   0  0  0  1  0  0  0  0  0  0  0  0
    5.0988    0.8758    3.0620 H   0  0  0  1  0  0  0  0  0  0  0  0
    5.0025    2.4950    2.4127 H   0  0  0  1  0  0  0  0  0  0  0  0
    6.4235    1.9906    3.2961 H   0  0  0  1  0  0  0  0  0  0  0  0
   -1.8868    0.9025   -0.2968 H   0  0  0  1  0  0  0  0  0  0  0  0
   -1.3550    0.8850    1.3678 H   0  0  0  1  0  0  0  0  0  0  0  0
   -3.5044    2.0402    2.9218 H   0  0  0  1  0  0  0  0  0  0  0  0
   -5.1652    3.7777    3.0100 H   0  0  0  1  0  0  0  0  0  0  0  0
   -6.9377    2.3994   -0.3993 H   0  0  0  1  0  0  0  0  0  0  0  0
   -5.3191    0.6263   -0.5943 H   0  0  0  1  0  0  0  0  0  0  0  0
  1  3  4  0  0  0  0
  1 14  4  0  0  0  0
  1 21  1  0  0  0  0
  2 14  4  0  0  0  0
  2 15  4  0  0  0  0
  2 30  1  0  0  0  0
  3 16  4  0  0  0  0
  4  5  4  0  0  0  0
  4  7  4  0  0  0  0
  4 17  1  0  0  0  0
  5  9  4  0  0  0  0
  5 31  1  0  0  0  0
  6  7  4  0  0  0  0
  6  8  4  0  0  0  0
  6 32  1  0  0  0  0
  7 33  1  0  0  0  0
  8  9  4  0  0  0  0
  8 20  1  0  0  0  0
  9 34  1  0  0  0  0
 10 11  1  0  0  0  0
 10 21  1  0  0  0  0
 10 24  1  0  0  0  0
 10 35  1  0  0  0  0
 11 12  1  0  0  0  0
 11 36  1  0  0  0  0
 11 37  1  0  0  0  0
 12 23  1  0  0  0  0
 12 38  1  0  0  0  0
 12 39  1  0  0  0  0
 13 23  1  0  0  0  0
 13 25  4  0  0  0  0
 13 29  4  0  0  0  0
 15 16  4  0  0  0  0
 15 18  4  0  0  0  0
 16 17  4  0  0  0  0
 17 19  4  0  0  0  0
 18 19  4  0  0  0  0
 20 22  1  0  0  0  0
 21 40  1  0  0  0  0
 22 41  1  0  0  0  0
 22 42  1  0  0  0  0
 22 43  1  0  0  0  0
 23 24  1  0  0  0  0
 24 44  1  0  0  0  0
 24 45  1  0  0  0  0
 25 26  4  0  0  0  0
 25 46  1  0  0  0  0
 26 27  4  0  0  0  0
 26 47  1  0  0  0  0
 27 28  4  0  0  0  0
 28 29  4  0  0  0  0
 28 48  1  0  0  0  0
 29 49  1  0  0  0  0
M  END
> <ConfClashScore>
0 

> <ConfOneFourInteractionScore>
-0.986948 

> <ConfScore>
-0.0516933 

> <ConfScorePBest>
0.00505933 

> <ConfTolerance>
0.521486 

> <HETNAM>
     OWQ A 303  OWQ                                                       

> <pdb_OW>
Q_303 -16.5129 3.80749 7.62812 0.15963 1.39178 -0.28144 -3.20151 0 0 0 -1.30514 0 0 0 0 0 0 0 0 -8.31393

$$$$
6yky_lig_1.pdb
 OpenBabel04162415593D

 49 53  0  0  0  0  0  0  0  0999 V2000
    1.2422   -2.3207   -2.1970 C   0  0  0  1  0  0  0  0  0  0  0  0
    3.1766   -2.3203   -3.4490 C   0  0  0  1  0  0  0  0  0  0  0  0
    1.6624   -1.3481   -1.4170 N   0  0  0  1  0  0  0  0  0  0  0  0
    3.3287    0.9692    0.1733 C   0  0  0  1  0  0  0  0  0  0  0  0
    2.1521    0.8071    0.8800 C   0  0  0  1  0  0  0  0  0  0  0  0
    3.9531    2.7740    1.6224 C   0  0  0  1  0  0  0  0  0  0  0  0
    4.2294    1.9558    0.5433 C   0  0  0  1  0  0  0  0  0  0  0  0
    2.7730    2.6116    2.3314 C   0  0  0  1  0  0  0  0  0  0  0  0
    1.8751    1.6278    1.9622 C   0  0  0  1  0  0  0  0  0  0  0  0
   -0.8386   -2.2377   -0.8534 C   0  0  0  1  0  0  0  0  0  0  0  0
   -1.9087   -3.2601   -0.3802 C   0  0  0  1  0  0  0  0  0  0  0  0
   -3.1197   -2.4572    0.1392 C   0  0  0  1  0  0  0  0  0  0  0  0
   -3.6580    0.0430   -0.1321 C   0  0  0  1  0  0  0  0  0  0  0  0
    1.9738   -2.7991   -3.1882 N   0  0  0  1  0  0  0  0  0  0  0  0
    3.6736   -1.2842   -2.6501 C   0  0  0  1  0  0  0  0  0  0  0  0
    2.8589   -0.8047   -1.6039 C   0  0  0  1  0  0  0  0  0  0  0  0
    3.5740    0.1877   -0.9926 N   0  0  0  1  0  0  0  0  0  0  0  0
    4.8248   -0.5775   -2.6303 N   0  0  0  1  0  0  0  0  0  0  0  0
    4.7952    0.2864   -1.6761 N   0  0  0  1  0  0  0  0  0  0  0  0
    2.6098    3.4710    3.3608 O   0  0  0  1  0  0  0  0  0  0  0  0
    0.0096   -2.7873   -1.9037 N   0  0  0  1  0  0  0  0  0  0  0  0
    1.4244    3.3912    4.1675 C   0  0  0  1  0  0  0  0  0  0  0  0
   -2.8915   -1.1045   -0.4430 N   0  0  0  1  0  0  0  0  0  0  0  0
   -1.7607   -1.1236   -1.3854 C   0  0  0  1  0  0  0  0  0  0  0  0
   -3.3391    1.2727   -0.6778 C   0  0  0  1  0  0  0  0  0  0  0  0
   -4.1169    2.3670   -0.3503 C   0  0  0  1  0  0  0  0  0  0  0  0
   -5.1670    2.3019    0.4738 N   0  0  0  1  0  0  0  0  0  0  0  0
   -5.4622    1.1043    0.9991 C   0  0  0  1  0  0  0  0  0  0  0  0
   -4.7396   -0.0432    0.7225 C   0  0  0  1  0  0  0  0  0  0  0  0
    3.7428   -2.7051   -4.2318 H   0  0  0  1  0  0  0  0  0  0  0  0
    1.4745    0.0695    0.5998 H   0  0  0  1  0  0  0  0  0  0  0  0
    4.6307    3.5116    1.9025 H   0  0  0  1  0  0  0  0  0  0  0  0
    5.1129    2.0803    0.0090 H   0  0  0  1  0  0  0  0  0  0  0  0
    0.9916    1.5033    2.4965 H   0  0  0  1  0  0  0  0  0  0  0  0
   -0.2283   -1.8965   -0.0434 H   0  0  0  1  0  0  0  0  0  0  0  0
   -1.5103   -3.8689    0.4044 H   0  0  0  1  0  0  0  0  0  0  0  0
   -2.2066   -3.8820   -1.1984 H   0  0  0  1  0  0  0  0  0  0  0  0
   -4.0395   -2.8773   -0.2106 H   0  0  0  1  0  0  0  0  0  0  0  0
   -3.1277   -2.4203    1.2085 H   0  0  0  1  0  0  0  0  0  0  0  0
   -0.3352   -3.5400   -2.4281 H   0  0  0  1  0  0  0  0  0  0  0  0
    0.5836    3.7350    3.6019 H   0  0  0  1  0  0  0  0  0  0  0  0
    1.5431    4.0031    5.0372 H   0  0  0  1  0  0  0  0  0  0  0  0
    1.2630    2.3759    4.4644 H   0  0  0  1  0  0  0  0  0  0  0  0
   -1.2537   -0.1813   -1.3876 H   0  0  0  1  0  0  0  0  0  0  0  0
   -2.0967   -1.3507   -2.3755 H   0  0  0  1  0  0  0  0  0  0  0  0
   -2.5291    1.3722   -1.3225 H   0  0  0  1  0  0  0  0  0  0  0  0
   -3.8726    3.2882   -0.7665 H   0  0  0  1  0  0  0  0  0  0  0  0
   -6.2736    1.0342    1.6458 H   0  0  0  1  0  0  0  0  0  0  0  0
   -5.0060   -0.9530    1.1501 H   0  0  0  1  0  0  0  0  0  0  0  0
  1  3  4  0  0  0  0
  1 14  4  0  0  0  0
  1 21  1  0  0  0  0
  2 14  4  0  0  0  0
  2 15  4  0  0  0  0
  2 30  1  0  0  0  0
  3 16  4  0  0  0  0
  4  5  4  0  0  0  0
  4  7  4  0  0  0  0
  4 17  1  0  0  0  0
  5  9  4  0  0  0  0
  5 31  1  0  0  0  0
  6  7  4  0  0  0  0
  6  8  4  0  0  0  0
  6 32  1  0  0  0  0
  7 33  1  0  0  0  0
  8  9  4  0  0  0  0
  8 20  1  0  0  0  0
  9 34  1  0  0  0  0
 10 11  1  0  0  0  0
 10 21  1  0  0  0  0
 10 24  1  0  0  0  0
 10 35  1  0  0  0  0
 11 12  1  0  0  0  0
 11 36  1  0  0  0  0
 11 37  1  0  0  0  0
 12 23  1  0  0  0  0
 12 38  1  0  0  0  0
 12 39  1  0  0  0  0
 13 23  1  0  0  0  0
 13 25  4  0  0  0  0
 13 29  4  0  0  0  0
 15 16  4  0  0  0  0
 15 18  4  0  0  0  0
 16 17  4  0  0  0  0
 17 19  4  0  0  0  0
 18 19  4  0  0  0  0
 20 22  1  0  0  0  0
 21 40  1  0  0  0  0
 22 41  1  0  0  0  0
 22 42  1  0  0  0  0
 22 43  1  0  0  0  0
 23 24  1  0  0  0  0
 24 44  1  0  0  0  0
 24 45  1  0  0  0  0
 25 26  4  0  0  0  0
 25 46  1  0  0  0  0
 26 27  4  0  0  0  0
 26 47  1  0  0  0  0
 27 28  4  0  0  0  0
 28 29  4  0  0  0  0
 28 48  1  0  0  0  0
 29 49  1  0  0  0  0
M  END
> <ConfClashScore>
0 

> <ConfOneFourInteractionScore>
-0.984874 

> <ConfScore>
-0.0515336 

> <ConfScorePBest>
0.005046 

> <ConfTolerance>
0.36988 

> <HETNAM>
     OWQ A 303  OWQ                                                       

> <pdb_OW>
Q_303 -16.5129 3.80749 7.62812 0.15963 1.39178 -0.28144 -3.20151 0 0 0 -1.30514 0 0 0 0 0 0 0 0 -8.31393

$$$$
6yky_lig_1.pdb
 OpenBabel04162415593D

 49 53  0  0  0  0  0  0  0  0999 V2000
    1.7212    0.1710    0.4437 C   0  0  0  1  0  0  0  0  0  0  0  0
    3.6650    1.1107   -0.3613 C   0  0  0  1  0  0  0  0  0  0  0  0
    1.4669   -0.4475   -0.6893 N   0  0  0  1  0  0  0  0  0  0  0  0
    1.4292   -1.6777   -3.7040 C   0  0  0  1  0  0  0  0  0  0  0  0
    0.2889   -2.1528   -3.0843 C   0  0  0  1  0  0  0  0  0  0  0  0
    0.9395   -3.0131   -5.6338 C   0  0  0  1  0  0  0  0  0  0  0  0
    1.7565   -2.1104   -4.9796 C   0  0  0  1  0  0  0  0  0  0  0  0
   -0.2042   -3.4897   -5.0124 C   0  0  0  1  0  0  0  0  0  0  0  0
   -0.5304   -3.0581   -3.7405 C   0  0  0  1  0  0  0  0  0  0  0  0
    1.1010    0.5428    2.8094 C   0  0  0  1  0  0  0  0  0  0  0  0
    0.3188   -0.2534    3.8479 C   0  0  0  1  0  0  0  0  0  0  0  0
   -1.0851    0.3364    3.7587 C   0  0  0  1  0  0  0  0  0  0  0  0
   -1.7319    2.7723    3.6326 C   0  0  0  1  0  0  0  0  0  0  0  0
    2.7892    0.9312    0.6107 N   0  0  0  1  0  0  0  0  0  0  0  0
    3.4438    0.4758   -1.5888 C   0  0  0  1  0  0  0  0  0  0  0  0
    2.2914   -0.3257   -1.7223 C   0  0  0  1  0  0  0  0  0  0  0  0
    2.3192   -0.8176   -2.9980 N   0  0  0  1  0  0  0  0  0  0  0  0
    4.1085    0.4375   -2.7642 N   0  0  0  1  0  0  0  0  0  0  0  0
    3.4775   -0.3076   -3.6034 N   0  0  0  1  0  0  0  0  0  0  0  0
   -1.0482   -4.2992   -5.6813 O   0  0  0  1  0  0  0  0  0  0  0  0
    0.8607    0.0247    1.4739 N   0  0  0  1  0  0  0  0  0  0  0  0
   -2.3059   -4.5574   -5.0150 C   0  0  0  1  0  0  0  0  0  0  0  0
   -0.8106    1.7574    3.4565 N   0  0  0  1  0  0  0  0  0  0  0  0
    0.5557    1.9704    2.9462 C   0  0  0  1  0  0  0  0  0  0  0  0
   -1.4703    4.0879    3.2975 C   0  0  0  1  0  0  0  0  0  0  0  0
   -2.4858    5.0179    3.4138 C   0  0  0  1  0  0  0  0  0  0  0  0
   -3.7159    4.7136    3.8387 N   0  0  0  1  0  0  0  0  0  0  0  0
   -3.9543    3.4352    4.1644 C   0  0  0  1  0  0  0  0  0  0  0  0
   -2.9974    2.4393    4.0746 C   0  0  0  1  0  0  0  0  0  0  0  0
    4.5017    1.7114   -0.2177 H   0  0  0  1  0  0  0  0  0  0  0  0
    0.0455   -1.8312   -2.1257 H   0  0  0  1  0  0  0  0  0  0  0  0
    1.1829   -3.3347   -6.5924 H   0  0  0  1  0  0  0  0  0  0  0  0
    2.6167   -1.7559   -5.4443 H   0  0  0  1  0  0  0  0  0  0  0  0
   -1.3906   -3.4126   -3.2758 H   0  0  0  1  0  0  0  0  0  0  0  0
    2.1497    0.5149    3.0201 H   0  0  0  1  0  0  0  0  0  0  0  0
    0.3124   -1.2957    3.6063 H   0  0  0  1  0  0  0  0  0  0  0  0
    0.7306   -0.1159    4.8258 H   0  0  0  1  0  0  0  0  0  0  0  0
   -1.6498   -0.1242    2.9753 H   0  0  0  1  0  0  0  0  0  0  0  0
   -1.6089    0.2317    4.6858 H   0  0  0  1  0  0  0  0  0  0  0  0
    0.0246   -0.4598    1.3109 H   0  0  0  1  0  0  0  0  0  0  0  0
   -2.1289   -5.1261   -4.1260 H   0  0  0  1  0  0  0  0  0  0  0  0
   -2.9490   -5.1088   -5.6687 H   0  0  0  1  0  0  0  0  0  0  0  0
   -2.7700   -3.6284   -4.7572 H   0  0  0  1  0  0  0  0  0  0  0  0
    0.5389    2.4677    1.9989 H   0  0  0  1  0  0  0  0  0  0  0  0
    1.1399    2.5401    3.6384 H   0  0  0  1  0  0  0  0  0  0  0  0
   -0.5271    4.3723    2.9641 H   0  0  0  1  0  0  0  0  0  0  0  0
   -2.2825    6.0051    3.1575 H   0  0  0  1  0  0  0  0  0  0  0  0
   -4.9045    3.1793    4.5009 H   0  0  0  1  0  0  0  0  0  0  0  0
   -3.2269    1.4589    4.3350 H   0  0  0  1  0  0  0  0  0  0  0  0
  1  3  4  0  0  0  0
  1 14  4  0  0  0  0
  1 21  1  0  0  0  0
  2 14  4  0  0  0  0
  2 15  4  0  0  0  0
  2 30  1  0  0  0  0
  3 16  4  0  0  0  0
  4  5  4  0  0  0  0
  4  7  4  0  0  0  0
  4 17  1  0  0  0  0
  5  9  4  0  0  0  0
  5 31  1  0  0  0  0
  6  7  4  0  0  0  0
  6  8  4  0  0  0  0
  6 32  1  0  0  0  0
  7 33  1  0  0  0  0
  8  9  4  0  0  0  0
  8 20  1  0  0  0  0
  9 34  1  0  0  0  0
 10 11  1  0  0  0  0
 10 21  1  0  0  0  0
 10 24  1  0  0  0  0
 10 35  1  0  0  0  0
 11 12  1  0  0  0  0
 11 36  1  0  0  0  0
 11 37  1  0  0  0  0
 12 23  1  0  0  0  0
 12 38  1  0  0  0  0
 12 39  1  0  0  0  0
 13 23  1  0  0  0  0
 13 25  4  0  0  0  0
 13 29  4  0  0  0  0
 15 16  4  0  0  0  0
 15 18  4  0  0  0  0
 16 17  4  0  0  0  0
 17 19  4  0  0  0  0
 18 19  4  0  0  0  0
 20 22  1  0  0  0  0
 21 40  1  0  0  0  0
 22 41  1  0  0  0  0
 22 42  1  0  0  0  0
 22 43  1  0  0  0  0
 23 24  1  0  0  0  0
 24 44  1  0  0  0  0
 24 45  1  0  0  0  0
 25 26  4  0  0  0  0
 25 46  1  0  0  0  0
 26 27  4  0  0  0  0
 26 47  1  0  0  0  0
 27 28  4  0  0  0  0
 28 29  4  0  0  0  0
 28 48  1  0  0  0  0
 29 49  1  0  0  0  0
M  END
> <ConfClashScore>
0 

> <ConfOneFourInteractionScore>
-0.984874 

> <ConfScore>
-0.0513095 

> <ConfScorePBest>
0.00503268 

> <ConfTolerance>
0.487645 

> <HETNAM>
     OWQ A 303  OWQ                                                       

> <pdb_OW>
Q_303 -16.5129 3.80749 7.62812 0.15963 1.39178 -0.28144 -3.20151 0 0 0 -1.30514 0 0 0 0 0 0 0 0 -8.31393

$$$$
6yky_lig_1.pdb
 OpenBabel04162415593D

 49 53  0  0  0  0  0  0  0  0999 V2000
    1.0535   -0.1975    1.1806 C   0  0  0  1  0  0  0  0  0  0  0  0
    2.8960   -1.0023    2.3061 C   0  0  0  1  0  0  0  0  0  0  0  0
    1.4915   -0.6219    0.0149 N   0  0  0  1  0  0  0  0  0  0  0  0
    3.0517   -2.0295   -2.4710 C   0  0  0  1  0  0  0  0  0  0  0  0
    3.1520   -3.3198   -2.9561 C   0  0  0  1  0  0  0  0  0  0  0  0
    2.5247   -1.2404   -4.6726 C   0  0  0  1  0  0  0  0  0  0  0  0
    2.7402   -0.9878   -3.3309 C   0  0  0  1  0  0  0  0  0  0  0  0
    2.6253   -2.5345   -5.1592 C   0  0  0  1  0  0  0  0  0  0  0  0
    2.9358   -3.5729   -4.3017 C   0  0  0  1  0  0  0  0  0  0  0  0
   -0.7823    0.9409    2.4423 C   0  0  0  1  0  0  0  0  0  0  0  0
   -1.8124   -0.0792    2.9759 C   0  0  0  1  0  0  0  0  0  0  0  0
   -3.0289    0.6936    3.4193 C   0  0  0  1  0  0  0  0  0  0  0  0
   -3.6888    3.1076    2.8030 C   0  0  0  1  0  0  0  0  0  0  0  0
    1.7317   -0.3791    2.3002 N   0  0  0  1  0  0  0  0  0  0  0  0
    3.4096   -1.4750    1.0931 C   0  0  0  1  0  0  0  0  0  0  0  0
    2.6523   -1.2592   -0.0765 C   0  0  0  1  0  0  0  0  0  0  0  0
    3.3721   -1.8110   -1.0999 N   0  0  0  1  0  0  0  0  0  0  0  0
    4.5337   -2.1349    0.7379 N   0  0  0  1  0  0  0  0  0  0  0  0
    4.5392   -2.3441   -0.5324 N   0  0  0  1  0  0  0  0  0  0  0  0
    2.3928   -2.6128   -6.4839 O   0  0  0  1  0  0  0  0  0  0  0  0
   -0.1207    0.4410    1.2361 N   0  0  0  1  0  0  0  0  0  0  0  0
    2.5723   -3.9275   -7.0602 C   0  0  0  1  0  0  0  0  0  0  0  0
   -2.7760    2.0617    2.7490 N   0  0  0  1  0  0  0  0  0  0  0  0
   -1.6412    2.1512    2.1326 C   0  0  0  1  0  0  0  0  0  0  0  0
   -3.5797    4.0891    3.7707 C   0  0  0  1  0  0  0  0  0  0  0  0
   -4.5069    5.1136    3.7857 C   0  0  0  1  0  0  0  0  0  0  0  0
   -5.5132    5.2070    2.9111 N   0  0  0  1  0  0  0  0  0  0  0  0
   -5.6095    4.2462    1.9811 C   0  0  0  1  0  0  0  0  0  0  0  0
   -4.7231    3.1872    1.8911 C   0  0  0  1  0  0  0  0  0  0  0  0
    3.4204   -1.1391    3.1938 H   0  0  0  1  0  0  0  0  0  0  0  0
    3.3896   -4.1006   -2.3116 H   0  0  0  1  0  0  0  0  0  0  0  0
    2.2871   -0.4595   -5.3170 H   0  0  0  1  0  0  0  0  0  0  0  0
    2.6687   -0.0164   -2.9665 H   0  0  0  1  0  0  0  0  0  0  0  0
    3.0073   -4.5444   -4.6660 H   0  0  0  1  0  0  0  0  0  0  0  0
   -0.0463    1.1700    3.1844 H   0  0  0  1  0  0  0  0  0  0  0  0
   -2.0795   -0.7675    2.2014 H   0  0  0  1  0  0  0  0  0  0  0  0
   -1.3992   -0.6162    3.8040 H   0  0  0  1  0  0  0  0  0  0  0  0
   -3.9313    0.2429    3.0622 H   0  0  0  1  0  0  0  0  0  0  0  0
   -3.0709    0.7810    4.4850 H   0  0  0  1  0  0  0  0  0  0  0  0
   -0.5838    0.5885    0.3851 H   0  0  0  1  0  0  0  0  0  0  0  0
    2.6222   -3.8465   -8.1259 H   0  0  0  1  0  0  0  0  0  0  0  0
    1.7466   -4.5515   -6.7884 H   0  0  0  1  0  0  0  0  0  0  0  0
    3.4807   -4.3569   -6.6924 H   0  0  0  1  0  0  0  0  0  0  0  0
   -1.8146    2.2012    1.0779 H   0  0  0  1  0  0  0  0  0  0  0  0
   -1.1333    3.0367    2.4535 H   0  0  0  1  0  0  0  0  0  0  0  0
   -2.8143    4.0569    4.4740 H   0  0  0  1  0  0  0  0  0  0  0  0
   -4.4171    5.8497    4.5149 H   0  0  0  1  0  0  0  0  0  0  0  0
   -6.3883    4.2993    1.2938 H   0  0  0  1  0  0  0  0  0  0  0  0
   -4.8337    2.4651    1.1508 H   0  0  0  1  0  0  0  0  0  0  0  0
  1  3  4  0  0  0  0
  1 14  4  0  0  0  0
  1 21  1  0  0  0  0
  2 14  4  0  0  0  0
  2 15  4  0  0  0  0
  2 30  1  0  0  0  0
  3 16  4  0  0  0  0
  4  5  4  0  0  0  0
  4  7  4  0  0  0  0
  4 17  1  0  0  0  0
  5  9  4  0  0  0  0
  5 31  1  0  0  0  0
  6  7  4  0  0  0  0
  6  8  4  0  0  0  0
  6 32  1  0  0  0  0
  7 33  1  0  0  0  0
  8  9  4  0  0  0  0
  8 20  1  0  0  0  0
  9 34  1  0  0  0  0
 10 11  1  0  0  0  0
 10 21  1  0  0  0  0
 10 24  1  0  0  0  0
 10 35  1  0  0  0  0
 11 12  1  0  0  0  0
 11 36  1  0  0  0  0
 11 37  1  0  0  0  0
 12 23  1  0  0  0  0
 12 38  1  0  0  0  0
 12 39  1  0  0  0  0
 13 23  1  0  0  0  0
 13 25  4  0  0  0  0
 13 29  4  0  0  0  0
 15 16  4  0  0  0  0
 15 18  4  0  0  0  0
 16 17  4  0  0  0  0
 17 19  4  0  0  0  0
 18 19  4  0  0  0  0
 20 22  1  0  0  0  0
 21 40  1  0  0  0  0
 22 41  1  0  0  0  0
 22 42  1  0  0  0  0
 22 43  1  0  0  0  0
 23 24  1  0  0  0  0
 24 44  1  0  0  0  0
 24 45  1  0  0  0  0
 25 26  4  0  0  0  0
 25 46  1  0  0  0  0
 26 27  4  0  0  0  0
 26 47  1  0  0  0  0
 27 28  4  0  0  0  0
 28 29  4  0  0  0  0
 28 48  1  0  0  0  0
 29 49  1  0  0  0  0
M  END
> <ConfClashScore>
0 

> <ConfOneFourInteractionScore>
-0.986948 

> <ConfScore>
-0.047743 

> <ConfScorePBest>
0.00501935 

> <ConfTolerance>
0.379979 

> <HETNAM>
     OWQ A 303  OWQ                                                       

> <pdb_OW>
Q_303 -16.5129 3.80749 7.62812 0.15963 1.39178 -0.28144 -3.20151 0 0 0 -1.30514 0 0 0 0 0 0 0 0 -8.31393

$$$$
6yky_lig_1.pdb
 OpenBabel04162415593D

 49 53  0  0  0  0  0  0  0  0999 V2000
    0.7480   -0.7314    1.1317 C   0  0  0  1  0  0  0  0  0  0  0  0
    2.2121   -1.8392    2.5241 C   0  0  0  1  0  0  0  0  0  0  0  0
    1.4047   -1.0801    0.0464 N   0  0  0  1  0  0  0  0  0  0  0  0
    3.4525   -2.2661   -2.1904 C   0  0  0  1  0  0  0  0  0  0  0  0
    4.3904   -3.0509   -2.8343 C   0  0  0  1  0  0  0  0  0  0  0  0
    2.8450   -1.2700   -4.2847 C   0  0  0  1  0  0  0  0  0  0  0  0
    2.6805   -1.3724   -2.9162 C   0  0  0  1  0  0  0  0  0  0  0  0
    3.7856   -2.0571   -4.9307 C   0  0  0  1  0  0  0  0  0  0  0  0
    4.5552   -2.9482   -4.2068 C   0  0  0  1  0  0  0  0  0  0  0  0
   -1.1895    0.5762    2.0073 C   0  0  0  1  0  0  0  0  0  0  0  0
   -2.2504   -0.4474    2.4982 C   0  0  0  1  0  0  0  0  0  0  0  0
   -3.4629    0.3539    3.0167 C   0  0  0  1  0  0  0  0  0  0  0  0
   -3.9977    2.8178    2.7141 C   0  0  0  1  0  0  0  0  0  0  0  0
    1.1351   -1.0972    2.3412 N   0  0  0  1  0  0  0  0  0  0  0  0
    2.9491   -2.2390    1.4035 C   0  0  0  1  0  0  0  0  0  0  0  0
    2.4995   -1.8257    0.1326 C   0  0  0  1  0  0  0  0  0  0  0  0
    3.3866   -2.3451   -0.7693 N   0  0  0  1  0  0  0  0  0  0  0  0
    4.0666   -2.9763    1.2235 N   0  0  0  1  0  0  0  0  0  0  0  0
    4.3453   -3.0551   -0.0310 N   0  0  0  1  0  0  0  0  0  0  0  0
    4.0375   -2.0411   -6.2540 O   0  0  0  1  0  0  0  0  0  0  0  0
   -0.3447    0.0203    0.9575 N   0  0  0  1  0  0  0  0  0  0  0  0
    3.2136   -1.1342   -7.0230 C   0  0  0  1  0  0  0  0  0  0  0  0
   -3.2465    1.7016    2.4186 N   0  0  0  1  0  0  0  0  0  0  0  0
   -2.1216    1.6791    1.4693 C   0  0  0  1  0  0  0  0  0  0  0  0
   -3.8086    3.5005    3.9014 C   0  0  0  1  0  0  0  0  0  0  0  0
   -4.5811    4.6177    4.1561 C   0  0  0  1  0  0  0  0  0  0  0  0
   -5.5105    5.0763    3.3123 N   0  0  0  1  0  0  0  0  0  0  0  0
   -5.6863    4.4022    2.1669 C   0  0  0  1  0  0  0  0  0  0  0  0
   -4.9545    3.2769    1.8301 C   0  0  0  1  0  0  0  0  0  0  0  0
    2.5066   -2.1207    3.4810 H   0  0  0  1  0  0  0  0  0  0  0  0
    4.9724   -3.7186   -2.2892 H   0  0  0  1  0  0  0  0  0  0  0  0
    2.2630   -0.6024   -4.8298 H   0  0  0  1  0  0  0  0  0  0  0  0
    1.9776   -0.7789   -2.4310 H   0  0  0  1  0  0  0  0  0  0  0  0
    5.2581   -3.5416   -4.6919 H   0  0  0  1  0  0  0  0  0  0  0  0
   -0.5762    0.9297    2.8096 H   0  0  0  1  0  0  0  0  0  0  0  0
   -2.5497   -1.0798    1.6886 H   0  0  0  1  0  0  0  0  0  0  0  0
   -1.8435   -1.0453    3.2868 H   0  0  0  1  0  0  0  0  0  0  0  0
   -3.4644    0.4022    4.0856 H   0  0  0  1  0  0  0  0  0  0  0  0
   -4.3823   -0.0754    2.6773 H   0  0  0  1  0  0  0  0  0  0  0  0
   -0.6027    0.2168    0.0327 H   0  0  0  1  0  0  0  0  0  0  0  0
    3.6524   -0.9835   -7.9872 H   0  0  0  1  0  0  0  0  0  0  0  0
    3.1438   -0.1964   -6.5127 H   0  0  0  1  0  0  0  0  0  0  0  0
    2.2353   -1.5520   -7.1380 H   0  0  0  1  0  0  0  0  0  0  0  0
   -1.6202    2.6242    1.4537 H   0  0  0  1  0  0  0  0  0  0  0  0
   -2.4625    1.4393    0.4838 H   0  0  0  1  0  0  0  0  0  0  0  0
   -3.0984    3.1793    4.5899 H   0  0  0  1  0  0  0  0  0  0  0  0
   -4.4316    5.1276    5.0501 H   0  0  0  1  0  0  0  0  0  0  0  0
   -6.4076    4.7415    1.4989 H   0  0  0  1  0  0  0  0  0  0  0  0
   -5.1219    2.7862    0.9285 H   0  0  0  1  0  0  0  0  0  0  0  0
  1  3  4  0  0  0  0
  1 14  4  0  0  0  0
  1 21  1  0  0  0  0
  2 14  4  0  0  0  0
  2 15  4  0  0  0  0
  2 30  1  0  0  0  0
  3 16  4  0  0  0  0
  4  5  4  0  0  0  0
  4  7  4  0  0  0  0
  4 17  1  0  0  0  0
  5  9  4  0  0  0  0
  5 31  1  0  0  0  0
  6  7  4  0  0  0  0
  6  8  4  0  0  0  0
  6 32  1  0  0  0  0
  7 33  1  0  0  0  0
  8  9  4  0  0  0  0
  8 20  1  0  0  0  0
  9 34  1  0  0  0  0
 10 11  1  0  0  0  0
 10 21  1  0  0  0  0
 10 24  1  0  0  0  0
 10 35  1  0  0  0  0
 11 12  1  0  0  0  0
 11 36  1  0  0  0  0
 11 37  1  0  0  0  0
 12 23  1  0  0  0  0
 12 38  1  0  0  0  0
 12 39  1  0  0  0  0
 13 23  1  0  0  0  0
 13 25  4  0  0  0  0
 13 29  4  0  0  0  0
 15 16  4  0  0  0  0
 15 18  4  0  0  0  0
 16 17  4  0  0  0  0
 17 19  4  0  0  0  0
 18 19  4  0  0  0  0
 20 22  1  0  0  0  0
 21 40  1  0  0  0  0
 22 41  1  0  0  0  0
 22 42  1  0  0  0  0
 22 43  1  0  0  0  0
 23 24  1  0  0  0  0
 24 44  1  0  0  0  0
 24 45  1  0  0  0  0
 25 26  4  0  0  0  0
 25 46  1  0  0  0  0
 26 27  4  0  0  0  0
 26 47  1  0  0  0  0
 27 28  4  0  0  0  0
 28 29  4  0  0  0  0
 28 48  1  0  0  0  0
 29 49  1  0  0  0  0
M  END
> <ConfClashScore>
0 

> <ConfOneFourInteractionScore>
-0.986948 

> <ConfScore>
-0.0465806 

> <ConfScorePBest>
0.00500602 

> <ConfTolerance>
0.399964 

> <HETNAM>
     OWQ A 303  OWQ                                                       

> <pdb_OW>
Q_303 -16.5129 3.80749 7.62812 0.15963 1.39178 -0.28144 -3.20151 0 0 0 -1.30514 0 0 0 0 0 0 0 0 -8.31393

$$$$
6yky_lig_1.pdb
 OpenBabel04162415593D

 49 53  0  0  0  0  0  0  0  0999 V2000
   -0.6465   -2.2554   -1.3243 C   0  0  0  1  0  0  0  0  0  0  0  0
   -0.3370   -2.7410   -3.5554 C   0  0  0  1  0  0  0  0  0  0  0  0
    0.4167   -1.4823   -1.2718 N   0  0  0  1  0  0  0  0  0  0  0  0
    3.1117    0.2629   -1.8146 C   0  0  0  1  0  0  0  0  0  0  0  0
    3.5357    1.4891   -2.2908 C   0  0  0  1  0  0  0  0  0  0  0  0
    4.4174    0.5799    0.1708 C   0  0  0  1  0  0  0  0  0  0  0  0
    3.5552   -0.1936   -0.5832 C   0  0  0  1  0  0  0  0  0  0  0  0
    4.8428    1.8098   -0.3067 C   0  0  0  1  0  0  0  0  0  0  0  0
    4.4004    2.2648   -1.5345 C   0  0  0  1  0  0  0  0  0  0  0  0
   -1.0617   -1.8259    1.0763 C   0  0  0  1  0  0  0  0  0  0  0  0
   -1.7260   -2.5831    2.1885 C   0  0  0  1  0  0  0  0  0  0  0  0
   -3.1640   -1.9943    2.1533 C   0  0  0  1  0  0  0  0  0  0  0  0
   -3.8641    0.3666    1.8374 C   0  0  0  1  0  0  0  0  0  0  0  0
   -1.0196   -2.8714   -2.4324 N   0  0  0  1  0  0  0  0  0  0  0  0
    0.8034   -1.9297   -3.5565 C   0  0  0  1  0  0  0  0  0  0  0  0
    1.1643   -1.2919   -2.3519 C   0  0  0  1  0  0  0  0  0  0  0  0
    2.2955   -0.5749   -2.6283 N   0  0  0  1  0  0  0  0  0  0  0  0
    1.7115   -1.5805   -4.4937 N   0  0  0  1  0  0  0  0  0  0  0  0
    2.5920   -0.7926   -3.9822 N   0  0  0  1  0  0  0  0  0  0  0  0
    5.6901    2.6130    0.3795 O   0  0  0  1  0  0  0  0  0  0  0  0
   -1.3840   -2.4266   -0.2063 N   0  0  0  1  0  0  0  0  0  0  0  0
    5.8008    3.9764   -0.0581 C   0  0  0  1  0  0  0  0  0  0  0  0
   -2.9198   -0.6434    1.7194 N   0  0  0  1  0  0  0  0  0  0  0  0
   -1.6035   -0.4266    1.1485 C   0  0  0  1  0  0  0  0  0  0  0  0
   -4.7227    0.7192    0.8126 C   0  0  0  1  0  0  0  0  0  0  0  0
   -5.6322    1.7370    1.0281 C   0  0  0  1  0  0  0  0  0  0  0  0
   -5.7262    2.4066    2.1809 N   0  0  0  1  0  0  0  0  0  0  0  0
   -4.8848    2.0573    3.1643 C   0  0  0  1  0  0  0  0  0  0  0  0
   -3.9463    1.0484    3.0358 C   0  0  0  1  0  0  0  0  0  0  0  0
   -0.6407   -3.2309   -4.4210 H   0  0  0  1  0  0  0  0  0  0  0  0
    3.2060    1.8298   -3.2165 H   0  0  0  1  0  0  0  0  0  0  0  0
    4.7471    0.2392    1.0965 H   0  0  0  1  0  0  0  0  0  0  0  0
    3.2392   -1.1181   -0.2267 H   0  0  0  1  0  0  0  0  0  0  0  0
    4.7164    3.1893   -1.8910 H   0  0  0  1  0  0  0  0  0  0  0  0
   -0.0003   -1.8212    1.2118 H   0  0  0  1  0  0  0  0  0  0  0  0
   -1.7305   -3.6356    1.9957 H   0  0  0  1  0  0  0  0  0  0  0  0
   -1.2499   -2.3941    3.1280 H   0  0  0  1  0  0  0  0  0  0  0  0
   -3.7832   -2.5207    1.4574 H   0  0  0  1  0  0  0  0  0  0  0  0
   -3.6174   -2.0160    3.1223 H   0  0  0  1  0  0  0  0  0  0  0  0
   -2.1842   -2.9895   -0.2637 H   0  0  0  1  0  0  0  0  0  0  0  0
    4.8240    4.3732   -0.2411 H   0  0  0  1  0  0  0  0  0  0  0  0
    6.3761    4.0159   -0.9594 H   0  0  0  1  0  0  0  0  0  0  0  0
    6.2846    4.5559    0.7001 H   0  0  0  1  0  0  0  0  0  0  0  0
   -1.0019    0.1912    1.7819 H   0  0  0  1  0  0  0  0  0  0  0  0
   -1.6694    0.0156    0.1763 H   0  0  0  1  0  0  0  0  0  0  0  0
   -4.6847    0.2277   -0.1031 H   0  0  0  1  0  0  0  0  0  0  0  0
   -6.2765    1.9951    0.2536 H   0  0  0  1  0  0  0  0  0  0  0  0
   -4.9400    2.5694    4.0678 H   0  0  0  1  0  0  0  0  0  0  0  0
   -3.3149    0.8081    3.8265 H   0  0  0  1  0  0  0  0  0  0  0  0
  1  3  4  0  0  0  0
  1 14  4  0  0  0  0
  1 21  1  0  0  0  0
  2 14  4  0  0  0  0
  2 15  4  0  0  0  0
  2 30  1  0  0  0  0
  3 16  4  0  0  0  0
  4  5  4  0  0  0  0
  4  7  4  0  0  0  0
  4 17  1  0  0  0  0
  5  9  4  0  0  0  0
  5 31  1  0  0  0  0
  6  7  4  0  0  0  0
  6  8  4  0  0  0  0
  6 32  1  0  0  0  0
  7 33  1  0  0  0  0
  8  9  4  0  0  0  0
  8 20  1  0  0  0  0
  9 34  1  0  0  0  0
 10 11  1  0  0  0  0
 10 21  1  0  0  0  0
 10 24  1  0  0  0  0
 10 35  1  0  0  0  0
 11 12  1  0  0  0  0
 11 36  1  0  0  0  0
 11 37  1  0  0  0  0
 12 23  1  0  0  0  0
 12 38  1  0  0  0  0
 12 39  1  0  0  0  0
 13 23  1  0  0  0  0
 13 25  4  0  0  0  0
 13 29  4  0  0  0  0
 15 16  4  0  0  0  0
 15 18  4  0  0  0  0
 16 17  4  0  0  0  0
 17 19  4  0  0  0  0
 18 19  4  0  0  0  0
 20 22  1  0  0  0  0
 21 40  1  0  0  0  0
 22 41  1  0  0  0  0
 22 42  1  0  0  0  0
 22 43  1  0  0  0  0
 23 24  1  0  0  0  0
 24 44  1  0  0  0  0
 24 45  1  0  0  0  0
 25 26  4  0  0  0  0
 25 46  1  0  0  0  0
 26 27  4  0  0  0  0
 26 47  1  0  0  0  0
 27 28  4  0  0  0  0
 28 29  4  0  0  0  0
 28 48  1  0  0  0  0
 29 49  1  0  0  0  0
M  END
> <ConfClashScore>
0 

> <ConfOneFourInteractionScore>
-0.986948 

> <ConfScore>
-0.046169 

> <ConfScorePBest>
0.00499269 

> <ConfTolerance>
0.553972 

> <HETNAM>
     OWQ A 303  OWQ                                                       

> <pdb_OW>
Q_303 -16.5129 3.80749 7.62812 0.15963 1.39178 -0.28144 -3.20151 0 0 0 -1.30514 0 0 0 0 0 0 0 0 -8.31393

$$$$
6yky_lig_1.pdb
 OpenBabel04162415593D

 49 53  0  0  0  0  0  0  0  0999 V2000
    1.9831   -0.0279    0.5791 C   0  0  0  1  0  0  0  0  0  0  0  0
    3.8665    0.6733   -0.5481 C   0  0  0  1  0  0  0  0  0  0  0  0
    1.4464   -0.5547   -0.5004 N   0  0  0  1  0  0  0  0  0  0  0  0
    0.6649   -1.5429   -3.5151 C   0  0  0  1  0  0  0  0  0  0  0  0
    0.7397   -2.8322   -4.0072 C   0  0  0  1  0  0  0  0  0  0  0  0
   -1.5885   -1.3663   -4.3141 C   0  0  0  1  0  0  0  0  0  0  0  0
   -0.5000   -0.8078   -3.6710 C   0  0  0  1  0  0  0  0  0  0  0  0
   -1.5136   -2.6595   -4.8077 C   0  0  0  1  0  0  0  0  0  0  0  0
   -0.3521   -3.3922   -4.6521 C   0  0  0  1  0  0  0  0  0  0  0  0
    1.6699    0.4560    3.0461 C   0  0  0  1  0  0  0  0  0  0  0  0
    0.9722   -0.2977    4.1728 C   0  0  0  1  0  0  0  0  0  0  0  0
   -0.4421    0.2966    4.1987 C   0  0  0  1  0  0  0  0  0  0  0  0
   -1.2476    2.6189    3.5983 C   0  0  0  1  0  0  0  0  0  0  0  0
    3.1608    0.5715    0.5635 N   0  0  0  1  0  0  0  0  0  0  0  0
    3.3429    0.1300   -1.7268 C   0  0  0  1  0  0  0  0  0  0  0  0
    2.0831   -0.5003   -1.6638 C   0  0  0  1  0  0  0  0  0  0  0  0
    1.8137   -0.9339   -2.9324 N   0  0  0  1  0  0  0  0  0  0  0  0
    3.7760    0.0541   -3.0042 N   0  0  0  1  0  0  0  0  0  0  0  0
    2.9066   -0.5599   -3.7286 N   0  0  0  1  0  0  0  0  0  0  0  0
   -2.6384   -3.0969   -5.4221 O   0  0  0  1  0  0  0  0  0  0  0  0
    1.3099   -0.1013    1.7414 N   0  0  0  1  0  0  0  0  0  0  0  0
   -2.6612   -4.4673   -5.8510 C   0  0  0  1  0  0  0  0  0  0  0  0
   -0.2425    1.6545    3.6612 N   0  0  0  1  0  0  0  0  0  0  0  0
    1.1428    1.8794    3.1962 C   0  0  0  1  0  0  0  0  0  0  0  0
   -2.0573    2.7213    2.4822 C   0  0  0  1  0  0  0  0  0  0  0  0
   -3.0438    3.6887    2.4633 C   0  0  0  1  0  0  0  0  0  0  0  0
   -3.2580    4.5397    3.4713 N   0  0  0  1  0  0  0  0  0  0  0  0
   -2.4628    4.4320    4.5453 C   0  0  0  1  0  0  0  0  0  0  0  0
   -1.4538    3.4906    4.6496 C   0  0  0  1  0  0  0  0  0  0  0  0
    4.7921    1.1474   -0.5477 H   0  0  0  1  0  0  0  0  0  0  0  0
    1.6151   -3.3822   -3.8937 H   0  0  0  1  0  0  0  0  0  0  0  0
   -2.4639   -0.8163   -4.4276 H   0  0  0  1  0  0  0  0  0  0  0  0
   -0.5548    0.1638   -3.3042 H   0  0  0  1  0  0  0  0  0  0  0  0
   -0.2972   -4.3638   -5.0189 H   0  0  0  1  0  0  0  0  0  0  0  0
    2.7327    0.4263    3.1662 H   0  0  0  1  0  0  0  0  0  0  0  0
    0.9397   -1.3468    3.9650 H   0  0  0  1  0  0  0  0  0  0  0  0
    1.4705   -0.1335    5.1053 H   0  0  0  1  0  0  0  0  0  0  0  0
   -1.1074   -0.2678    3.5794 H   0  0  0  1  0  0  0  0  0  0  0  0
   -0.8261    0.3311    5.1969 H   0  0  0  1  0  0  0  0  0  0  0  0
    0.4637   -0.5947    1.7104 H   0  0  0  1  0  0  0  0  0  0  0  0
   -2.6151   -5.1098   -4.9966 H   0  0  0  1  0  0  0  0  0  0  0  0
   -1.8202   -4.6564   -6.4849 H   0  0  0  1  0  0  0  0  0  0  0  0
   -3.5653   -4.6567   -6.3911 H   0  0  0  1  0  0  0  0  0  0  0  0
    1.7098    2.4283    3.9189 H   0  0  0  1  0  0  0  0  0  0  0  0
    1.1581    2.3989    2.2609 H   0  0  0  1  0  0  0  0  0  0  0  0
   -1.9263    2.0822    1.6722 H   0  0  0  1  0  0  0  0  0  0  0  0
   -3.6506    3.7582    1.6215 H   0  0  0  1  0  0  0  0  0  0  0  0
   -2.6115    5.0879    5.3386 H   0  0  0  1  0  0  0  0  0  0  0  0
   -0.8621    3.4404    5.5034 H   0  0  0  1  0  0  0  0  0  0  0  0
  1  3  4  0  0  0  0
  1 14  4  0  0  0  0
  1 21  1  0  0  0  0
  2 14  4  0  0  0  0
  2 15  4  0  0  0  0
  2 30  1  0  0  0  0
  3 16  4  0  0  0  0
  4  5  4  0  0  0  0
  4  7  4  0  0  0  0
  4 17  1  0  0  0  0
  5  9  4  0  0  0  0
  5 31  1  0  0  0  0
  6  7  4  0  0  0  0
  6  8  4  0  0  0  0
  6 32  1  0  0  0  0
  7 33  1  0  0  0  0
  8  9  4  0  0  0  0
  8 20  1  0  0  0  0
  9 34  1  0  0  0  0
 10 11  1  0  0  0  0
 10 21  1  0  0  0  0
 10 24  1  0  0  0  0
 10 35  1  0  0  0  0
 11 12  1  0  0  0  0
 11 36  1  0  0  0  0
 11 37  1  0  0  0  0
 12 23  1  0  0  0  0
 12 38  1  0  0  0  0
 12 39  1  0  0  0  0
 13 23  1  0  0  0  0
 13 25  4  0  0  0  0
 13 29  4  0  0  0  0
 15 16  4  0  0  0  0
 15 18  4  0  0  0  0
 16 17  4  0  0  0  0
 17 19  4  0  0  0  0
 18 19  4  0  0  0  0
 20 22  1  0  0  0  0
 21 40  1  0  0  0  0
 22 41  1  0  0  0  0
 22 42  1  0  0  0  0
 22 43  1  0  0  0  0
 23 24  1  0  0  0  0
 24 44  1  0  0  0  0
 24 45  1  0  0  0  0
 25 26  4  0  0  0  0
 25 46  1  0  0  0  0
 26 27  4  0  0  0  0
 26 47  1  0  0  0  0
 27 28  4  0  0  0  0
 28 29  4  0  0  0  0
 28 48  1  0  0  0  0
 29 49  1  0  0  0  0
M  END
> <ConfClashScore>
0 

> <ConfOneFourInteractionScore>
-0.986948 

> <ConfScore>
-0.046169 

> <ConfScorePBest>
0.00497936 

> <ConfTolerance>
0.564893 

> <HETNAM>
     OWQ A 303  OWQ                                                       

> <pdb_OW>
Q_303 -16.5129 3.80749 7.62812 0.15963 1.39178 -0.28144 -3.20151 0 0 0 -1.30514 0 0 0 0 0 0 0 0 -8.31393

$$$$
6yky_lig_1.pdb
 OpenBabel04162415593D

 49 53  0  0  0  0  0  0  0  0999 V2000
    1.5848   -0.0032    0.8157 C   0  0  0  1  0  0  0  0  0  0  0  0
    3.2870    1.3762    0.1021 C   0  0  0  1  0  0  0  0  0  0  0  0
    1.4705   -0.5876   -0.3574 N   0  0  0  1  0  0  0  0  0  0  0  0
    1.6463   -1.5269   -3.4819 C   0  0  0  1  0  0  0  0  0  0  0  0
    1.2191   -1.0802   -4.7181 C   0  0  0  1  0  0  0  0  0  0  0  0
    0.4768   -3.5919   -3.8213 C   0  0  0  1  0  0  0  0  0  0  0  0
    1.2725   -2.7834   -3.0316 C   0  0  0  1  0  0  0  0  0  0  0  0
    0.0482   -3.1441   -5.0613 C   0  0  0  1  0  0  0  0  0  0  0  0
    0.4211   -1.8911   -5.5100 C   0  0  0  1  0  0  0  0  0  0  0  0
    0.9130    0.1220    3.1790 C   0  0  0  1  0  0  0  0  0  0  0  0
    0.1182   -0.7038    4.1476 C   0  0  0  1  0  0  0  0  0  0  0  0
   -1.3088   -0.1159    3.9634 C   0  0  0  1  0  0  0  0  0  0  0  0
   -2.0030    2.2784    3.7068 C   0  0  0  1  0  0  0  0  0  0  0  0
    2.4668    0.9535    1.0469 N   0  0  0  1  0  0  0  0  0  0  0  0
    3.2088    0.7889   -1.1658 C   0  0  0  1  0  0  0  0  0  0  0  0
    2.2531   -0.2281   -1.3675 C   0  0  0  1  0  0  0  0  0  0  0  0
    2.3879   -0.6202   -2.6706 N   0  0  0  1  0  0  0  0  0  0  0  0
    3.8695    0.9675   -2.3305 N   0  0  0  1  0  0  0  0  0  0  0  0
    3.4132    0.1611   -3.2244 N   0  0  0  1  0  0  0  0  0  0  0  0
   -0.7362   -3.8839   -5.8805 O   0  0  0  1  0  0  0  0  0  0  0  0
    0.7640   -0.3981    1.8313 N   0  0  0  1  0  0  0  0  0  0  0  0
   -1.3660   -3.2030   -6.9770 C   0  0  0  1  0  0  0  0  0  0  0  0
   -1.0235    1.2597    3.6486 N   0  0  0  1  0  0  0  0  0  0  0  0
    0.3533    1.5134    3.2667 C   0  0  0  1  0  0  0  0  0  0  0  0
   -1.6585    3.6004    3.4937 C   0  0  0  1  0  0  0  0  0  0  0  0
   -2.6477    4.5633    3.5560 C   0  0  0  1  0  0  0  0  0  0  0  0
   -3.9288    4.2851    3.8159 N   0  0  0  1  0  0  0  0  0  0  0  0
   -4.2479    2.9998    4.0247 C   0  0  0  1  0  0  0  0  0  0  0  0
   -3.3223    1.9720    3.9776 C   0  0  0  1  0  0  0  0  0  0  0  0
    3.9768    2.1299    0.2962 H   0  0  0  1  0  0  0  0  0  0  0  0
    1.4963   -0.1358   -5.0541 H   0  0  0  1  0  0  0  0  0  0  0  0
    0.1996   -4.5362   -3.4853 H   0  0  0  1  0  0  0  0  0  0  0  0
    1.5907   -3.1178   -2.0997 H   0  0  0  1  0  0  0  0  0  0  0  0
    0.1029   -1.5567   -6.4420 H   0  0  0  1  0  0  0  0  0  0  0  0
    1.9480    0.1197    3.4503 H   0  0  0  1  0  0  0  0  0  0  0  0
    0.1483   -1.7423    3.8914 H   0  0  0  1  0  0  0  0  0  0  0  0
    0.4677   -0.5730    5.1504 H   0  0  0  1  0  0  0  0  0  0  0  0
   -1.8828   -0.1985    4.8626 H   0  0  0  1  0  0  0  0  0  0  0  0
   -1.8284   -0.5988    3.1624 H   0  0  0  1  0  0  0  0  0  0  0  0
    0.0555   -1.0495    1.6465 H   0  0  0  1  0  0  0  0  0  0  0  0
   -2.0355   -2.4591   -6.5984 H   0  0  0  1  0  0  0  0  0  0  0  0
   -1.9134   -3.9079   -7.5672 H   0  0  0  1  0  0  0  0  0  0  0  0
   -0.6183   -2.7346   -7.5824 H   0  0  0  1  0  0  0  0  0  0  0  0
    0.4089    2.0151    2.3232 H   0  0  0  1  0  0  0  0  0  0  0  0
    0.8626    2.0914    4.0092 H   0  0  0  1  0  0  0  0  0  0  0  0
   -0.6735    3.8651    3.2905 H   0  0  0  1  0  0  0  0  0  0  0  0
   -2.3817    5.5553    3.3922 H   0  0  0  1  0  0  0  0  0  0  0  0
   -5.2393    2.7637    4.2322 H   0  0  0  1  0  0  0  0  0  0  0  0
   -3.6146    0.9877    4.1429 H   0  0  0  1  0  0  0  0  0  0  0  0
  1  3  4  0  0  0  0
  1 14  4  0  0  0  0
  1 21  1  0  0  0  0
  2 14  4  0  0  0  0
  2 15  4  0  0  0  0
  2 30  1  0  0  0  0
  3 16  4  0  0  0  0
  4  5  4  0  0  0  0
  4  7  4  0  0  0  0
  4 17  1  0  0  0  0
  5  9  4  0  0  0  0
  5 31  1  0  0  0  0
  6  7  4  0  0  0  0
  6  8  4  0  0  0  0
  6 32  1  0  0  0  0
  7 33  1  0  0  0  0
  8  9  4  0  0  0  0
  8 20  1  0  0  0  0
  9 34  1  0  0  0  0
 10 11  1  0  0  0  0
 10 21  1  0  0  0  0
 10 24  1  0  0  0  0
 10 35  1  0  0  0  0
 11 12  1  0  0  0  0
 11 36  1  0  0  0  0
 11 37  1  0  0  0  0
 12 23  1  0  0  0  0
 12 38  1  0  0  0  0
 12 39  1  0  0  0  0
 13 23  1  0  0  0  0
 13 25  4  0  0  0  0
 13 29  4  0  0  0  0
 15 16  4  0  0  0  0
 15 18  4  0  0  0  0
 16 17  4  0  0  0  0
 17 19  4  0  0  0  0
 18 19  4  0  0  0  0
 20 22  1  0  0  0  0
 21 40  1  0  0  0  0
 22 41  1  0  0  0  0
 22 42  1  0  0  0  0
 22 43  1  0  0  0  0
 23 24  1  0  0  0  0
 24 44  1  0  0  0  0
 24 45  1  0  0  0  0
 25 26  4  0  0  0  0
 25 46  1  0  0  0  0
 26 27  4  0  0  0  0
 26 47  1  0  0  0  0
 27 28  4  0  0  0  0
 28 29  4  0  0  0  0
 28 48  1  0  0  0  0
 29 49  1  0  0  0  0
M  END
> <ConfClashScore>
0 

> <ConfOneFourInteractionScore>
-0.984874 

> <ConfScore>
-0.0457908 

> <ConfScorePBest>
0.00496604 

> <ConfTolerance>
0.534843 

> <HETNAM>
     OWQ A 303  OWQ                                                       

> <pdb_OW>
Q_303 -16.5129 3.80749 7.62812 0.15963 1.39178 -0.28144 -3.20151 0 0 0 -1.30514 0 0 0 0 0 0 0 0 -8.31393

$$$$
6yky_lig_1.pdb
 OpenBabel04162415593D

 49 53  0  0  0  0  0  0  0  0999 V2000
    1.1791   -0.1446    1.0891 C   0  0  0  1  0  0  0  0  0  0  0  0
    3.1697   -0.5227    2.1865 C   0  0  0  1  0  0  0  0  0  0  0  0
    1.6109   -0.6857   -0.0296 N   0  0  0  1  0  0  0  0  0  0  0  0
    3.3107   -2.1412   -2.4418 C   0  0  0  1  0  0  0  0  0  0  0  0
    3.9677   -1.4933   -3.4708 C   0  0  0  1  0  0  0  0  0  0  0  0
    2.0032   -3.3589   -4.0402 C   0  0  0  1  0  0  0  0  0  0  0  0
    2.3252   -3.0734   -2.7267 C   0  0  0  1  0  0  0  0  0  0  0  0
    2.6620   -2.7092   -5.0724 C   0  0  0  1  0  0  0  0  0  0  0  0
    3.6447   -1.7797   -4.7880 C   0  0  0  1  0  0  0  0  0  0  0  0
   -0.6913    0.8946    2.3305 C   0  0  0  1  0  0  0  0  0  0  0  0
   -1.6970   -0.1013    2.9498 C   0  0  0  1  0  0  0  0  0  0  0  0
   -2.8986    0.6893    3.4025 C   0  0  0  1  0  0  0  0  0  0  0  0
   -3.5805    3.0600    2.6992 C   0  0  0  1  0  0  0  0  0  0  0  0
    1.9322   -0.0617    2.1719 N   0  0  0  1  0  0  0  0  0  0  0  0
    3.6805   -1.1088    1.0228 C   0  0  0  1  0  0  0  0  0  0  0  0
    2.8419   -1.1760   -0.1087 C   0  0  0  1  0  0  0  0  0  0  0  0
    3.5773   -1.7839   -1.0884 N   0  0  0  1  0  0  0  0  0  0  0  0
    4.8647   -1.6670    0.6894 N   0  0  0  1  0  0  0  0  0  0  0  0
    4.8338   -2.0688   -0.5334 N   0  0  0  1  0  0  0  0  0  0  0  0
    2.3429   -2.9851   -6.3592 O   0  0  0  1  0  0  0  0  0  0  0  0
   -0.0787    0.3441    1.1340 N   0  0  0  1  0  0  0  0  0  0  0  0
    1.2719   -3.9149   -6.5848 C   0  0  0  1  0  0  0  0  0  0  0  0
   -2.6760    2.0250    2.6600 N   0  0  0  1  0  0  0  0  0  0  0  0
   -1.5655    2.0876    1.9975 C   0  0  0  1  0  0  0  0  0  0  0  0
   -3.4846    4.0435    3.6663 C   0  0  0  1  0  0  0  0  0  0  0  0
   -4.4123    5.0678    3.6668 C   0  0  0  1  0  0  0  0  0  0  0  0
   -5.4068    5.1590    2.7786 N   0  0  0  1  0  0  0  0  0  0  0  0
   -5.4904    4.1964    1.8494 C   0  0  0  1  0  0  0  0  0  0  0  0
   -4.6025    3.1374    1.7734 C   0  0  0  1  0  0  0  0  0  0  0  0
    3.7525   -0.4516    3.0448 H   0  0  0  1  0  0  0  0  0  0  0  0
    4.7043   -0.7910   -3.2568 H   0  0  0  1  0  0  0  0  0  0  0  0
    1.2666   -4.0612   -4.2541 H   0  0  0  1  0  0  0  0  0  0  0  0
    1.8281   -3.5579   -1.9523 H   0  0  0  1  0  0  0  0  0  0  0  0
    4.1418   -1.2952   -5.5624 H   0  0  0  1  0  0  0  0  0  0  0  0
    0.0713    1.1594    3.0328 H   0  0  0  1  0  0  0  0  0  0  0  0
   -1.2509   -0.5982    3.7859 H   0  0  0  1  0  0  0  0  0  0  0  0
   -1.9907   -0.8255    2.2190 H   0  0  0  1  0  0  0  0  0  0  0  0
   -3.8122    0.2209    3.1012 H   0  0  0  1  0  0  0  0  0  0  0  0
   -2.9006    0.8263    4.4637 H   0  0  0  1  0  0  0  0  0  0  0  0
   -0.6099    0.3264    0.3106 H   0  0  0  1  0  0  0  0  0  0  0  0
    1.2199   -4.1539   -7.6264 H   0  0  0  1  0  0  0  0  0  0  0  0
    0.3472   -3.4758   -6.2733 H   0  0  0  1  0  0  0  0  0  0  0  0
    1.4506   -4.8076   -6.0227 H   0  0  0  1  0  0  0  0  0  0  0  0
   -1.0491    2.9879    2.2572 H   0  0  0  1  0  0  0  0  0  0  0  0
   -1.7789    2.0879    0.9490 H   0  0  0  1  0  0  0  0  0  0  0  0
   -2.7286    4.0130    4.3798 H   0  0  0  1  0  0  0  0  0  0  0  0
   -4.3325    5.8054    4.3957 H   0  0  0  1  0  0  0  0  0  0  0  0
   -6.2599    4.2478    1.1516 H   0  0  0  1  0  0  0  0  0  0  0  0
   -4.7030    2.4138    1.0332 H   0  0  0  1  0  0  0  0  0  0  0  0
  1  3  4  0  0  0  0
  1 14  4  0  0  0  0
  1 21  1  0  0  0  0
  2 14  4  0  0  0  0
  2 15  4  0  0  0  0
  2 30  1  0  0  0  0
  3 16  4  0  0  0  0
  4  5  4  0  0  0  0
  4  7  4  0  0  0  0
  4 17  1  0  0  0  0
  5  9  4  0  0  0  0
  5 31  1  0  0  0  0
  6  7  4  0  0  0  0
  6  8  4  0  0  0  0
  6 32  1  0  0  0  0
  7 33  1  0  0  0  0
  8  9  4  0  0  0  0
  8 20  1  0  0  0  0
  9 34  1  0  0  0  0
 10 11  1  0  0  0  0
 10 21  1  0  0  0  0
 10 24  1  0  0  0  0
 10 35  1  0  0  0  0
 11 12  1  0  0  0  0
 11 36  1  0  0  0  0
 11 37  1  0  0  0  0
 12 23  1  0  0  0  0
 12 38  1  0  0  0  0
 12 39  1  0  0  0  0
 13 23  1  0  0  0  0
 13 25  4  0  0  0  0
 13 29  4  0  0  0  0
 15 16  4  0  0  0  0
 15 18  4  0  0  0  0
 16 17  4  0  0  0  0
 17 19  4  0  0  0  0
 18 19  4  0  0  0  0
 20 22  1  0  0  0  0
 21 40  1  0  0  0  0
 22 41  1  0  0  0  0
 22 42  1  0  0  0  0
 22 43  1  0  0  0  0
 23 24  1  0  0  0  0
 24 44  1  0  0  0  0
 24 45  1  0  0  0  0
 25 26  4  0  0  0  0
 25 46  1  0  0  0  0
 26 27  4  0  0  0  0
 26 47  1  0  0  0  0
 27 28  4  0  0  0  0
 28 29  4  0  0  0  0
 28 48  1  0  0  0  0
 29 49  1  0  0  0  0
M  END
> <ConfClashScore>
0 

> <ConfOneFourInteractionScore>
-0.986948 

> <ConfScore>
-0.0457335 

> <ConfScorePBest>
0.00495271 

> <ConfTolerance>
0.393711 

> <HETNAM>
     OWQ A 303  OWQ                                                       

> <pdb_OW>
Q_303 -16.5129 3.80749 7.62812 0.15963 1.39178 -0.28144 -3.20151 0 0 0 -1.30514 0 0 0 0 0 0 0 0 -8.31393

$$$$
6yky_lig_1.pdb
 OpenBabel04162415593D

 49 53  0  0  0  0  0  0  0  0999 V2000
    0.8658   -0.0438    0.9367 C   0  0  0  1  0  0  0  0  0  0  0  0
    2.7581    0.4540    2.1535 C   0  0  0  1  0  0  0  0  0  0  0  0
    1.5561   -0.5296   -0.0725 N   0  0  0  1  0  0  0  0  0  0  0  0
    3.8146   -1.5680   -2.1758 C   0  0  0  1  0  0  0  0  0  0  0  0
    2.6336   -2.1175   -2.6379 C   0  0  0  1  0  0  0  0  0  0  0  0
    4.9428   -2.3267   -4.1504 C   0  0  0  1  0  0  0  0  0  0  0  0
    4.9715   -1.6750   -2.9319 C   0  0  0  1  0  0  0  0  0  0  0  0
    3.7583   -2.8778   -4.6140 C   0  0  0  1  0  0  0  0  0  0  0  0
    2.6049   -2.7710   -3.8600 C   0  0  0  1  0  0  0  0  0  0  0  0
   -1.3486    0.4937    1.8996 C   0  0  0  1  0  0  0  0  0  0  0  0
   -2.4150   -0.5440    2.3468 C   0  0  0  1  0  0  0  0  0  0  0  0
   -3.6418    0.2416    2.8557 C   0  0  0  1  0  0  0  0  0  0  0  0
   -4.1956    2.7299    2.5977 C   0  0  0  1  0  0  0  0  0  0  0  0
    1.4440    0.4368    2.0235 N   0  0  0  1  0  0  0  0  0  0  0  0
    3.5418   -0.0508    1.1096 C   0  0  0  1  0  0  0  0  0  0  0  0
    2.8826   -0.5534   -0.0310 C   0  0  0  1  0  0  0  0  0  0  0  0
    3.8671   -0.9753   -0.8811 N   0  0  0  1  0  0  0  0  0  0  0  0
    4.8708   -0.1859    0.9080 N   0  0  0  1  0  0  0  0  0  0  0  0
    5.0900   -0.7210   -0.2423 N   0  0  0  1  0  0  0  0  0  0  0  0
    3.8544   -3.5015   -5.8283 O   0  0  0  1  0  0  0  0  0  0  0  0
   -0.4822   -0.0352    0.8605 N   0  0  0  1  0  0  0  0  0  0  0  0
    2.6695   -4.2363   -6.1727 C   0  0  0  1  0  0  0  0  0  0  0  0
   -3.4189    1.6021    2.2898 N   0  0  0  1  0  0  0  0  0  0  0  0
   -2.2740    1.6036    1.3645 C   0  0  0  1  0  0  0  0  0  0  0  0
   -5.1721    3.1738    1.7254 C   0  0  0  1  0  0  0  0  0  0  0  0
   -5.8512    4.3393    2.0254 C   0  0  0  1  0  0  0  0  0  0  0  0
   -5.6120    5.0684    3.1196 N   0  0  0  1  0  0  0  0  0  0  0  0
   -4.6596    4.6286    3.9544 C   0  0  0  1  0  0  0  0  0  0  0  0
   -3.9340    3.4710    3.7335 C   0  0  0  1  0  0  0  0  0  0  0  0
    3.2015    0.8348    3.0137 H   0  0  0  1  0  0  0  0  0  0  0  0
    1.7665   -2.0407   -2.0688 H   0  0  0  1  0  0  0  0  0  0  0  0
    5.8098   -2.4035   -4.7195 H   0  0  0  1  0  0  0  0  0  0  0  0
    5.8610   -1.2650   -2.5822 H   0  0  0  1  0  0  0  0  0  0  0  0
    1.7154   -3.1810   -4.2096 H   0  0  0  1  0  0  0  0  0  0  0  0
   -0.7540    0.8332    2.7218 H   0  0  0  1  0  0  0  0  0  0  0  0
   -2.6943   -1.1609    1.5184 H   0  0  0  1  0  0  0  0  0  0  0  0
   -2.0223   -1.1562    3.1316 H   0  0  0  1  0  0  0  0  0  0  0  0
   -4.5520   -0.1844    2.4881 H   0  0  0  1  0  0  0  0  0  0  0  0
   -3.6662    0.2681    3.9251 H   0  0  0  1  0  0  0  0  0  0  0  0
   -0.9010   -0.4079    0.0567 H   0  0  0  1  0  0  0  0  0  0  0  0
    1.8729   -3.5526   -6.3802 H   0  0  0  1  0  0  0  0  0  0  0  0
    2.3923   -4.8690   -5.3555 H   0  0  0  1  0  0  0  0  0  0  0  0
    2.8603   -4.8347   -7.0390 H   0  0  0  1  0  0  0  0  0  0  0  0
   -2.5929    1.3827    0.3673 H   0  0  0  1  0  0  0  0  0  0  0  0
   -1.7767    2.5509    1.3788 H   0  0  0  1  0  0  0  0  0  0  0  0
   -5.3914    2.6407    0.8598 H   0  0  0  1  0  0  0  0  0  0  0  0
   -6.5861    4.6659    1.3659 H   0  0  0  1  0  0  0  0  0  0  0  0
   -4.4561    5.1844    4.8096 H   0  0  0  1  0  0  0  0  0  0  0  0
   -3.2057    3.1650    4.4099 H   0  0  0  1  0  0  0  0  0  0  0  0
  1  3  4  0  0  0  0
  1 14  4  0  0  0  0
  1 21  1  0  0  0  0
  2 14  4  0  0  0  0
  2 15  4  0  0  0  0
  2 30  1  0  0  0  0
  3 16  4  0  0  0  0
  4  5  4  0  0  0  0
  4  7  4  0  0  0  0
  4 17  1  0  0  0  0
  5  9  4  0  0  0  0
  5 31  1  0  0  0  0
  6  7  4  0  0  0  0
  6  8  4  0  0  0  0
  6 32  1  0  0  0  0
  7 33  1  0  0  0  0
  8  9  4  0  0  0  0
  8 20  1  0  0  0  0
  9 34  1  0  0  0  0
 10 11  1  0  0  0  0
 10 21  1  0  0  0  0
 10 24  1  0  0  0  0
 10 35  1  0  0  0  0
 11 12  1  0  0  0  0
 11 36  1  0  0  0  0
 11 37  1  0  0  0  0
 12 23  1  0  0  0  0
 12 38  1  0  0  0  0
 12 39  1  0  0  0  0
 13 23  1  0  0  0  0
 13 25  4  0  0  0  0
 13 29  4  0  0  0  0
 15 16  4  0  0  0  0
 15 18  4  0  0  0  0
 16 17  4  0  0  0  0
 17 19  4  0  0  0  0
 18 19  4  0  0  0  0
 20 22  1  0  0  0  0
 21 40  1  0  0  0  0
 22 41  1  0  0  0  0
 22 42  1  0  0  0  0
 22 43  1  0  0  0  0
 23 24  1  0  0  0  0
 24 44  1  0  0  0  0
 24 45  1  0  0  0  0
 25 26  4  0  0  0  0
 25 46  1  0  0  0  0
 26 27  4  0  0  0  0
 26 47  1  0  0  0  0
 27 28  4  0  0  0  0
 28 29  4  0  0  0  0
 28 48  1  0  0  0  0
 29 49  1  0  0  0  0
M  END
> <ConfClashScore>
0 

> <ConfOneFourInteractionScore>
-0.986948 

> <ConfScore>
-0.0456287 

> <ConfScorePBest>
0.00493938 

> <ConfTolerance>
0.3385 

> <HETNAM>
     OWQ A 303  OWQ                                                       

> <pdb_OW>
Q_303 -16.5129 3.80749 7.62812 0.15963 1.39178 -0.28144 -3.20151 0 0 0 -1.30514 0 0 0 0 0 0 0 0 -8.31393

$$$$
6yky_lig_1.pdb
 OpenBabel04162415593D

 49 53  0  0  0  0  0  0  0  0999 V2000
    1.0113   -2.2963   -2.0388 C   0  0  0  1  0  0  0  0  0  0  0  0
    2.9747   -2.8805   -3.0940 C   0  0  0  1  0  0  0  0  0  0  0  0
    1.6236   -1.5095   -1.1804 N   0  0  0  1  0  0  0  0  0  0  0  0
    3.7093    0.3111    0.5417 C   0  0  0  1  0  0  0  0  0  0  0  0
    2.4940    0.9600    0.6518 C   0  0  0  1  0  0  0  0  0  0  0  0
    4.5930    1.6603    2.3153 C   0  0  0  1  0  0  0  0  0  0  0  0
    4.7612    0.6635    1.3728 C   0  0  0  1  0  0  0  0  0  0  0  0
    3.3741    2.3112    2.4260 C   0  0  0  1  0  0  0  0  0  0  0  0
    2.3254    1.9597    1.5971 C   0  0  0  1  0  0  0  0  0  0  0  0
   -1.1978   -1.9365   -0.9748 C   0  0  0  1  0  0  0  0  0  0  0  0
   -2.2640   -2.9745   -0.5277 C   0  0  0  1  0  0  0  0  0  0  0  0
   -3.4913   -2.1892   -0.0196 C   0  0  0  1  0  0  0  0  0  0  0  0
   -4.0609    0.3205   -0.2727 C   0  0  0  1  0  0  0  0  0  0  0  0
    1.6625   -2.9669   -2.9731 N   0  0  0  1  0  0  0  0  0  0  0  0
    3.6770   -2.0572   -2.2065 C   0  0  0  1  0  0  0  0  0  0  0  0
    2.9418   -1.3605   -1.2256 C   0  0  0  1  0  0  0  0  0  0  0  0
    3.8571   -0.6441   -0.5052 N   0  0  0  1  0  0  0  0  0  0  0  0
    4.9803   -1.7411   -2.0437 N   0  0  0  1  0  0  0  0  0  0  0  0
    5.1154   -0.9204   -1.0609 N   0  0  0  1  0  0  0  0  0  0  0  0
    3.3735    3.2511    3.3783 O   0  0  0  1  0  0  0  0  0  0  0  0
   -0.3278   -2.4673   -2.0170 N   0  0  0  1  0  0  0  0  0  0  0  0
    2.2720    4.2109    3.5136 C   0  0  0  1  0  0  0  0  0  0  0  0
   -3.2687   -0.8287   -0.5858 N   0  0  0  1  0  0  0  0  0  0  0  0
   -2.1234   -0.8271   -1.5107 C   0  0  0  1  0  0  0  0  0  0  0  0
   -5.2137    0.6513   -0.9605 C   0  0  0  1  0  0  0  0  0  0  0  0
   -5.9135    1.7807   -0.5804 C   0  0  0  1  0  0  0  0  0  0  0  0
   -5.5324    2.5787    0.4217 N   0  0  0  1  0  0  0  0  0  0  0  0
   -4.4105    2.2484    1.0770 C   0  0  0  1  0  0  0  0  0  0  0  0
   -3.6511    1.1341    0.7654 C   0  0  0  1  0  0  0  0  0  0  0  0
    3.4758   -3.4132   -3.8334 H   0  0  0  1  0  0  0  0  0  0  0  0
    1.7060    0.6983    0.0255 H   0  0  0  1  0  0  0  0  0  0  0  0
    5.3809    1.9220    2.9416 H   0  0  0  1  0  0  0  0  0  0  0  0
    5.6769    0.1779    1.2871 H   0  0  0  1  0  0  0  0  0  0  0  0
    1.4097    2.4452    1.6828 H   0  0  0  1  0  0  0  0  0  0  0  0
   -0.6037   -1.5965   -0.1524 H   0  0  0  1  0  0  0  0  0  0  0  0
   -2.5427   -3.5917   -1.3560 H   0  0  0  1  0  0  0  0  0  0  0  0
   -1.8713   -3.5863    0.2574 H   0  0  0  1  0  0  0  0  0  0  0  0
   -4.4011   -2.6157   -0.3875 H   0  0  0  1  0  0  0  0  0  0  0  0
   -3.5162   -2.1624    1.0497 H   0  0  0  1  0  0  0  0  0  0  0  0
   -0.7392   -2.9785   -2.7448 H   0  0  0  1  0  0  0  0  0  0  0  0
    2.0668    4.6556    2.5623 H   0  0  0  1  0  0  0  0  0  0  0  0
    2.5475    4.9736    4.2116 H   0  0  0  1  0  0  0  0  0  0  0  0
    1.3983    3.7033    3.8656 H   0  0  0  1  0  0  0  0  0  0  0  0
   -2.4418   -1.0485   -2.5080 H   0  0  0  1  0  0  0  0  0  0  0  0
   -1.6265    0.1204   -1.4965 H   0  0  0  1  0  0  0  0  0  0  0  0
   -5.5480    0.0614   -1.7491 H   0  0  0  1  0  0  0  0  0  0  0  0
   -6.7811    2.0220   -1.1007 H   0  0  0  1  0  0  0  0  0  0  0  0
   -4.0954    2.8593    1.8575 H   0  0  0  1  0  0  0  0  0  0  0  0
   -2.7884    0.9136    1.3028 H   0  0  0  1  0  0  0  0  0  0  0  0
  1  3  4  0  0  0  0
  1 14  4  0  0  0  0
  1 21  1  0  0  0  0
  2 14  4  0  0  0  0
  2 15  4  0  0  0  0
  2 30  1  0  0  0  0
  3 16  4  0  0  0  0
  4  5  4  0  0  0  0
  4  7  4  0  0  0  0
  4 17  1  0  0  0  0
  5  9  4  0  0  0  0
  5 31  1  0  0  0  0
  6  7  4  0  0  0  0
  6  8  4  0  0  0  0
  6 32  1  0  0  0  0
  7 33  1  0  0  0  0
  8  9  4  0  0  0  0
  8 20  1  0  0  0  0
  9 34  1  0  0  0  0
 10 11  1  0  0  0  0
 10 21  1  0  0  0  0
 10 24  1  0  0  0  0
 10 35  1  0  0  0  0
 11 12  1  0  0  0  0
 11 36  1  0  0  0  0
 11 37  1  0  0  0  0
 12 23  1  0  0  0  0
 12 38  1  0  0  0  0
 12 39  1  0  0  0  0
 13 23  1  0  0  0  0
 13 25  4  0  0  0  0
 13 29  4  0  0  0  0
 15 16  4  0  0  0  0
 15 18  4  0  0  0  0
 16 17  4  0  0  0  0
 17 19  4  0  0  0  0
 18 19  4  0  0  0  0
 20 22  1  0  0  0  0
 21 40  1  0  0  0  0
 22 41  1  0  0  0  0
 22 42  1  0  0  0  0
 22 43  1  0  0  0  0
 23 24  1  0  0  0  0
 24 44  1  0  0  0  0
 24 45  1  0  0  0  0
 25 26  4  0  0  0  0
 25 46  1  0  0  0  0
 26 27  4  0  0  0  0
 26 47  1  0  0  0  0
 27 28  4  0  0  0  0
 28 29  4  0  0  0  0
 28 48  1  0  0  0  0
 29 49  1  0  0  0  0
M  END
> <ConfClashScore>
0 

> <ConfOneFourInteractionScore>
-0.986948 

> <ConfScore>
-0.0454923 

> <ConfScorePBest>
0.00492605 

> <ConfTolerance>
0.429749 

> <HETNAM>
     OWQ A 303  OWQ                                                       

> <pdb_OW>
Q_303 -16.5129 3.80749 7.62812 0.15963 1.39178 -0.28144 -3.20151 0 0 0 -1.30514 0 0 0 0 0 0 0 0 -8.31393

$$$$
6yky_lig_1.pdb
 OpenBabel04162415593D

 49 53  0  0  0  0  0  0  0  0999 V2000
    1.4793   -2.2499   -1.9420 C   0  0  0  1  0  0  0  0  0  0  0  0
    3.5816   -2.4917   -2.8539 C   0  0  0  1  0  0  0  0  0  0  0  0
    1.8780   -1.3332   -1.0867 N   0  0  0  1  0  0  0  0  0  0  0  0
    3.5138    0.9171    0.6699 C   0  0  0  1  0  0  0  0  0  0  0  0
    2.2841    0.7830    1.2864 C   0  0  0  1  0  0  0  0  0  0  0  0
    3.8935    2.9595    1.8664 C   0  0  0  1  0  0  0  0  0  0  0  0
    4.3186    2.0082    0.9583 C   0  0  0  1  0  0  0  0  0  0  0  0
    2.6602    2.8252    2.4849 C   0  0  0  1  0  0  0  0  0  0  0  0
    1.8579    1.7371    2.1972 C   0  0  0  1  0  0  0  0  0  0  0  0
   -0.7093   -2.1028   -0.8882 C   0  0  0  1  0  0  0  0  0  0  0  0
   -1.7348   -3.1267   -0.4633 C   0  0  0  1  0  0  0  0  0  0  0  0
   -2.8541   -2.3043    0.1430 C   0  0  0  1  0  0  0  0  0  0  0  0
   -3.7635   -0.0506   -0.5691 C   0  0  0  1  0  0  0  0  0  0  0  0
    2.3029   -2.8183   -2.8053 N   0  0  0  1  0  0  0  0  0  0  0  0
    4.0600   -1.5214   -1.9661 C   0  0  0  1  0  0  0  0  0  0  0  0
    3.1460   -0.9415   -1.0625 C   0  0  0  1  0  0  0  0  0  0  0  0
    3.8640   -0.0419   -0.3241 N   0  0  0  1  0  0  0  0  0  0  0  0
    5.2689   -0.9612   -1.7429 N   0  0  0  1  0  0  0  0  0  0  0  0
    5.1853   -0.0965   -0.7927 N   0  0  0  1  0  0  0  0  0  0  0  0
    2.1434    3.6818    3.3734 O   0  0  0  1  0  0  0  0  0  0  0  0
    0.1505   -2.6336   -1.9388 N   0  0  0  1  0  0  0  0  0  0  0  0
    0.7520    3.5760    3.8271 C   0  0  0  1  0  0  0  0  0  0  0  0
   -2.7809   -1.0390   -0.6104 N   0  0  0  1  0  0  0  0  0  0  0  0
   -1.5521   -0.9407   -1.4097 C   0  0  0  1  0  0  0  0  0  0  0  0
   -3.7905    0.8738    0.4587 C   0  0  0  1  0  0  0  0  0  0  0  0
   -4.7796    1.8389    0.4588 C   0  0  0  1  0  0  0  0  0  0  0  0
   -5.7208    1.9267   -0.4860 N   0  0  0  1  0  0  0  0  0  0  0  0
   -5.6852    1.0213   -1.4742 C   0  0  0  1  0  0  0  0  0  0  0  0
   -4.7289    0.0241   -1.5541 C   0  0  0  1  0  0  0  0  0  0  0  0
    4.2198   -2.9462   -3.5378 H   0  0  0  1  0  0  0  0  0  0  0  0
    1.6787   -0.0336    1.0670 H   0  0  0  1  0  0  0  0  0  0  0  0
    4.4990    3.7761    2.0858 H   0  0  0  1  0  0  0  0  0  0  0  0
    5.2422    2.1111    0.4913 H   0  0  0  1  0  0  0  0  0  0  0  0
    0.9343    1.6342    2.6641 H   0  0  0  1  0  0  0  0  0  0  0  0
   -0.1095   -1.7960   -0.0569 H   0  0  0  1  0  0  0  0  0  0  0  0
   -1.3227   -3.7982    0.2607 H   0  0  0  1  0  0  0  0  0  0  0  0
   -2.0871   -3.6831   -1.3067 H   0  0  0  1  0  0  0  0  0  0  0  0
   -2.6885   -2.1402    1.1873 H   0  0  0  1  0  0  0  0  0  0  0  0
   -3.8015   -2.7814    0.0022 H   0  0  0  1  0  0  0  0  0  0  0  0
   -0.2017   -3.2427   -2.6210 H   0  0  0  1  0  0  0  0  0  0  0  0
    0.0931    3.7876    3.0110 H   0  0  0  1  0  0  0  0  0  0  0  0
    0.5799    4.2785    4.6156 H   0  0  0  1  0  0  0  0  0  0  0  0
    0.5685    2.5846    4.1856 H   0  0  0  1  0  0  0  0  0  0  0  0
   -1.7617   -1.0555   -2.4527 H   0  0  0  1  0  0  0  0  0  0  0  0
   -1.0602   -0.0049   -1.2452 H   0  0  0  1  0  0  0  0  0  0  0  0
   -3.0799    0.8435    1.2175 H   0  0  0  1  0  0  0  0  0  0  0  0
   -4.7922    2.5325    1.2337 H   0  0  0  1  0  0  0  0  0  0  0  0
   -6.4116    1.0708   -2.2168 H   0  0  0  1  0  0  0  0  0  0  0  0
   -4.7370   -0.6560   -2.3408 H   0  0  0  1  0  0  0  0  0  0  0  0
  1  3  4  0  0  0  0
  1 14  4  0  0  0  0
  1 21  1  0  0  0  0
  2 14  4  0  0  0  0
  2 15  4  0  0  0  0
  2 30  1  0  0  0  0
  3 16  4  0  0  0  0
  4  5  4  0  0  0  0
  4  7  4  0  0  0  0
  4 17  1  0  0  0  0
  5  9  4  0  0  0  0
  5 31  1  0  0  0  0
  6  7  4  0  0  0  0
  6  8  4  0  0  0  0
  6 32  1  0  0  0  0
  7 33  1  0  0  0  0
  8  9  4  0  0  0  0
  8 20  1  0  0  0  0
  9 34  1  0  0  0  0
 10 11  1  0  0  0  0
 10 21  1  0  0  0  0
 10 24  1  0  0  0  0
 10 35  1  0  0  0  0
 11 12  1  0  0  0  0
 11 36  1  0  0  0  0
 11 37  1  0  0  0  0
 12 23  1  0  0  0  0
 12 38  1  0  0  0  0
 12 39  1  0  0  0  0
 13 23  1  0  0  0  0
 13 25  4  0  0  0  0
 13 29  4  0  0  0  0
 15 16  4  0  0  0  0
 15 18  4  0  0  0  0
 16 17  4  0  0  0  0
 17 19  4  0  0  0  0
 18 19  4  0  0  0  0
 20 22  1  0  0  0  0
 21 40  1  0  0  0  0
 22 41  1  0  0  0  0
 22 42  1  0  0  0  0
 22 43  1  0  0  0  0
 23 24  1  0  0  0  0
 24 44  1  0  0  0  0
 24 45  1  0  0  0  0
 25 26  4  0  0  0  0
 25 46  1  0  0  0  0
 26 27  4  0  0  0  0
 26 47  1  0  0  0  0
 27 28  4  0  0  0  0
 28 29  4  0  0  0  0
 28 48  1  0  0  0  0
 29 49  1  0  0  0  0
M  END
> <ConfClashScore>
0 

> <ConfOneFourInteractionScore>
-0.986948 

> <ConfScore>
-0.045403 

> <ConfScorePBest>
0.00491272 

> <ConfTolerance>
0.394293 

> <HETNAM>
     OWQ A 303  OWQ                                                       

> <pdb_OW>
Q_303 -16.5129 3.80749 7.62812 0.15963 1.39178 -0.28144 -3.20151 0 0 0 -1.30514 0 0 0 0 0 0 0 0 -8.31393

$$$$
6yky_lig_1.pdb
 OpenBabel04162415593D

 49 53  0  0  0  0  0  0  0  0999 V2000
    1.7870    0.1212    0.6114 C   0  0  0  1  0  0  0  0  0  0  0  0
    3.5105    1.1826   -0.4898 C   0  0  0  1  0  0  0  0  0  0  0  0
    1.3523   -0.4634   -0.4841 N   0  0  0  1  0  0  0  0  0  0  0  0
    0.8068   -1.5741   -3.4961 C   0  0  0  1  0  0  0  0  0  0  0  0
    0.0961   -2.4421   -2.6889 C   0  0  0  1  0  0  0  0  0  0  0  0
   -0.2343   -2.5223   -5.4363 C   0  0  0  1  0  0  0  0  0  0  0  0
    0.6435   -1.6160   -4.8720 C   0  0  0  1  0  0  0  0  0  0  0  0
   -0.9472   -3.3930   -4.6268 C   0  0  0  1  0  0  0  0  0  0  0  0
   -0.7842   -3.3510   -3.2550 C   0  0  0  1  0  0  0  0  0  0  0  0
    1.3943    0.4219    3.0330 C   0  0  0  1  0  0  0  0  0  0  0  0
    0.6934   -0.3197    4.1671 C   0  0  0  1  0  0  0  0  0  0  0  0
   -0.7234    0.2517    4.1459 C   0  0  0  1  0  0  0  0  0  0  0  0
   -1.4772    2.6305    3.7440 C   0  0  0  1  0  0  0  0  0  0  0  0
    2.8370    0.9238    0.6163 N   0  0  0  1  0  0  0  0  0  0  0  0
    3.0915    0.5869   -1.6849 C   0  0  0  1  0  0  0  0  0  0  0  0
    1.9666   -0.2622   -1.6435 C   0  0  0  1  0  0  0  0  0  0  0  0
    1.7775   -0.7015   -2.9246 N   0  0  0  1  0  0  0  0  0  0  0  0
    3.5288    0.6265   -2.9624 N   0  0  0  1  0  0  0  0  0  0  0  0
    2.7833   -0.1139   -3.7066 N   0  0  0  1  0  0  0  0  0  0  0  0
   -1.7989   -4.2799   -5.1772 O   0  0  0  1  0  0  0  0  0  0  0  0
    1.0654   -0.1688    1.7416 N   0  0  0  1  0  0  0  0  0  0  0  0
   -1.7711   -4.3396   -6.6223 C   0  0  0  1  0  0  0  0  0  0  0  0
   -0.5139    1.6366    3.6809 N   0  0  0  1  0  0  0  0  0  0  0  0
    0.8406    1.8349    3.1424 C   0  0  0  1  0  0  0  0  0  0  0  0
   -2.3590    2.8248    2.6970 C   0  0  0  1  0  0  0  0  0  0  0  0
   -3.3067    3.8249    2.8030 C   0  0  0  1  0  0  0  0  0  0  0  0
   -3.4166    4.6230    3.8694 N   0  0  0  1  0  0  0  0  0  0  0  0
   -2.5524    4.4264    4.8753 C   0  0  0  1  0  0  0  0  0  0  0  0
   -1.5753    3.4465    4.8540 C   0  0  0  1  0  0  0  0  0  0  0  0
    4.3352    1.8160   -0.4731 H   0  0  0  1  0  0  0  0  0  0  0  0
    0.2217   -2.4133   -1.6569 H   0  0  0  1  0  0  0  0  0  0  0  0
   -0.3599   -2.5511   -6.4683 H   0  0  0  1  0  0  0  0  0  0  0  0
    1.1813   -0.9655   -5.4796 H   0  0  0  1  0  0  0  0  0  0  0  0
   -1.3220   -4.0015   -2.6473 H   0  0  0  1  0  0  0  0  0  0  0  0
    2.4556    0.4148    3.1690 H   0  0  0  1  0  0  0  0  0  0  0  0
    0.6830   -1.3741    3.9855 H   0  0  0  1  0  0  0  0  0  0  0  0
    1.1706   -0.1234    5.1045 H   0  0  0  1  0  0  0  0  0  0  0  0
   -1.3472   -0.2917    3.4674 H   0  0  0  1  0  0  0  0  0  0  0  0
   -1.1594    0.2357    5.1229 H   0  0  0  1  0  0  0  0  0  0  0  0
    0.3092   -0.7891    1.6791 H   0  0  0  1  0  0  0  0  0  0  0  0
   -2.5313   -5.0092   -6.9668 H   0  0  0  1  0  0  0  0  0  0  0  0
   -0.8136   -4.6905   -6.9462 H   0  0  0  1  0  0  0  0  0  0  0  0
   -1.9480   -3.3632   -7.0228 H   0  0  0  1  0  0  0  0  0  0  0  0
    1.4333    2.4265    3.8085 H   0  0  0  1  0  0  0  0  0  0  0  0
    0.8045    2.3061    2.1824 H   0  0  0  1  0  0  0  0  0  0  0  0
   -2.3100    2.2295    1.8456 H   0  0  0  1  0  0  0  0  0  0  0  0
   -3.9683    3.9636    2.0127 H   0  0  0  1  0  0  0  0  0  0  0  0
   -2.6195    5.0400    5.7122 H   0  0  0  1  0  0  0  0  0  0  0  0
   -0.9272    3.3269    5.6586 H   0  0  0  1  0  0  0  0  0  0  0  0
  1  3  4  0  0  0  0
  1 14  4  0  0  0  0
  1 21  1  0  0  0  0
  2 14  4  0  0  0  0
  2 15  4  0  0  0  0
  2 30  1  0  0  0  0
  3 16  4  0  0  0  0
  4  5  4  0  0  0  0
  4  7  4  0  0  0  0
  4 17  1  0  0  0  0
  5  9  4  0  0  0  0
  5 31  1  0  0  0  0
  6  7  4  0  0  0  0
  6  8  4  0  0  0  0
  6 32  1  0  0  0  0
  7 33  1  0  0  0  0
  8  9  4  0  0  0  0
  8 20  1  0  0  0  0
  9 34  1  0  0  0  0
 10 11  1  0  0  0  0
 10 21  1  0  0  0  0
 10 24  1  0  0  0  0
 10 35  1  0  0  0  0
 11 12  1  0  0  0  0
 11 36  1  0  0  0  0
 11 37  1  0  0  0  0
 12 23  1  0  0  0  0
 12 38  1  0  0  0  0
 12 39  1  0  0  0  0
 13 23  1  0  0  0  0
 13 25  4  0  0  0  0
 13 29  4  0  0  0  0
 15 16  4  0  0  0  0
 15 18  4  0  0  0  0
 16 17  4  0  0  0  0
 17 19  4  0  0  0  0
 18 19  4  0  0  0  0
 20 22  1  0  0  0  0
 21 40  1  0  0  0  0
 22 41  1  0  0  0  0
 22 42  1  0  0  0  0
 22 43  1  0  0  0  0
 23 24  1  0  0  0  0
 24 44  1  0  0  0  0
 24 45  1  0  0  0  0
 25 26  4  0  0  0  0
 25 46  1  0  0  0  0
 26 27  4  0  0  0  0
 26 47  1  0  0  0  0
 27 28  4  0  0  0  0
 28 29  4  0  0  0  0
 28 48  1  0  0  0  0
 29 49  1  0  0  0  0
M  END
> <ConfClashScore>
0 

> <ConfOneFourInteractionScore>
-0.986948 

> <ConfScore>
-0.0439921 

> <ConfScorePBest>
0.00489939 

> <ConfTolerance>
0.523934 

> <HETNAM>
     OWQ A 303  OWQ                                                       

> <pdb_OW>
Q_303 -16.5129 3.80749 7.62812 0.15963 1.39178 -0.28144 -3.20151 0 0 0 -1.30514 0 0 0 0 0 0 0 0 -8.31393

$$$$
6yky_lig_1.pdb
 OpenBabel04162415593D

 49 53  0  0  0  0  0  0  0  0999 V2000
    1.5120   -0.9016   -2.5889 C   0  0  0  1  0  0  0  0  0  0  0  0
    3.2022   -2.3119   -3.2700 C   0  0  0  1  0  0  0  0  0  0  0  0
    1.7342   -1.1354   -1.3135 N   0  0  0  1  0  0  0  0  0  0  0  0
    2.7674   -2.2405    1.6154 C   0  0  0  1  0  0  0  0  0  0  0  0
    2.2275   -1.0191    1.9713 C   0  0  0  1  0  0  0  0  0  0  0  0
    2.6496   -2.9605    3.8991 C   0  0  0  1  0  0  0  0  0  0  0  0
    2.9813   -3.2118    2.5811 C   0  0  0  1  0  0  0  0  0  0  0  0
    2.1080   -1.7355    4.2562 C   0  0  0  1  0  0  0  0  0  0  0  0
    1.8948   -0.7672    3.2932 C   0  0  0  1  0  0  0  0  0  0  0  0
   -0.3413    0.5109   -1.8725 C   0  0  0  1  0  0  0  0  0  0  0  0
   -1.3890   -0.4924   -1.4524 C   0  0  0  1  0  0  0  0  0  0  0  0
   -2.4817    0.3498   -0.8251 C   0  0  0  1  0  0  0  0  0  0  0  0
   -3.3531    2.6501   -1.4975 C   0  0  0  1  0  0  0  0  0  0  0  0
    2.2225   -1.4706   -3.5470 N   0  0  0  1  0  0  0  0  0  0  0  0
    3.4821   -2.5969   -1.9287 C   0  0  0  1  0  0  0  0  0  0  0  0
    2.6987   -1.9671   -0.9398 C   0  0  0  1  0  0  0  0  0  0  0  0
    3.1753   -2.4147    0.2613 N   0  0  0  1  0  0  0  0  0  0  0  0
    4.3822   -3.3836   -1.2995 N   0  0  0  1  0  0  0  0  0  0  0  0
    4.2273   -3.2978   -0.0243 N   0  0  0  1  0  0  0  0  0  0  0  0
    1.6992   -1.5198    5.5291 O   0  0  0  1  0  0  0  0  0  0  0  0
    0.4985   -0.0289   -2.9414 N   0  0  0  1  0  0  0  0  0  0  0  0
    1.0698   -0.2602    5.8116 C   0  0  0  1  0  0  0  0  0  0  0  0
   -2.3826    1.6231   -1.5619 N   0  0  0  1  0  0  0  0  0  0  0  0
   -1.1585    1.7011   -2.3707 C   0  0  0  1  0  0  0  0  0  0  0  0
   -4.4072    2.5689   -0.6065 C   0  0  0  1  0  0  0  0  0  0  0  0
   -5.3306    3.5964   -0.5739 C   0  0  0  1  0  0  0  0  0  0  0  0
   -5.2619    4.6716   -1.3648 N   0  0  0  1  0  0  0  0  0  0  0  0
   -4.2372    4.7352   -2.2269 C   0  0  0  1  0  0  0  0  0  0  0  0
   -3.2662    3.7537   -2.3235 C   0  0  0  1  0  0  0  0  0  0  0  0
    3.7542   -2.7534   -4.0328 H   0  0  0  1  0  0  0  0  0  0  0  0
    2.0708   -0.2890    1.2474 H   0  0  0  1  0  0  0  0  0  0  0  0
    2.8063   -3.6906    4.6229 H   0  0  0  1  0  0  0  0  0  0  0  0
    3.3914   -4.1294    2.3138 H   0  0  0  1  0  0  0  0  0  0  0  0
    1.4848    0.1504    3.5604 H   0  0  0  1  0  0  0  0  0  0  0  0
    0.2732    0.7908   -1.0424 H   0  0  0  1  0  0  0  0  0  0  0  0
   -1.7626   -1.0280   -2.3001 H   0  0  0  1  0  0  0  0  0  0  0  0
   -0.9880   -1.1841   -0.7413 H   0  0  0  1  0  0  0  0  0  0  0  0
   -3.4421   -0.1010   -0.9639 H   0  0  0  1  0  0  0  0  0  0  0  0
   -2.3031    0.4952    0.2198 H   0  0  0  1  0  0  0  0  0  0  0  0
    0.3478    0.2197   -3.8773 H   0  0  0  1  0  0  0  0  0  0  0  0
    0.2819   -0.0888    5.1082 H   0  0  0  1  0  0  0  0  0  0  0  0
    1.7930    0.5247    5.7349 H   0  0  0  1  0  0  0  0  0  0  0  0
    0.6657   -0.2779    6.8022 H   0  0  0  1  0  0  0  0  0  0  0  0
   -0.6415    2.6218   -2.1978 H   0  0  0  1  0  0  0  0  0  0  0  0
   -1.3799    1.6060   -3.4132 H   0  0  0  1  0  0  0  0  0  0  0  0
   -4.5033    1.7499    0.0273 H   0  0  0  1  0  0  0  0  0  0  0  0
   -6.1195    3.5297    0.1006 H   0  0  0  1  0  0  0  0  0  0  0  0
   -4.1685    5.5623   -2.8536 H   0  0  0  1  0  0  0  0  0  0  0  0
   -2.4860    3.8454   -3.0050 H   0  0  0  1  0  0  0  0  0  0  0  0
  1  3  4  0  0  0  0
  1 14  4  0  0  0  0
  1 21  1  0  0  0  0
  2 14  4  0  0  0  0
  2 15  4  0  0  0  0
  2 30  1  0  0  0  0
  3 16  4  0  0  0  0
  4  5  4  0  0  0  0
  4  7  4  0  0  0  0
  4 17  1  0  0  0  0
  5  9  4  0  0  0  0
  5 31  1  0  0  0  0
  6  7  4  0  0  0  0
  6  8  4  0  0  0  0
  6 32  1  0  0  0  0
  7 33  1  0  0  0  0
  8  9  4  0  0  0  0
  8 20  1  0  0  0  0
  9 34  1  0  0  0  0
 10 11  1  0  0  0  0
 10 21  1  0  0  0  0
 10 24  1  0  0  0  0
 10 35  1  0  0  0  0
 11 12  1  0  0  0  0
 11 36  1  0  0  0  0
 11 37  1  0  0  0  0
 12 23  1  0  0  0  0
 12 38  1  0  0  0  0
 12 39  1  0  0  0  0
 13 23  1  0  0  0  0
 13 25  4  0  0  0  0
 13 29  4  0  0  0  0
 15 16  4  0  0  0  0
 15 18  4  0  0  0  0
 16 17  4  0  0  0  0
 17 19  4  0  0  0  0
 18 19  4  0  0  0  0
 20 22  1  0  0  0  0
 21 40  1  0  0  0  0
 22 41  1  0  0  0  0
 22 42  1  0  0  0  0
 22 43  1  0  0  0  0
 23 24  1  0  0  0  0
 24 44  1  0  0  0  0
 24 45  1  0  0  0  0
 25 26  4  0  0  0  0
 25 46  1  0  0  0  0
 26 27  4  0  0  0  0
 26 47  1  0  0  0  0
 27 28  4  0  0  0  0
 28 29  4  0  0  0  0
 28 48  1  0  0  0  0
 29 49  1  0  0  0  0
M  END
> <ConfClashScore>
0 

> <ConfOneFourInteractionScore>
-0.986948 

> <ConfScore>
-0.0438634 

> <ConfScorePBest>
0.00488607 

> <ConfTolerance>
0.428464 

> <HETNAM>
     OWQ A 303  OWQ                                                       

> <pdb_OW>
Q_303 -16.5129 3.80749 7.62812 0.15963 1.39178 -0.28144 -3.20151 0 0 0 -1.30514 0 0 0 0 0 0 0 0 -8.31393

$$$$
6yky_lig_1.pdb
 OpenBabel04162415593D

 49 53  0  0  0  0  0  0  0  0999 V2000
    0.5979   -0.5987    1.0914 C   0  0  0  1  0  0  0  0  0  0  0  0
    1.1182   -2.3929    2.4404 C   0  0  0  1  0  0  0  0  0  0  0  0
    1.3098   -1.0579    0.0849 N   0  0  0  1  0  0  0  0  0  0  0  0
    3.1580   -2.8093   -1.9989 C   0  0  0  1  0  0  0  0  0  0  0  0
    4.3904   -3.3146   -2.3675 C   0  0  0  1  0  0  0  0  0  0  0  0
    2.8485   -1.9430   -4.2127 C   0  0  0  1  0  0  0  0  0  0  0  0
    2.3870   -2.1202   -2.9220 C   0  0  0  1  0  0  0  0  0  0  0  0
    4.0846   -2.4497   -4.5826 C   0  0  0  1  0  0  0  0  0  0  0  0
    4.8532   -3.1368   -3.6620 C   0  0  0  1  0  0  0  0  0  0  0  0
   -0.9225    1.1143    1.9893 C   0  0  0  1  0  0  0  0  0  0  0  0
   -1.9699    0.0927    2.4054 C   0  0  0  1  0  0  0  0  0  0  0  0
   -3.0894    0.9345    3.0209 C   0  0  0  1  0  0  0  0  0  0  0  0
   -3.8388    3.2845    2.4831 C   0  0  0  1  0  0  0  0  0  0  0  0
    0.4999   -1.2430    2.2411 N   0  0  0  1  0  0  0  0  0  0  0  0
    1.8898   -2.9279    1.4026 C   0  0  0  1  0  0  0  0  0  0  0  0
    1.9661   -2.2065    0.1935 C   0  0  0  1  0  0  0  0  0  0  0  0
    2.7701   -2.9404   -0.6341 N   0  0  0  1  0  0  0  0  0  0  0  0
    2.6350   -4.0458    1.2610 N   0  0  0  1  0  0  0  0  0  0  0  0
    3.1595   -4.0799    0.0857 N   0  0  0  1  0  0  0  0  0  0  0  0
    4.6388   -2.3352   -5.8052 O   0  0  0  1  0  0  0  0  0  0  0  0
   -0.0637    0.5853    0.9445 N   0  0  0  1  0  0  0  0  0  0  0  0
    3.8281   -1.6417   -6.7822 C   0  0  0  1  0  0  0  0  0  0  0  0
   -2.9506    2.2286    2.3348 N   0  0  0  1  0  0  0  0  0  0  0  0
   -1.7600    2.2710    1.4735 C   0  0  0  1  0  0  0  0  0  0  0  0
   -3.6816    4.1991    3.5080 C   0  0  0  1  0  0  0  0  0  0  0  0
   -4.5866    5.2377    3.6167 C   0  0  0  1  0  0  0  0  0  0  0  0
   -5.6156    5.4063    2.7806 N   0  0  0  1  0  0  0  0  0  0  0  0
   -5.7585    4.5097    1.7941 C   0  0  0  1  0  0  0  0  0  0  0  0
   -4.8971    3.4424    1.6097 C   0  0  0  1  0  0  0  0  0  0  0  0
    1.0333   -2.8905    3.3497 H   0  0  0  1  0  0  0  0  0  0  0  0
    4.9706   -3.8281   -1.6738 H   0  0  0  1  0  0  0  0  0  0  0  0
    2.2683   -1.4294   -4.9065 H   0  0  0  1  0  0  0  0  0  0  0  0
    1.4613   -1.7365   -2.6435 H   0  0  0  1  0  0  0  0  0  0  0  0
    5.7788   -3.5205   -3.9406 H   0  0  0  1  0  0  0  0  0  0  0  0
   -0.3252    1.4146    2.8247 H   0  0  0  1  0  0  0  0  0  0  0  0
   -1.5691   -0.5903    3.1249 H   0  0  0  1  0  0  0  0  0  0  0  0
   -2.3273   -0.4519    1.5565 H   0  0  0  1  0  0  0  0  0  0  0  0
   -4.0475    0.4988    2.8284 H   0  0  0  1  0  0  0  0  0  0  0  0
   -2.9520    1.0430    4.0765 H   0  0  0  1  0  0  0  0  0  0  0  0
    0.0434    1.0919    0.1124 H   0  0  0  1  0  0  0  0  0  0  0  0
    2.9132   -2.1762   -6.9313 H   0  0  0  1  0  0  0  0  0  0  0  0
    4.3604   -1.5810   -7.7084 H   0  0  0  1  0  0  0  0  0  0  0  0
    3.6111   -0.6551   -6.4296 H   0  0  0  1  0  0  0  0  0  0  0  0
   -1.2402    3.2000    1.5819 H   0  0  0  1  0  0  0  0  0  0  0  0
   -2.0233    2.1267    0.4465 H   0  0  0  1  0  0  0  0  0  0  0  0
   -2.8970    4.1071    4.1844 H   0  0  0  1  0  0  0  0  0  0  0  0
   -4.4607    5.9232    4.3886 H   0  0  0  1  0  0  0  0  0  0  0  0
   -6.5555    4.6218    1.1355 H   0  0  0  1  0  0  0  0  0  0  0  0
   -5.0438    2.7719    0.8283 H   0  0  0  1  0  0  0  0  0  0  0  0
  1  3  4  0  0  0  0
  1 14  4  0  0  0  0
  1 21  1  0  0  0  0
  2 14  4  0  0  0  0
  2 15  4  0  0  0  0
  2 30  1  0  0  0  0
  3 16  4  0  0  0  0
  4  5  4  0  0  0  0
  4  7  4  0  0  0  0
  4 17  1  0  0  0  0
  5  9  4  0  0  0  0
  5 31  1  0  0  0  0
  6  7  4  0  0  0  0
  6  8  4  0  0  0  0
  6 32  1  0  0  0  0
  7 33  1  0  0  0  0
  8  9  4  0  0  0  0
  8 20  1  0  0  0  0
  9 34  1  0  0  0  0
 10 11  1  0  0  0  0
 10 21  1  0  0  0  0
 10 24  1  0  0  0  0
 10 35  1  0  0  0  0
 11 12  1  0  0  0  0
 11 36  1  0  0  0  0
 11 37  1  0  0  0  0
 12 23  1  0  0  0  0
 12 38  1  0  0  0  0
 12 39  1  0  0  0  0
 13 23  1  0  0  0  0
 13 25  4  0  0  0  0
 13 29  4  0  0  0  0
 15 16  4  0  0  0  0
 15 18  4  0  0  0  0
 16 17  4  0  0  0  0
 17 19  4  0  0  0  0
 18 19  4  0  0  0  0
 20 22  1  0  0  0  0
 21 40  1  0  0  0  0
 22 41  1  0  0  0  0
 22 42  1  0  0  0  0
 22 43  1  0  0  0  0
 23 24  1  0  0  0  0
 24 44  1  0  0  0  0
 24 45  1  0  0  0  0
 25 26  4  0  0  0  0
 25 46  1  0  0  0  0
 26 27  4  0  0  0  0
 26 47  1  0  0  0  0
 27 28  4  0  0  0  0
 28 29  4  0  0  0  0
 28 48  1  0  0  0  0
 29 49  1  0  0  0  0
M  END
> <ConfClashScore>
0 

> <ConfOneFourInteractionScore>
-0.987833 

> <ConfScore>
-0.043224 

> <ConfScorePBest>
0.00487274 

> <ConfTolerance>
0.419469 

> <HETNAM>
     OWQ A 303  OWQ                                                       

> <pdb_OW>
Q_303 -16.5129 3.80749 7.62812 0.15963 1.39178 -0.28144 -3.20151 0 0 0 -1.30514 0 0 0 0 0 0 0 0 -8.31393

$$$$
6yky_lig_1.pdb
 OpenBabel04162415593D

 49 53  0  0  0  0  0  0  0  0999 V2000
    0.4131    0.3690    0.2748 C   0  0  0  1  0  0  0  0  0  0  0  0
    1.0216    2.5053   -0.3378 C   0  0  0  1  0  0  0  0  0  0  0  0
    1.1959   -0.1882   -0.6239 N   0  0  0  1  0  0  0  0  0  0  0  0
    3.3438   -0.9293   -2.9120 C   0  0  0  1  0  0  0  0  0  0  0  0
    3.9605   -0.9945   -4.1472 C   0  0  0  1  0  0  0  0  0  0  0  0
    3.5730   -3.3033   -2.6696 C   0  0  0  1  0  0  0  0  0  0  0  0
    3.1474   -2.0856   -2.1732 C   0  0  0  1  0  0  0  0  0  0  0  0
    4.1915   -3.3689   -3.9084 C   0  0  0  1  0  0  0  0  0  0  0  0
    4.3873   -2.2158   -4.6449 C   0  0  0  1  0  0  0  0  0  0  0  0
   -1.1774    0.1137    2.1342 C   0  0  0  1  0  0  0  0  0  0  0  0
   -2.2477   -0.9085    2.6074 C   0  0  0  1  0  0  0  0  0  0  0  0
   -3.4581   -0.1052    3.1278 C   0  0  0  1  0  0  0  0  0  0  0  0
   -3.9777    2.3689    2.8507 C   0  0  0  1  0  0  0  0  0  0  0  0
    0.3231    1.6794    0.4199 N   0  0  0  1  0  0  0  0  0  0  0  0
    1.8710    1.9663   -1.3108 C   0  0  0  1  0  0  0  0  0  0  0  0
    1.9356    0.5629   -1.4305 C   0  0  0  1  0  0  0  0  0  0  0  0
    2.8243    0.3102   -2.4387 N   0  0  0  1  0  0  0  0  0  0  0  0
    2.7055    2.4954   -2.2320 N   0  0  0  1  0  0  0  0  0  0  0  0
    3.2741    1.5553   -2.9032 N   0  0  0  1  0  0  0  0  0  0  0  0
    4.6245   -4.5237   -4.4507 O   0  0  0  1  0  0  0  0  0  0  0  0
   -0.3331   -0.4338    1.0870 N   0  0  0  1  0  0  0  0  0  0  0  0
    4.5703   -5.6711   -3.5714 C   0  0  0  1  0  0  0  0  0  0  0  0
   -3.2295    1.2477    2.5461 N   0  0  0  1  0  0  0  0  0  0  0  0
   -2.0993    1.2285    1.6032 C   0  0  0  1  0  0  0  0  0  0  0  0
   -5.0795    2.7096    2.0881 C   0  0  0  1  0  0  0  0  0  0  0  0
   -5.8018    3.8369    2.4303 C   0  0  0  1  0  0  0  0  0  0  0  0
   -5.4896    4.6239    3.4644 N   0  0  0  1  0  0  0  0  0  0  0  0
   -4.4165    4.2842    4.1925 C   0  0  0  1  0  0  0  0  0  0  0  0
   -3.6394    3.1711    3.9230 C   0  0  0  1  0  0  0  0  0  0  0  0
    0.9421    3.5348   -0.2141 H   0  0  0  1  0  0  0  0  0  0  0  0
    4.1042   -0.1275   -4.7032 H   0  0  0  1  0  0  0  0  0  0  0  0
    3.4292   -4.1703   -2.1136 H   0  0  0  1  0  0  0  0  0  0  0  0
    2.6797   -2.0369   -1.2456 H   0  0  0  1  0  0  0  0  0  0  0  0
    4.8549   -2.2645   -5.5725 H   0  0  0  1  0  0  0  0  0  0  0  0
   -0.5666    0.4542    2.9440 H   0  0  0  1  0  0  0  0  0  0  0  0
   -1.8493   -1.5177    3.3916 H   0  0  0  1  0  0  0  0  0  0  0  0
   -2.5464   -1.5298    1.7891 H   0  0  0  1  0  0  0  0  0  0  0  0
   -4.3782   -0.5247    2.7783 H   0  0  0  1  0  0  0  0  0  0  0  0
   -3.4656   -0.0688    4.1972 H   0  0  0  1  0  0  0  0  0  0  0  0
   -0.2986   -1.4050    0.9606 H   0  0  0  1  0  0  0  0  0  0  0  0
    5.2306   -5.5181   -2.7435 H   0  0  0  1  0  0  0  0  0  0  0  0
    4.8695   -6.5465   -4.1090 H   0  0  0  1  0  0  0  0  0  0  0  0
    3.5706   -5.7973   -3.2114 H   0  0  0  1  0  0  0  0  0  0  0  0
   -1.5918    2.1705    1.6011 H   0  0  0  1  0  0  0  0  0  0  0  0
   -2.4359    1.0020    0.6131 H   0  0  0  1  0  0  0  0  0  0  0  0
   -5.3593    2.1285    1.2723 H   0  0  0  1  0  0  0  0  0  0  0  0
   -6.6308    4.0856    1.8536 H   0  0  0  1  0  0  0  0  0  0  0  0
   -4.1552    4.8864    4.9992 H   0  0  0  1  0  0  0  0  0  0  0  0
   -2.8165    2.9431    4.5166 H   0  0  0  1  0  0  0  0  0  0  0  0
  1  3  4  0  0  0  0
  1 14  4  0  0  0  0
  1 21  1  0  0  0  0
  2 14  4  0  0  0  0
  2 15  4  0  0  0  0
  2 30  1  0  0  0  0
  3 16  4  0  0  0  0
  4  5  4  0  0  0  0
  4  7  4  0  0  0  0
  4 17  1  0  0  0  0
  5  9  4  0  0  0  0
  5 31  1  0  0  0  0
  6  7  4  0  0  0  0
  6  8  4  0  0  0  0
  6 32  1  0  0  0  0
  7 33  1  0  0  0  0
  8  9  4  0  0  0  0
  8 20  1  0  0  0  0
  9 34  1  0  0  0  0
 10 11  1  0  0  0  0
 10 21  1  0  0  0  0
 10 24  1  0  0  0  0
 10 35  1  0  0  0  0
 11 12  1  0  0  0  0
 11 36  1  0  0  0  0
 11 37  1  0  0  0  0
 12 23  1  0  0  0  0
 12 38  1  0  0  0  0
 12 39  1  0  0  0  0
 13 23  1  0  0  0  0
 13 25  4  0  0  0  0
 13 29  4  0  0  0  0
 15 16  4  0  0  0  0
 15 18  4  0  0  0  0
 16 17  4  0  0  0  0
 17 19  4  0  0  0  0
 18 19  4  0  0  0  0
 20 22  1  0  0  0  0
 21 40  1  0  0  0  0
 22 41  1  0  0  0  0
 22 42  1  0  0  0  0
 22 43  1  0  0  0  0
 23 24  1  0  0  0  0
 24 44  1  0  0  0  0
 24 45  1  0  0  0  0
 25 26  4  0  0  0  0
 25 46  1  0  0  0  0
 26 27  4  0  0  0  0
 26 47  1  0  0  0  0
 27 28  4  0  0  0  0
 28 29  4  0  0  0  0
 28 48  1  0  0  0  0
 29 49  1  0  0  0  0
M  END
> <ConfClashScore>
0 

> <ConfOneFourInteractionScore>
-0.987833 

> <ConfScore>
-0.0420017 

> <ConfScorePBest>
0.00485941 

> <ConfTolerance>
0.316249 

> <HETNAM>
     OWQ A 303  OWQ                                                       

> <pdb_OW>
Q_303 -16.5129 3.80749 7.62812 0.15963 1.39178 -0.28144 -3.20151 0 0 0 -1.30514 0 0 0 0 0 0 0 0 -8.31393

$$$$
6yky_lig_1.pdb
 OpenBabel04162415593D

 49 53  0  0  0  0  0  0  0  0999 V2000
    1.2732   -1.2101   -2.5515 C   0  0  0  1  0  0  0  0  0  0  0  0
    3.1974   -2.2429   -3.2864 C   0  0  0  1  0  0  0  0  0  0  0  0
    1.6737   -1.1973   -1.2984 N   0  0  0  1  0  0  0  0  0  0  0  0
    3.2746   -1.4950    1.5607 C   0  0  0  1  0  0  0  0  0  0  0  0
    2.9474   -2.4777    2.4758 C   0  0  0  1  0  0  0  0  0  0  0  0
    2.8977    0.1861    3.2278 C   0  0  0  1  0  0  0  0  0  0  0  0
    3.2472   -0.1610    1.9364 C   0  0  0  1  0  0  0  0  0  0  0  0
    2.5695   -0.7994    4.1458 C   0  0  0  1  0  0  0  0  0  0  0  0
    2.5969   -2.1295    3.7710 C   0  0  0  1  0  0  0  0  0  0  0  0
   -0.8307   -0.1563   -1.8336 C   0  0  0  1  0  0  0  0  0  0  0  0
   -1.8543   -1.1985   -1.4094 C   0  0  0  1  0  0  0  0  0  0  0  0
   -3.0032   -0.3764   -0.8219 C   0  0  0  1  0  0  0  0  0  0  0  0
   -3.8004    1.9302   -1.4136 C   0  0  0  1  0  0  0  0  0  0  0  0
    2.0095   -1.7174   -3.5247 N   0  0  0  1  0  0  0  0  0  0  0  0
    3.6733   -2.2556   -1.9703 C   0  0  0  1  0  0  0  0  0  0  0  0
    2.8542   -1.7037   -0.9640 C   0  0  0  1  0  0  0  0  0  0  0  0
    3.5475   -1.8438    0.2064 N   0  0  0  1  0  0  0  0  0  0  0  0
    4.8054   -2.6982   -1.3809 N   0  0  0  1  0  0  0  0  0  0  0  0
    4.7603   -2.4719   -0.1142 N   0  0  0  1  0  0  0  0  0  0  0  0
    2.0933   -0.3868    5.3971 O   0  0  0  1  0  0  0  0  0  0  0  0
    0.0540   -0.6809   -2.8590 N   0  0  0  1  0  0  0  0  0  0  0  0
    2.1597    1.0167    5.6943 C   0  0  0  1  0  0  0  0  0  0  0  0
   -2.8922    0.9080   -1.5310 N   0  0  0  1  0  0  0  0  0  0  0  0
   -1.6936    0.9670   -2.3801 C   0  0  0  1  0  0  0  0  0  0  0  0
   -3.5356    3.1740   -1.9562 C   0  0  0  1  0  0  0  0  0  0  0  0
   -4.4794    4.1739   -1.8183 C   0  0  0  1  0  0  0  0  0  0  0  0
   -5.6421    4.0042   -1.1814 N   0  0  0  1  0  0  0  0  0  0  0  0
   -5.8838    2.7945   -0.6564 C   0  0  0  1  0  0  0  0  0  0  0  0
   -4.9967    1.7365   -0.7510 C   0  0  0  1  0  0  0  0  0  0  0  0
    3.7675   -2.6391   -4.0608 H   0  0  0  1  0  0  0  0  0  0  0  0
    2.9642   -3.4783    2.1928 H   0  0  0  1  0  0  0  0  0  0  0  0
    2.8810    1.1867    3.5108 H   0  0  0  1  0  0  0  0  0  0  0  0
    3.4895    0.5786    1.2466 H   0  0  0  1  0  0  0  0  0  0  0  0
    2.3546   -2.8692    4.4607 H   0  0  0  1  0  0  0  0  0  0  0  0
   -0.2512    0.1759   -0.9977 H   0  0  0  1  0  0  0  0  0  0  0  0
   -2.1871   -1.7684   -2.2516 H   0  0  0  1  0  0  0  0  0  0  0  0
   -1.4430   -1.8566   -0.6728 H   0  0  0  1  0  0  0  0  0  0  0  0
   -2.8807   -0.2445    0.2328 H   0  0  0  1  0  0  0  0  0  0  0  0
   -3.9469   -0.8419   -1.0164 H   0  0  0  1  0  0  0  0  0  0  0  0
   -0.2323   -0.6540   -3.7958 H   0  0  0  1  0  0  0  0  0  0  0  0
    1.4217    1.5383    5.1213 H   0  0  0  1  0  0  0  0  0  0  0  0
    3.1319    1.3881    5.4458 H   0  0  0  1  0  0  0  0  0  0  0  0
    1.9748    1.1694    6.7370 H   0  0  0  1  0  0  0  0  0  0  0  0
   -1.9414    0.7964   -3.4070 H   0  0  0  1  0  0  0  0  0  0  0  0
   -1.2007    1.9118   -2.2839 H   0  0  0  1  0  0  0  0  0  0  0  0
   -2.6430    3.3537   -2.4587 H   0  0  0  1  0  0  0  0  0  0  0  0
   -4.2745    5.1062   -2.2311 H   0  0  0  1  0  0  0  0  0  0  0  0
   -6.7817    2.6439   -0.1536 H   0  0  0  1  0  0  0  0  0  0  0  0
   -5.2265    0.8132   -0.3312 H   0  0  0  1  0  0  0  0  0  0  0  0
  1  3  4  0  0  0  0
  1 14  4  0  0  0  0
  1 21  1  0  0  0  0
  2 14  4  0  0  0  0
  2 15  4  0  0  0  0
  2 30  1  0  0  0  0
  3 16  4  0  0  0  0
  4  5  4  0  0  0  0
  4  7  4  0  0  0  0
  4 17  1  0  0  0  0
  5  9  4  0  0  0  0
  5 31  1  0  0  0  0
  6  7  4  0  0  0  0
  6  8  4  0  0  0  0
  6 32  1  0  0  0  0
  7 33  1  0  0  0  0
  8  9  4  0  0  0  0
  8 20  1  0  0  0  0
  9 34  1  0  0  0  0
 10 11  1  0  0  0  0
 10 21  1  0  0  0  0
 10 24  1  0  0  0  0
 10 35  1  0  0  0  0
 11 12  1  0  0  0  0
 11 36  1  0  0  0  0
 11 37  1  0  0  0  0
 12 23  1  0  0  0  0
 12 38  1  0  0  0  0
 12 39  1  0  0  0  0
 13 23  1  0  0  0  0
 13 25  4  0  0  0  0
 13 29  4  0  0  0  0
 15 16  4  0  0  0  0
 15 18  4  0  0  0  0
 16 17  4  0  0  0  0
 17 19  4  0  0  0  0
 18 19  4  0  0  0  0
 20 22  1  0  0  0  0
 21 40  1  0  0  0  0
 22 41  1  0  0  0  0
 22 42  1  0  0  0  0
 22 43  1  0  0  0  0
 23 24  1  0  0  0  0
 24 44  1  0  0  0  0
 24 45  1  0  0  0  0
 25 26  4  0  0  0  0
 25 46  1  0  0  0  0
 26 27  4  0  0  0  0
 26 47  1  0  0  0  0
 27 28  4  0  0  0  0
 28 29  4  0  0  0  0
 28 48  1  0  0  0  0
 29 49  1  0  0  0  0
M  END
> <ConfClashScore>
0 

> <ConfOneFourInteractionScore>
-0.986948 

> <ConfScore>
-0.0408326 

> <ConfScorePBest>
0.00484608 

> <ConfTolerance>
0.445305 

> <HETNAM>
     OWQ A 303  OWQ                                                       

> <pdb_OW>
Q_303 -16.5129 3.80749 7.62812 0.15963 1.39178 -0.28144 -3.20151 0 0 0 -1.30514 0 0 0 0 0 0 0 0 -8.31393

$$$$
6yky_lig_1.pdb
 OpenBabel04162415593D

 49 53  0  0  0  0  0  0  0  0999 V2000
    1.6881   -0.7072    0.9547 C   0  0  0  1  0  0  0  0  0  0  0  0
    2.9701   -2.5596    1.4392 C   0  0  0  1  0  0  0  0  0  0  0  0
    1.3963   -1.1371   -0.2540 N   0  0  0  1  0  0  0  0  0  0  0  0
    1.0845   -2.7876   -3.0833 C   0  0  0  1  0  0  0  0  0  0  0  0
    0.3604   -1.6260   -3.2742 C   0  0  0  1  0  0  0  0  0  0  0  0
    0.3473   -3.6002   -5.2148 C   0  0  0  1  0  0  0  0  0  0  0  0
    1.0759   -3.7774   -4.0537 C   0  0  0  1  0  0  0  0  0  0  0  0
   -0.3790   -2.4352   -5.4065 C   0  0  0  1  0  0  0  0  0  0  0  0
   -0.3702   -1.4484   -4.4388 C   0  0  0  1  0  0  0  0  0  0  0  0
    1.3372    0.9987    2.7115 C   0  0  0  1  0  0  0  0  0  0  0  0
    0.5424    0.1729    3.6800 C   0  0  0  1  0  0  0  0  0  0  0  0
   -0.8846    0.7608    3.4958 C   0  0  0  1  0  0  0  0  0  0  0  0
   -1.5788    3.1551    3.2392 C   0  0  0  1  0  0  0  0  0  0  0  0
    2.4536   -1.3942    1.7845 N   0  0  0  1  0  0  0  0  0  0  0  0
    2.6919   -3.0649    0.1641 C   0  0  0  1  0  0  0  0  0  0  0  0
    1.8707   -2.2983   -0.6881 C   0  0  0  1  0  0  0  0  0  0  0  0
    1.7628   -3.0109   -1.8502 N   0  0  0  1  0  0  0  0  0  0  0  0
    3.0406   -4.1869   -0.5026 N   0  0  0  1  0  0  0  0  0  0  0  0
    2.5144   -4.1829   -1.6777 N   0  0  0  1  0  0  0  0  0  0  0  0
   -1.0933   -2.2648   -6.5360 O   0  0  0  1  0  0  0  0  0  0  0  0
    1.1882    0.4785    1.3635 N   0  0  0  1  0  0  0  0  0  0  0  0
   -1.6601   -0.9451   -6.7085 C   0  0  0  1  0  0  0  0  0  0  0  0
   -0.5993    2.1364    3.1810 N   0  0  0  1  0  0  0  0  0  0  0  0
    0.7775    2.3901    2.7991 C   0  0  0  1  0  0  0  0  0  0  0  0
   -2.4481    3.3581    2.1834 C   0  0  0  1  0  0  0  0  0  0  0  0
   -3.3925    4.3620    2.2835 C   0  0  0  1  0  0  0  0  0  0  0  0
   -3.5107    5.1558    3.3523 N   0  0  0  1  0  0  0  0  0  0  0  0
   -2.6586    4.9506    4.3667 C   0  0  0  1  0  0  0  0  0  0  0  0
   -1.6856    3.9665    4.3518 C   0  0  0  1  0  0  0  0  0  0  0  0
    3.5711   -3.0909    2.1011 H   0  0  0  1  0  0  0  0  0  0  0  0
    0.3638   -0.8852   -2.5443 H   0  0  0  1  0  0  0  0  0  0  0  0
    0.3440   -4.3411   -5.9447 H   0  0  0  1  0  0  0  0  0  0  0  0
    1.6175   -4.6532   -3.9081 H   0  0  0  1  0  0  0  0  0  0  0  0
   -0.9118   -0.5726   -4.5843 H   0  0  0  1  0  0  0  0  0  0  0  0
    2.3722    0.9964    2.9828 H   0  0  0  1  0  0  0  0  0  0  0  0
    0.5726   -0.8656    3.4238 H   0  0  0  1  0  0  0  0  0  0  0  0
    0.8918    0.3037    4.6828 H   0  0  0  1  0  0  0  0  0  0  0  0
   -1.4586    0.6782    4.3950 H   0  0  0  1  0  0  0  0  0  0  0  0
   -1.4042    0.2779    2.6947 H   0  0  0  1  0  0  0  0  0  0  0  0
    0.6957    1.0203    0.7121 H   0  0  0  1  0  0  0  0  0  0  0  0
   -2.1112   -0.6275   -5.7917 H   0  0  0  1  0  0  0  0  0  0  0  0
   -2.4017   -0.9737   -7.4794 H   0  0  0  1  0  0  0  0  0  0  0  0
   -0.8869   -0.2580   -6.9821 H   0  0  0  1  0  0  0  0  0  0  0  0
    0.8332    2.8918    1.8557 H   0  0  0  1  0  0  0  0  0  0  0  0
    1.2868    2.9681    3.5416 H   0  0  0  1  0  0  0  0  0  0  0  0
   -2.3923    2.7665    1.3299 H   0  0  0  1  0  0  0  0  0  0  0  0
   -4.0446    4.5073    1.4865 H   0  0  0  1  0  0  0  0  0  0  0  0
   -2.7323    5.5608    5.2058 H   0  0  0  1  0  0  0  0  0  0  0  0
   -1.0471    3.8403    5.1630 H   0  0  0  1  0  0  0  0  0  0  0  0
  1  3  4  0  0  0  0
  1 14  4  0  0  0  0
  1 21  1  0  0  0  0
  2 14  4  0  0  0  0
  2 15  4  0  0  0  0
  2 30  1  0  0  0  0
  3 16  4  0  0  0  0
  4  5  4  0  0  0  0
  4  7  4  0  0  0  0
  4 17  1  0  0  0  0
  5  9  4  0  0  0  0
  5 31  1  0  0  0  0
  6  7  4  0  0  0  0
  6  8  4  0  0  0  0
  6 32  1  0  0  0  0
  7 33  1  0  0  0  0
  8  9  4  0  0  0  0
  8 20  1  0  0  0  0
  9 34  1  0  0  0  0
 10 11  1  0  0  0  0
 10 21  1  0  0  0  0
 10 24  1  0  0  0  0
 10 35  1  0  0  0  0
 11 12  1  0  0  0  0
 11 36  1  0  0  0  0
 11 37  1  0  0  0  0
 12 23  1  0  0  0  0
 12 38  1  0  0  0  0
 12 39  1  0  0  0  0
 13 23  1  0  0  0  0
 13 25  4  0  0  0  0
 13 29  4  0  0  0  0
 15 16  4  0  0  0  0
 15 18  4  0  0  0  0
 16 17  4  0  0  0  0
 17 19  4  0  0  0  0
 18 19  4  0  0  0  0
 20 22  1  0  0  0  0
 21 40  1  0  0  0  0
 22 41  1  0  0  0  0
 22 42  1  0  0  0  0
 22 43  1  0  0  0  0
 23 24  1  0  0  0  0
 24 44  1  0  0  0  0
 24 45  1  0  0  0  0
 25 26  4  0  0  0  0
 25 46  1  0  0  0  0
 26 27  4  0  0  0  0
 26 47  1  0  0  0  0
 27 28  4  0  0  0  0
 28 29  4  0  0  0  0
 28 48  1  0  0  0  0
 29 49  1  0  0  0  0
M  END
> <ConfClashScore>
0 

> <ConfOneFourInteractionScore>
-0.984874 

> <ConfScore>
-0.039878 

> <ConfScorePBest>
0.00483275 

> <ConfTolerance>
0.493164 

> <HETNAM>
     OWQ A 303  OWQ                                                       

> <pdb_OW>
Q_303 -16.5129 3.80749 7.62812 0.15963 1.39178 -0.28144 -3.20151 0 0 0 -1.30514 0 0 0 0 0 0 0 0 -8.31393

$$$$
6yky_lig_1.pdb
 OpenBabel04162415593D

 49 53  0  0  0  0  0  0  0  0999 V2000
    0.2248   -0.3732   -2.5590 C   0  0  0  1  0  0  0  0  0  0  0  0
    0.4105   -2.1578   -4.0048 C   0  0  0  1  0  0  0  0  0  0  0  0
    0.7652   -1.0356   -1.5589 N   0  0  0  1  0  0  0  0  0  0  0  0
    2.0742   -3.2786    0.4716 C   0  0  0  1  0  0  0  0  0  0  0  0
    1.8671   -2.1702    1.2708 C   0  0  0  1  0  0  0  0  0  0  0  0
    3.1009   -4.4181    2.3140 C   0  0  0  1  0  0  0  0  0  0  0  0
    2.6944   -4.4032    0.9931 C   0  0  0  1  0  0  0  0  0  0  0  0
    2.8933   -3.3064    3.1158 C   0  0  0  1  0  0  0  0  0  0  0  0
    2.2748   -2.1852    2.5955 C   0  0  0  1  0  0  0  0  0  0  0  0
    0.1248    1.5352   -0.9993 C   0  0  0  1  0  0  0  0  0  0  0  0
   -0.6062    0.7935    0.1142 C   0  0  0  1  0  0  0  0  0  0  0  0
   -2.0353    1.3486    0.0559 C   0  0  0  1  0  0  0  0  0  0  0  0
   -2.8598    3.6189   -0.6469 C   0  0  0  1  0  0  0  0  0  0  0  0
    0.0490   -0.9130   -3.7525 N   0  0  0  1  0  0  0  0  0  0  0  0
    0.9909   -2.9090   -2.9764 C   0  0  0  1  0  0  0  0  0  0  0  0
    1.1593   -2.2929   -1.7193 C   0  0  0  1  0  0  0  0  0  0  0  0
    1.7379   -3.2331   -0.9123 N   0  0  0  1  0  0  0  0  0  0  0  0
    1.4644   -4.1707   -2.8816 N   0  0  0  1  0  0  0  0  0  0  0  0
    1.9056   -4.3876   -1.6916 N   0  0  0  1  0  0  0  0  0  0  0  0
    3.3353   -3.4348    4.3819 O   0  0  0  1  0  0  0  0  0  0  0  0
   -0.1575    0.9314   -2.3057 N   0  0  0  1  0  0  0  0  0  0  0  0
    3.1262   -2.2771    5.2236 C   0  0  0  1  0  0  0  0  0  0  0  0
   -1.8461    2.6963   -0.5103 N   0  0  0  1  0  0  0  0  0  0  0  0
   -0.4464    2.9470   -0.9153 C   0  0  0  1  0  0  0  0  0  0  0  0
   -3.0613    4.5921    0.3143 C   0  0  0  1  0  0  0  0  0  0  0  0
   -4.0874    5.5003    0.1357 C   0  0  0  1  0  0  0  0  0  0  0  0
   -4.9042    5.4875   -0.9221 N   0  0  0  1  0  0  0  0  0  0  0  0
   -4.7002    4.5359   -1.8440 C   0  0  0  1  0  0  0  0  0  0  0  0
   -3.6949    3.5898   -1.7467 C   0  0  0  1  0  0  0  0  0  0  0  0
    0.2669   -2.5714   -4.9481 H   0  0  0  1  0  0  0  0  0  0  0  0
    1.4054   -1.3250    0.8783 H   0  0  0  1  0  0  0  0  0  0  0  0
    3.5626   -5.2633    2.7065 H   0  0  0  1  0  0  0  0  0  0  0  0
    2.8538   -5.2358    0.3905 H   0  0  0  1  0  0  0  0  0  0  0  0
    2.1154   -1.3526    3.1981 H   0  0  0  1  0  0  0  0  0  0  0  0
    1.1811    1.5385   -0.8281 H   0  0  0  1  0  0  0  0  0  0  0  0
   -0.6007   -0.2614   -0.0646 H   0  0  0  1  0  0  0  0  0  0  0  0
   -0.1580    0.9970    1.0643 H   0  0  0  1  0  0  0  0  0  0  0  0
   -2.4678    1.3998    1.0332 H   0  0  0  1  0  0  0  0  0  0  0  0
   -2.6548    0.7491   -0.5779 H   0  0  0  1  0  0  0  0  0  0  0  0
   -0.6162    1.4516   -2.9979 H   0  0  0  1  0  0  0  0  0  0  0  0
    3.4719   -1.4002    4.7172 H   0  0  0  1  0  0  0  0  0  0  0  0
    3.6692   -2.3982    6.1376 H   0  0  0  1  0  0  0  0  0  0  0  0
    2.0829   -2.1765    5.4386 H   0  0  0  1  0  0  0  0  0  0  0  0
    0.0702    3.5310   -0.1826 H   0  0  0  1  0  0  0  0  0  0  0  0
   -0.3999    3.4408   -1.8634 H   0  0  0  1  0  0  0  0  0  0  0  0
   -2.4521    4.6397    1.1558 H   0  0  0  1  0  0  0  0  0  0  0  0
   -4.2315    6.2310    0.8616 H   0  0  0  1  0  0  0  0  0  0  0  0
   -5.3280    4.5072   -2.6727 H   0  0  0  1  0  0  0  0  0  0  0  0
   -3.5705    2.8706   -2.4876 H   0  0  0  1  0  0  0  0  0  0  0  0
  1  3  4  0  0  0  0
  1 14  4  0  0  0  0
  1 21  1  0  0  0  0
  2 14  4  0  0  0  0
  2 15  4  0  0  0  0
  2 30  1  0  0  0  0
  3 16  4  0  0  0  0
  4  5  4  0  0  0  0
  4  7  4  0  0  0  0
  4 17  1  0  0  0  0
  5  9  4  0  0  0  0
  5 31  1  0  0  0  0
  6  7  4  0  0  0  0
  6  8  4  0  0  0  0
  6 32  1  0  0  0  0
  7 33  1  0  0  0  0
  8  9  4  0  0  0  0
  8 20  1  0  0  0  0
  9 34  1  0  0  0  0
 10 11  1  0  0  0  0
 10 21  1  0  0  0  0
 10 24  1  0  0  0  0
 10 35  1  0  0  0  0
 11 12  1  0  0  0  0
 11 36  1  0  0  0  0
 11 37  1  0  0  0  0
 12 23  1  0  0  0  0
 12 38  1  0  0  0  0
 12 39  1  0  0  0  0
 13 23  1  0  0  0  0
 13 25  4  0  0  0  0
 13 29  4  0  0  0  0
 15 16  4  0  0  0  0
 15 18  4  0  0  0  0
 16 17  4  0  0  0  0
 17 19  4  0  0  0  0
 18 19  4  0  0  0  0
 20 22  1  0  0  0  0
 21 40  1  0  0  0  0
 22 41  1  0  0  0  0
 22 42  1  0  0  0  0
 22 43  1  0  0  0  0
 23 24  1  0  0  0  0
 24 44  1  0  0  0  0
 24 45  1  0  0  0  0
 25 26  4  0  0  0  0
 25 46  1  0  0  0  0
 26 27  4  0  0  0  0
 26 47  1  0  0  0  0
 27 28  4  0  0  0  0
 28 29  4  0  0  0  0
 28 48  1  0  0  0  0
 29 49  1  0  0  0  0
M  END
> <ConfClashScore>
0 

> <ConfOneFourInteractionScore>
-0.981795 

> <ConfScore>
-0.039878 

> <ConfScorePBest>
0.00481943 

> <ConfTolerance>
0.444946 

> <HETNAM>
     OWQ A 303  OWQ                                                       

> <pdb_OW>
Q_303 -16.5129 3.80749 7.62812 0.15963 1.39178 -0.28144 -3.20151 0 0 0 -1.30514 0 0 0 0 0 0 0 0 -8.31393

$$$$
6yky_lig_1.pdb
 OpenBabel04162415593D

 49 53  0  0  0  0  0  0  0  0999 V2000
    1.1792   -0.3493    1.1584 C   0  0  0  1  0  0  0  0  0  0  0  0
    3.1068   -0.8903    2.2991 C   0  0  0  1  0  0  0  0  0  0  0  0
    1.6141   -0.8724    0.0323 N   0  0  0  1  0  0  0  0  0  0  0  0
    3.2583   -2.3144   -2.3803 C   0  0  0  1  0  0  0  0  0  0  0  0
    2.7125   -1.3270   -3.1786 C   0  0  0  1  0  0  0  0  0  0  0  0
    3.0835   -3.8773   -4.1897 C   0  0  0  1  0  0  0  0  0  0  0  0
    3.4417   -3.5921   -2.8856 C   0  0  0  1  0  0  0  0  0  0  0  0
    2.5360   -2.8871   -4.9906 C   0  0  0  1  0  0  0  0  0  0  0  0
    2.3533   -1.6132   -4.4865 C   0  0  0  1  0  0  0  0  0  0  0  0
   -0.6559    0.7616    2.3815 C   0  0  0  1  0  0  0  0  0  0  0  0
   -1.6616   -0.2343    3.0008 C   0  0  0  1  0  0  0  0  0  0  0  0
   -2.8632    0.5563    3.4535 C   0  0  0  1  0  0  0  0  0  0  0  0
   -3.5482    2.9306    2.7504 C   0  0  0  1  0  0  0  0  0  0  0  0
    1.9003   -0.3544    2.2659 N   0  0  0  1  0  0  0  0  0  0  0  0
    3.6193   -1.4613    1.1287 C   0  0  0  1  0  0  0  0  0  0  0  0
    2.8154   -1.4335   -0.0294 C   0  0  0  1  0  0  0  0  0  0  0  0
    3.5446   -2.0470   -1.0103 N   0  0  0  1  0  0  0  0  0  0  0  0
    4.7781   -2.0776    0.8088 N   0  0  0  1  0  0  0  0  0  0  0  0
    4.7631   -2.4294   -0.4296 N   0  0  0  1  0  0  0  0  0  0  0  0
    2.0941   -3.1947   -6.2331 O   0  0  0  1  0  0  0  0  0  0  0  0
   -0.0433    0.2112    1.1850 N   0  0  0  1  0  0  0  0  0  0  0  0
    1.4712   -2.1431   -6.9871 C   0  0  0  1  0  0  0  0  0  0  0  0
   -2.6405    1.8920    2.7110 N   0  0  0  1  0  0  0  0  0  0  0  0
   -1.5301    1.9546    2.0485 C   0  0  0  1  0  0  0  0  0  0  0  0
   -4.3916    3.0420    1.6605 C   0  0  0  1  0  0  0  0  0  0  0  0
   -5.3254    4.0605    1.6440 C   0  0  0  1  0  0  0  0  0  0  0  0
   -5.4570    4.9529    2.6302 N   0  0  0  1  0  0  0  0  0  0  0  0
   -4.6298    4.8357    3.6787 C   0  0  0  1  0  0  0  0  0  0  0  0
   -3.6691    3.8446    3.7789 C   0  0  0  1  0  0  0  0  0  0  0  0
    3.6646   -0.8881    3.1769 H   0  0  0  1  0  0  0  0  0  0  0  0
    2.5712   -0.3695   -2.7981 H   0  0  0  1  0  0  0  0  0  0  0  0
    3.2248   -4.8348   -4.5701 H   0  0  0  1  0  0  0  0  0  0  0  0
    3.8487   -4.3360   -2.2835 H   0  0  0  1  0  0  0  0  0  0  0  0
    1.9462   -0.8693   -5.0885 H   0  0  0  1  0  0  0  0  0  0  0  0
    0.1067    1.0264    3.0837 H   0  0  0  1  0  0  0  0  0  0  0  0
   -1.2155   -0.7312    3.8368 H   0  0  0  1  0  0  0  0  0  0  0  0
   -1.9553   -0.9585    2.2699 H   0  0  0  1  0  0  0  0  0  0  0  0
   -3.7768    0.0879    3.1522 H   0  0  0  1  0  0  0  0  0  0  0  0
   -2.8652    0.6934    4.5147 H   0  0  0  1  0  0  0  0  0  0  0  0
   -0.5507    0.2504    0.3475 H   0  0  0  1  0  0  0  0  0  0  0  0
    2.1124   -1.2866   -7.0026 H   0  0  0  1  0  0  0  0  0  0  0  0
    0.5388   -1.8821   -6.5316 H   0  0  0  1  0  0  0  0  0  0  0  0
    1.2983   -2.4770   -7.9888 H   0  0  0  1  0  0  0  0  0  0  0  0
   -1.0136    2.8550    2.3082 H   0  0  0  1  0  0  0  0  0  0  0  0
   -1.7434    1.9550    1.0000 H   0  0  0  1  0  0  0  0  0  0  0  0
   -4.3246    2.3718    0.8681 H   0  0  0  1  0  0  0  0  0  0  0  0
   -5.9581    4.1366    0.8221 H   0  0  0  1  0  0  0  0  0  0  0  0
   -4.7142    5.5231    4.4546 H   0  0  0  1  0  0  0  0  0  0  0  0
   -3.0500    3.7890    4.6127 H   0  0  0  1  0  0  0  0  0  0  0  0
  1  3  4  0  0  0  0
  1 14  4  0  0  0  0
  1 21  1  0  0  0  0
  2 14  4  0  0  0  0
  2 15  4  0  0  0  0
  2 30  1  0  0  0  0
  3 16  4  0  0  0  0
  4  5  4  0  0  0  0
  4  7  4  0  0  0  0
  4 17  1  0  0  0  0
  5  9  4  0  0  0  0
  5 31  1  0  0  0  0
  6  7  4  0  0  0  0
  6  8  4  0  0  0  0
  6 32  1  0  0  0  0
  7 33  1  0  0  0  0
  8  9  4  0  0  0  0
  8 20  1  0  0  0  0
  9 34  1  0  0  0  0
 10 11  1  0  0  0  0
 10 21  1  0  0  0  0
 10 24  1  0  0  0  0
 10 35  1  0  0  0  0
 11 12  1  0  0  0  0
 11 36  1  0  0  0  0
 11 37  1  0  0  0  0
 12 23  1  0  0  0  0
 12 38  1  0  0  0  0
 12 39  1  0  0  0  0
 13 23  1  0  0  0  0
 13 25  4  0  0  0  0
 13 29  4  0  0  0  0
 15 16  4  0  0  0  0
 15 18  4  0  0  0  0
 16 17  4  0  0  0  0
 17 19  4  0  0  0  0
 18 19  4  0  0  0  0
 20 22  1  0  0  0  0
 21 40  1  0  0  0  0
 22 41  1  0  0  0  0
 22 42  1  0  0  0  0
 22 43  1  0  0  0  0
 23 24  1  0  0  0  0
 24 44  1  0  0  0  0
 24 45  1  0  0  0  0
 25 26  4  0  0  0  0
 25 46  1  0  0  0  0
 26 27  4  0  0  0  0
 26 47  1  0  0  0  0
 27 28  4  0  0  0  0
 28 29  4  0  0  0  0
 28 48  1  0  0  0  0
 29 49  1  0  0  0  0
M  END
> <ConfClashScore>
0 

> <ConfOneFourInteractionScore>
-0.986948 

> <ConfScore>
-0.0396471 

> <ConfScorePBest>
0.0048061 

> <ConfTolerance>
0.50267 

> <HETNAM>
     OWQ A 303  OWQ                                                       

> <pdb_OW>
Q_303 -16.5129 3.80749 7.62812 0.15963 1.39178 -0.28144 -3.20151 0 0 0 -1.30514 0 0 0 0 0 0 0 0 -8.31393

$$$$
6yky_lig_1.pdb
 OpenBabel04162415593D

 49 53  0  0  0  0  0  0  0  0999 V2000
    1.8670   -0.2475    0.6117 C   0  0  0  1  0  0  0  0  0  0  0  0
    4.1151   -0.5141    0.1826 C   0  0  0  1  0  0  0  0  0  0  0  0
    1.5131   -0.7381   -0.5567 N   0  0  0  1  0  0  0  0  0  0  0  0
    1.3238   -2.0181   -3.5448 C   0  0  0  1  0  0  0  0  0  0  0  0
    0.0907   -2.3501   -3.0162 C   0  0  0  1  0  0  0  0  0  0  0  0
    0.5137   -2.5069   -5.7476 C   0  0  0  1  0  0  0  0  0  0  0  0
    1.5366   -2.0991   -4.9122 C   0  0  0  1  0  0  0  0  0  0  0  0
   -0.7231   -2.8400   -5.2176 C   0  0  0  1  0  0  0  0  0  0  0  0
   -0.9350   -2.7591   -3.8542 C   0  0  0  1  0  0  0  0  0  0  0  0
    1.2166    0.7613    2.7591 C   0  0  0  1  0  0  0  0  0  0  0  0
    0.5521    0.0042    3.8714 C   0  0  0  1  0  0  0  0  0  0  0  0
   -0.8858    0.5931    3.8360 C   0  0  0  1  0  0  0  0  0  0  0  0
   -1.6130    2.9833    3.5233 C   0  0  0  1  0  0  0  0  0  0  0  0
    3.1316   -0.1354    0.9785 N   0  0  0  1  0  0  0  0  0  0  0  0
    3.7957   -1.0436   -1.0729 C   0  0  0  1  0  0  0  0  0  0  0  0
    2.4334   -1.1447   -1.4225 C   0  0  0  1  0  0  0  0  0  0  0  0
    2.4049   -1.6844   -2.6786 N   0  0  0  1  0  0  0  0  0  0  0  0
    4.5214   -1.5162   -2.1096 N   0  0  0  1  0  0  0  0  0  0  0  0
    3.7387   -1.8963   -3.0586 N   0  0  0  1  0  0  0  0  0  0  0  0
   -1.6428   -3.3542   -6.0570 O   0  0  0  1  0  0  0  0  0  0  0  0
    0.8943    0.1606    1.4767 N   0  0  0  1  0  0  0  0  0  0  0  0
   -2.9488   -3.5728   -5.4747 C   0  0  0  1  0  0  0  0  0  0  0  0
   -0.6415    1.9439    3.4021 N   0  0  0  1  0  0  0  0  0  0  0  0
    0.6748    2.1606    2.8312 C   0  0  0  1  0  0  0  0  0  0  0  0
   -1.6090    3.9021    4.5565 C   0  0  0  1  0  0  0  0  0  0  0  0
   -2.5903    4.8746    4.5849 C   0  0  0  1  0  0  0  0  0  0  0  0
   -3.5526    4.9747    3.6628 N   0  0  0  1  0  0  0  0  0  0  0  0
   -3.5470    4.0748    2.6692 C   0  0  0  1  0  0  0  0  0  0  0  0
   -2.6005    3.0708    2.5615 C   0  0  0  1  0  0  0  0  0  0  0  0
    5.1065   -0.4209    0.4827 H   0  0  0  1  0  0  0  0  0  0  0  0
   -0.0676   -2.2932   -1.9899 H   0  0  0  1  0  0  0  0  0  0  0  0
    0.6721   -2.5639   -6.7739 H   0  0  0  1  0  0  0  0  0  0  0  0
    2.4657   -1.8531   -5.3094 H   0  0  0  1  0  0  0  0  0  0  0  0
   -1.8641   -3.0051   -3.4569 H   0  0  0  1  0  0  0  0  0  0  0  0
    2.2780    0.7659    2.8947 H   0  0  0  1  0  0  0  0  0  0  0  0
    0.5475   -1.0483    3.6787 H   0  0  0  1  0  0  0  0  0  0  0  0
    1.0282    0.1933    4.8108 H   0  0  0  1  0  0  0  0  0  0  0  0
   -1.5051    0.0667    3.1401 H   0  0  0  1  0  0  0  0  0  0  0  0
   -1.3392    0.5716    4.8050 H   0  0  0  1  0  0  0  0  0  0  0  0
   -0.0462    0.0455    1.2264 H   0  0  0  1  0  0  0  0  0  0  0  0
   -2.8541   -4.1921   -4.6073 H   0  0  0  1  0  0  0  0  0  0  0  0
   -3.5817   -4.0554   -6.1899 H   0  0  0  1  0  0  0  0  0  0  0  0
   -3.3768   -2.6324   -5.1963 H   0  0  0  1  0  0  0  0  0  0  0  0
    1.2765    2.7785    3.4645 H   0  0  0  1  0  0  0  0  0  0  0  0
    0.6091    2.6027    1.8590 H   0  0  0  1  0  0  0  0  0  0  0  0
   -0.8811    3.8620    5.2982 H   0  0  0  1  0  0  0  0  0  0  0  0
   -2.5795    5.5638    5.3637 H   0  0  0  1  0  0  0  0  0  0  0  0
   -4.2901    4.1339    1.9440 H   0  0  0  1  0  0  0  0  0  0  0  0
   -2.6322    2.3952    1.7715 H   0  0  0  1  0  0  0  0  0  0  0  0
  1  3  4  0  0  0  0
  1 14  4  0  0  0  0
  1 21  1  0  0  0  0
  2 14  4  0  0  0  0
  2 15  4  0  0  0  0
  2 30  1  0  0  0  0
  3 16  4  0  0  0  0
  4  5  4  0  0  0  0
  4  7  4  0  0  0  0
  4 17  1  0  0  0  0
  5  9  4  0  0  0  0
  5 31  1  0  0  0  0
  6  7  4  0  0  0  0
  6  8  4  0  0  0  0
  6 32  1  0  0  0  0
  7 33  1  0  0  0  0
  8  9  4  0  0  0  0
  8 20  1  0  0  0  0
  9 34  1  0  0  0  0
 10 11  1  0  0  0  0
 10 21  1  0  0  0  0
 10 24  1  0  0  0  0
 10 35  1  0  0  0  0
 11 12  1  0  0  0  0
 11 36  1  0  0  0  0
 11 37  1  0  0  0  0
 12 23  1  0  0  0  0
 12 38  1  0  0  0  0
 12 39  1  0  0  0  0
 13 23  1  0  0  0  0
 13 25  4  0  0  0  0
 13 29  4  0  0  0  0
 15 16  4  0  0  0  0
 15 18  4  0  0  0  0
 16 17  4  0  0  0  0
 17 19  4  0  0  0  0
 18 19  4  0  0  0  0
 20 22  1  0  0  0  0
 21 40  1  0  0  0  0
 22 41  1  0  0  0  0
 22 42  1  0  0  0  0
 22 43  1  0  0  0  0
 23 24  1  0  0  0  0
 24 44  1  0  0  0  0
 24 45  1  0  0  0  0
 25 26  4  0  0  0  0
 25 46  1  0  0  0  0
 26 27  4  0  0  0  0
 26 47  1  0  0  0  0
 27 28  4  0  0  0  0
 28 29  4  0  0  0  0
 28 48  1  0  0  0  0
 29 49  1  0  0  0  0
M  END
> <ConfClashScore>
0 

> <ConfOneFourInteractionScore>
-0.986948 

> <ConfScore>
-0.0394442 

> <ConfScorePBest>
0.00479277 

> <ConfTolerance>
0.510064 

> <HETNAM>
     OWQ A 303  OWQ                                                       

> <pdb_OW>
Q_303 -16.5129 3.80749 7.62812 0.15963 1.39178 -0.28144 -3.20151 0 0 0 -1.30514 0 0 0 0 0 0 0 0 -8.31393

$$$$
6yky_lig_1.pdb
 OpenBabel04162415593D

 49 53  0  0  0  0  0  0  0  0999 V2000
    1.1304    0.0616    1.0667 C   0  0  0  1  0  0  0  0  0  0  0  0
    3.1404    1.1482    1.3647 C   0  0  0  1  0  0  0  0  0  0  0  0
    1.5360   -0.5376   -0.0321 N   0  0  0  1  0  0  0  0  0  0  0  0
    3.1328   -1.6765   -2.6313 C   0  0  0  1  0  0  0  0  0  0  0  0
    3.6468   -1.4122   -3.8868 C   0  0  0  1  0  0  0  0  0  0  0  0
    1.8768   -3.5105   -3.5292 C   0  0  0  1  0  0  0  0  0  0  0  0
    2.2445   -2.7255   -2.4526 C   0  0  0  1  0  0  0  0  0  0  0  0
    2.3922   -3.2455   -4.7884 C   0  0  0  1  0  0  0  0  0  0  0  0
    3.2780   -2.1995   -4.9664 C   0  0  0  1  0  0  0  0  0  0  0  0
   -0.7343    0.4144    2.6991 C   0  0  0  1  0  0  0  0  0  0  0  0
   -1.7195   -0.5786    3.3548 C   0  0  0  1  0  0  0  0  0  0  0  0
   -2.9331    0.2048    3.7875 C   0  0  0  1  0  0  0  0  0  0  0  0
   -3.6749    2.5560    3.0121 C   0  0  0  1  0  0  0  0  0  0  0  0
    1.9058    0.8836    1.7520 N   0  0  0  1  0  0  0  0  0  0  0  0
    3.6237    0.5376    0.2019 C   0  0  0  1  0  0  0  0  0  0  0  0
    2.7619   -0.3320   -0.4975 C   0  0  0  1  0  0  0  0  0  0  0  0
    3.4730   -0.7825   -1.5752 N   0  0  0  1  0  0  0  0  0  0  0  0
    4.7970    0.5775   -0.4665 N   0  0  0  1  0  0  0  0  0  0  0  0
    4.7386   -0.1811   -1.5052 N   0  0  0  1  0  0  0  0  0  0  0  0
    1.9616   -4.0666   -5.7531 O   0  0  0  1  0  0  0  0  0  0  0  0
   -0.1115   -0.1685    1.5074 N   0  0  0  1  0  0  0  0  0  0  0  0
    2.2556   -3.8144   -7.1684 C   0  0  0  1  0  0  0  0  0  0  0  0
   -2.7373    1.5196    3.0015 N   0  0  0  1  0  0  0  0  0  0  0  0
   -1.6309    1.5805    2.3321 C   0  0  0  1  0  0  0  0  0  0  0  0
   -4.8006    2.4961    2.2114 C   0  0  0  1  0  0  0  0  0  0  0  0
   -5.7041    3.5408    2.2558 C   0  0  0  1  0  0  0  0  0  0  0  0
   -5.5467    4.6159    3.0341 N   0  0  0  1  0  0  0  0  0  0  0  0
   -4.4488    4.6628    3.8019 C   0  0  0  1  0  0  0  0  0  0  0  0
   -3.4952    3.6599    3.8224 C   0  0  0  1  0  0  0  0  0  0  0  0
    3.7409    1.7969    1.9125 H   0  0  0  1  0  0  0  0  0  0  0  0
    4.3102   -0.6226   -4.0215 H   0  0  0  1  0  0  0  0  0  0  0  0
    1.2134   -4.3000   -3.3944 H   0  0  0  1  0  0  0  0  0  0  0  0
    1.8547   -2.9218   -1.5087 H   0  0  0  1  0  0  0  0  0  0  0  0
    3.6678   -2.0032   -5.9103 H   0  0  0  1  0  0  0  0  0  0  0  0
    0.0265    0.7150    3.3888 H   0  0  0  1  0  0  0  0  0  0  0  0
   -1.2612   -1.0405    4.2042 H   0  0  0  1  0  0  0  0  0  0  0  0
   -2.0034   -1.3310    2.6489 H   0  0  0  1  0  0  0  0  0  0  0  0
   -2.9330    0.3758    4.8438 H   0  0  0  1  0  0  0  0  0  0  0  0
   -3.8395   -0.2891    3.5057 H   0  0  0  1  0  0  0  0  0  0  0  0
   -0.6590   -0.7882    0.9813 H   0  0  0  1  0  0  0  0  0  0  0  0
    3.3097   -3.8946   -7.3339 H   0  0  0  1  0  0  0  0  0  0  0  0
    1.9274   -2.8304   -7.4307 H   0  0  0  1  0  0  0  0  0  0  0  0
    1.7442   -4.5344   -7.7725 H   0  0  0  1  0  0  0  0  0  0  0  0
   -1.1294    2.4977    2.5604 H   0  0  0  1  0  0  0  0  0  0  0  0
   -1.8486    1.5434    1.2851 H   0  0  0  1  0  0  0  0  0  0  0  0
   -4.9643    1.6803    1.5876 H   0  0  0  1  0  0  0  0  0  0  0  0
   -6.5497    3.4878    1.6527 H   0  0  0  1  0  0  0  0  0  0  0  0
   -4.3066    5.4932    4.4117 H   0  0  0  1  0  0  0  0  0  0  0  0
   -2.6593    3.7361    4.4364 H   0  0  0  1  0  0  0  0  0  0  0  0
  1  3  4  0  0  0  0
  1 14  4  0  0  0  0
  1 21  1  0  0  0  0
  2 14  4  0  0  0  0
  2 15  4  0  0  0  0
  2 30  1  0  0  0  0
  3 16  4  0  0  0  0
  4  5  4  0  0  0  0
  4  7  4  0  0  0  0
  4 17  1  0  0  0  0
  5  9  4  0  0  0  0
  5 31  1  0  0  0  0
  6  7  4  0  0  0  0
  6  8  4  0  0  0  0
  6 32  1  0  0  0  0
  7 33  1  0  0  0  0
  8  9  4  0  0  0  0
  8 20  1  0  0  0  0
  9 34  1  0  0  0  0
 10 11  1  0  0  0  0
 10 21  1  0  0  0  0
 10 24  1  0  0  0  0
 10 35  1  0  0  0  0
 11 12  1  0  0  0  0
 11 36  1  0  0  0  0
 11 37  1  0  0  0  0
 12 23  1  0  0  0  0
 12 38  1  0  0  0  0
 12 39  1  0  0  0  0
 13 23  1  0  0  0  0
 13 25  4  0  0  0  0
 13 29  4  0  0  0  0
 15 16  4  0  0  0  0
 15 18  4  0  0  0  0
 16 17  4  0  0  0  0
 17 19  4  0  0  0  0
 18 19  4  0  0  0  0
 20 22  1  0  0  0  0
 21 40  1  0  0  0  0
 22 41  1  0  0  0  0
 22 42  1  0  0  0  0
 22 43  1  0  0  0  0
 23 24  1  0  0  0  0
 24 44  1  0  0  0  0
 24 45  1  0  0  0  0
 25 26  4  0  0  0  0
 25 46  1  0  0  0  0
 26 27  4  0  0  0  0
 26 47  1  0  0  0  0
 27 28  4  0  0  0  0
 28 29  4  0  0  0  0
 28 48  1  0  0  0  0
 29 49  1  0  0  0  0
M  END
> <ConfClashScore>
0 

> <ConfOneFourInteractionScore>
-0.986948 

> <ConfScore>
-0.0392529 

> <ConfScorePBest>
0.00477944 

> <ConfTolerance>
0.466409 

> <HETNAM>
     OWQ A 303  OWQ                                                       

> <pdb_OW>
Q_303 -16.5129 3.80749 7.62812 0.15963 1.39178 -0.28144 -3.20151 0 0 0 -1.30514 0 0 0 0 0 0 0 0 -8.31393

$$$$
6yky_lig_1.pdb
 OpenBabel04162415593D

 49 53  0  0  0  0  0  0  0  0999 V2000
    0.5450    0.1996    0.8759 C   0  0  0  1  0  0  0  0  0  0  0  0
    2.1984    1.5773    1.6989 C   0  0  0  1  0  0  0  0  0  0  0  0
    1.3458   -0.3501   -0.0114 N   0  0  0  1  0  0  0  0  0  0  0  0
    3.8028   -1.2802   -1.9354 C   0  0  0  1  0  0  0  0  0  0  0  0
    2.7801   -2.1758   -2.1846 C   0  0  0  1  0  0  0  0  0  0  0  0
    5.1463   -2.3444   -3.6116 C   0  0  0  1  0  0  0  0  0  0  0  0
    4.9886   -1.3662   -2.6480 C   0  0  0  1  0  0  0  0  0  0  0  0
    4.1206   -3.2428   -3.8617 C   0  0  0  1  0  0  0  0  0  0  0  0
    2.9383   -3.1568   -3.1510 C   0  0  0  1  0  0  0  0  0  0  0  0
   -1.6483    0.2809    1.9999 C   0  0  0  1  0  0  0  0  0  0  0  0
   -2.7092   -0.7500    2.3539 C   0  0  0  1  0  0  0  0  0  0  0  0
   -3.8060    0.0909    2.9826 C   0  0  0  1  0  0  0  0  0  0  0  0
   -4.7412    2.2998    2.2008 C   0  0  0  1  0  0  0  0  0  0  0  0
    0.9529    1.1384    1.7118 N   0  0  0  1  0  0  0  0  0  0  0  0
    3.0938    1.0269    0.7748 C   0  0  0  1  0  0  0  0  0  0  0  0
    2.6153    0.0279   -0.0977 C   0  0  0  1  0  0  0  0  0  0  0  0
    3.6772   -0.3290   -0.8819 N   0  0  0  1  0  0  0  0  0  0  0  0
    4.3985    1.2300    0.4895 N   0  0  0  1  0  0  0  0  0  0  0  0
    4.7656    0.4548   -0.4707 N   0  0  0  1  0  0  0  0  0  0  0  0
    4.2373   -4.1391   -4.8607 O   0  0  0  1  0  0  0  0  0  0  0  0
   -0.7716   -0.2192    0.9373 N   0  0  0  1  0  0  0  0  0  0  0  0
    5.4992   -4.1075   -5.5671 C   0  0  0  1  0  0  0  0  0  0  0  0
   -3.7285    1.3525    2.2319 N   0  0  0  1  0  0  0  0  0  0  0  0
   -2.4499    1.4916    1.5174 C   0  0  0  1  0  0  0  0  0  0  0  0
   -4.4935    3.5022    1.5649 C   0  0  0  1  0  0  0  0  0  0  0  0
   -5.4967    4.4517    1.5244 C   0  0  0  1  0  0  0  0  0  0  0  0
   -6.7019    4.2713    2.0733 N   0  0  0  1  0  0  0  0  0  0  0  0
   -6.9269    3.1026    2.6904 C   0  0  0  1  0  0  0  0  0  0  0  0
   -5.9810    2.0959    2.7747 C   0  0  0  1  0  0  0  0  0  0  0  0
    2.5075    2.3166    2.3618 H   0  0  0  1  0  0  0  0  0  0  0  0
    1.8919   -2.1137   -1.6471 H   0  0  0  1  0  0  0  0  0  0  0  0
    6.0344   -2.4065   -4.1491 H   0  0  0  1  0  0  0  0  0  0  0  0
    5.7597   -0.6947   -2.4576 H   0  0  0  1  0  0  0  0  0  0  0  0
    2.1672   -3.8283   -3.3414 H   0  0  0  1  0  0  0  0  0  0  0  0
   -1.0614    0.5320    2.8586 H   0  0  0  1  0  0  0  0  0  0  0  0
   -3.0642   -1.2527    1.4786 H   0  0  0  1  0  0  0  0  0  0  0  0
   -2.3296   -1.4691    3.0495 H   0  0  0  1  0  0  0  0  0  0  0  0
   -4.7630   -0.3714    2.8594 H   0  0  0  1  0  0  0  0  0  0  0  0
   -3.6181    0.2512    4.0238 H   0  0  0  1  0  0  0  0  0  0  0  0
   -1.1177   -0.8493    0.2713 H   0  0  0  1  0  0  0  0  0  0  0  0
    5.5545   -4.9401   -6.2369 H   0  0  0  1  0  0  0  0  0  0  0  0
    6.3032   -4.1624   -4.8632 H   0  0  0  1  0  0  0  0  0  0  0  0
    5.5733   -3.1967   -6.1238 H   0  0  0  1  0  0  0  0  0  0  0  0
   -2.5964    1.4575    0.4580 H   0  0  0  1  0  0  0  0  0  0  0  0
   -1.9604    2.4058    1.7810 H   0  0  0  1  0  0  0  0  0  0  0  0
   -3.5696    3.6885    1.1252 H   0  0  0  1  0  0  0  0  0  0  0  0
   -5.3041    5.3528    1.0422 H   0  0  0  1  0  0  0  0  0  0  0  0
   -7.8575    2.9449    3.1271 H   0  0  0  1  0  0  0  0  0  0  0  0
   -6.1995    1.2028    3.2608 H   0  0  0  1  0  0  0  0  0  0  0  0
  1  3  4  0  0  0  0
  1 14  4  0  0  0  0
  1 21  1  0  0  0  0
  2 14  4  0  0  0  0
  2 15  4  0  0  0  0
  2 30  1  0  0  0  0
  3 16  4  0  0  0  0
  4  5  4  0  0  0  0
  4  7  4  0  0  0  0
  4 17  1  0  0  0  0
  5  9  4  0  0  0  0
  5 31  1  0  0  0  0
  6  7  4  0  0  0  0
  6  8  4  0  0  0  0
  6 32  1  0  0  0  0
  7 33  1  0  0  0  0
  8  9  4  0  0  0  0
  8 20  1  0  0  0  0
  9 34  1  0  0  0  0
 10 11  1  0  0  0  0
 10 21  1  0  0  0  0
 10 24  1  0  0  0  0
 10 35  1  0  0  0  0
 11 12  1  0  0  0  0
 11 36  1  0  0  0  0
 11 37  1  0  0  0  0
 12 23  1  0  0  0  0
 12 38  1  0  0  0  0
 12 39  1  0  0  0  0
 13 23  1  0  0  0  0
 13 25  4  0  0  0  0
 13 29  4  0  0  0  0
 15 16  4  0  0  0  0
 15 18  4  0  0  0  0
 16 17  4  0  0  0  0
 17 19  4  0  0  0  0
 18 19  4  0  0  0  0
 20 22  1  0  0  0  0
 21 40  1  0  0  0  0
 22 41  1  0  0  0  0
 22 42  1  0  0  0  0
 22 43  1  0  0  0  0
 23 24  1  0  0  0  0
 24 44  1  0  0  0  0
 24 45  1  0  0  0  0
 25 26  4  0  0  0  0
 25 46  1  0  0  0  0
 26 27  4  0  0  0  0
 26 47  1  0  0  0  0
 27 28  4  0  0  0  0
 28 29  4  0  0  0  0
 28 48  1  0  0  0  0
 29 49  1  0  0  0  0
M  END
> <ConfClashScore>
0 

> <ConfOneFourInteractionScore>
-0.984874 

> <ConfScore>
-0.0368229 

> <ConfScorePBest>
0.00476611 

> <ConfTolerance>
0.416816 

> <HETNAM>
     OWQ A 303  OWQ                                                       

> <pdb_OW>
Q_303 -16.5129 3.80749 7.62812 0.15963 1.39178 -0.28144 -3.20151 0 0 0 -1.30514 0 0 0 0 0 0 0 0 -8.31393

$$$$
6yky_lig_1.pdb
 OpenBabel04162415593D

 49 53  0  0  0  0  0  0  0  0999 V2000
    0.8917   -2.5376   -1.6700 C   0  0  0  1  0  0  0  0  0  0  0  0
    2.3580   -2.8437   -3.4209 C   0  0  0  1  0  0  0  0  0  0  0  0
    1.4749   -1.4236   -1.2830 N   0  0  0  1  0  0  0  0  0  0  0  0
    3.3435    1.2098   -0.8625 C   0  0  0  1  0  0  0  0  0  0  0  0
    4.5392    1.7666   -0.4498 C   0  0  0  1  0  0  0  0  0  0  0  0
    2.1566    2.6096    0.6799 C   0  0  0  1  0  0  0  0  0  0  0  0
    2.1507    1.6299   -0.2950 C   0  0  0  1  0  0  0  0  0  0  0  0
    3.3558    3.1683    1.0939 C   0  0  0  1  0  0  0  0  0  0  0  0
    4.5451    2.7492    0.5280 C   0  0  0  1  0  0  0  0  0  0  0  0
   -0.7922   -2.4237    0.2229 C   0  0  0  1  0  0  0  0  0  0  0  0
   -1.7904   -3.4204    0.8528 C   0  0  0  1  0  0  0  0  0  0  0  0
   -2.9945   -2.6329    1.3044 C   0  0  0  1  0  0  0  0  0  0  0  0
   -3.7172   -0.2412    0.5880 C   0  0  0  1  0  0  0  0  0  0  0  0
    1.3160   -3.2343   -2.7098 N   0  0  0  1  0  0  0  0  0  0  0  0
    3.0167   -1.6649   -3.0534 C   0  0  0  1  0  0  0  0  0  0  0  0
    2.5298   -0.9537   -1.9375 C   0  0  0  1  0  0  0  0  0  0  0  0
    3.3422    0.1378   -1.8013 N   0  0  0  1  0  0  0  0  0  0  0  0
    4.0819   -0.9894   -3.5373 N   0  0  0  1  0  0  0  0  0  0  0  0
    4.2948    0.0641   -2.8286 N   0  0  0  1  0  0  0  0  0  0  0  0
    3.4143    4.0490    2.1210 O   0  0  0  1  0  0  0  0  0  0  0  0
   -0.1752   -2.9848   -0.9835 N   0  0  0  1  0  0  0  0  0  0  0  0
    2.1706    4.4320    2.7285 C   0  0  0  1  0  0  0  0  0  0  0  0
   -2.7814   -1.3013    0.5517 N   0  0  0  1  0  0  0  0  0  0  0  0
   -1.6738   -1.2376   -0.1153 C   0  0  0  1  0  0  0  0  0  0  0  0
   -4.9077   -0.3753    1.2782 C   0  0  0  1  0  0  0  0  0  0  0  0
   -5.7918    0.6867    1.2911 C   0  0  0  1  0  0  0  0  0  0  0  0
   -5.5587    1.8445    0.6655 N   0  0  0  1  0  0  0  0  0  0  0  0
   -4.4025    1.9592   -0.0033 C   0  0  0  1  0  0  0  0  0  0  0  0
   -3.4595    0.9481   -0.0653 C   0  0  0  1  0  0  0  0  0  0  0  0
    2.6825   -3.4007   -4.2371 H   0  0  0  1  0  0  0  0  0  0  0  0
    5.4345    1.4485   -0.8728 H   0  0  0  1  0  0  0  0  0  0  0  0
    1.2613    2.9277    1.1028 H   0  0  0  1  0  0  0  0  0  0  0  0
    1.2513    1.2080   -0.6028 H   0  0  0  1  0  0  0  0  0  0  0  0
    5.4445    3.1711    0.8357 H   0  0  0  1  0  0  0  0  0  0  0  0
   -0.0284   -2.1501    0.9205 H   0  0  0  1  0  0  0  0  0  0  0  0
   -2.0830   -4.1512    0.1281 H   0  0  0  1  0  0  0  0  0  0  0  0
   -1.3387   -3.9092    1.6907 H   0  0  0  1  0  0  0  0  0  0  0  0
   -2.9933   -2.4884    2.3646 H   0  0  0  1  0  0  0  0  0  0  0  0
   -3.9067   -3.1081    1.0096 H   0  0  0  1  0  0  0  0  0  0  0  0
   -0.5973   -3.7953   -1.3374 H   0  0  0  1  0  0  0  0  0  0  0  0
    2.3222    5.2995    3.3362 H   0  0  0  1  0  0  0  0  0  0  0  0
    1.8090    3.6295    3.3368 H   0  0  0  1  0  0  0  0  0  0  0  0
    1.4540    4.6525    1.9651 H   0  0  0  1  0  0  0  0  0  0  0  0
   -1.1610   -0.3328    0.1363 H   0  0  0  1  0  0  0  0  0  0  0  0
   -1.8909   -1.2457   -1.1630 H   0  0  0  1  0  0  0  0  0  0  0  0
   -5.1336   -1.2588    1.7782 H   0  0  0  1  0  0  0  0  0  0  0  0
   -6.6842    0.5795    1.8143 H   0  0  0  1  0  0  0  0  0  0  0  0
   -4.2046    2.8513   -0.4998 H   0  0  0  1  0  0  0  0  0  0  0  0
   -2.5737    1.0813   -0.5936 H   0  0  0  1  0  0  0  0  0  0  0  0
  1  3  4  0  0  0  0
  1 14  4  0  0  0  0
  1 21  1  0  0  0  0
  2 14  4  0  0  0  0
  2 15  4  0  0  0  0
  2 30  1  0  0  0  0
  3 16  4  0  0  0  0
  4  5  4  0  0  0  0
  4  7  4  0  0  0  0
  4 17  1  0  0  0  0
  5  9  4  0  0  0  0
  5 31  1  0  0  0  0
  6  7  4  0  0  0  0
  6  8  4  0  0  0  0
  6 32  1  0  0  0  0
  7 33  1  0  0  0  0
  8  9  4  0  0  0  0
  8 20  1  0  0  0  0
  9 34  1  0  0  0  0
 10 11  1  0  0  0  0
 10 21  1  0  0  0  0
 10 24  1  0  0  0  0
 10 35  1  0  0  0  0
 11 12  1  0  0  0  0
 11 36  1  0  0  0  0
 11 37  1  0  0  0  0
 12 23  1  0  0  0  0
 12 38  1  0  0  0  0
 12 39  1  0  0  0  0
 13 23  1  0  0  0  0
 13 25  4  0  0  0  0
 13 29  4  0  0  0  0
 15 16  4  0  0  0  0
 15 18  4  0  0  0  0
 16 17  4  0  0  0  0
 17 19  4  0  0  0  0
 18 19  4  0  0  0  0
 20 22  1  0  0  0  0
 21 40  1  0  0  0  0
 22 41  1  0  0  0  0
 22 42  1  0  0  0  0
 22 43  1  0  0  0  0
 23 24  1  0  0  0  0
 24 44  1  0  0  0  0
 24 45  1  0  0  0  0
 25 26  4  0  0  0  0
 25 46  1  0  0  0  0
 26 27  4  0  0  0  0
 26 47  1  0  0  0  0
 27 28  4  0  0  0  0
 28 29  4  0  0  0  0
 28 48  1  0  0  0  0
 29 49  1  0  0  0  0
M  END
> <ConfClashScore>
0 

> <ConfOneFourInteractionScore>
-0.984874 

> <ConfScore>
-0.0367398 

> <ConfScorePBest>
0.00475278 

> <ConfTolerance>
0.466667 

> <HETNAM>
     OWQ A 303  OWQ                                                       

> <pdb_OW>
Q_303 -16.5129 3.80749 7.62812 0.15963 1.39178 -0.28144 -3.20151 0 0 0 -1.30514 0 0 0 0 0 0 0 0 -8.31393

$$$$
6yky_lig_1.pdb
 OpenBabel04162415593D

 49 53  0  0  0  0  0  0  0  0999 V2000
   -0.7908   -1.6886   -1.6584 C   0  0  0  1  0  0  0  0  0  0  0  0
   -0.3993   -1.7521   -3.9283 C   0  0  0  1  0  0  0  0  0  0  0  0
    0.3585   -1.1006   -1.4047 N   0  0  0  1  0  0  0  0  0  0  0  0
    3.2886    0.3185   -1.4668 C   0  0  0  1  0  0  0  0  0  0  0  0
    4.6594    0.2659   -1.6349 C   0  0  0  1  0  0  0  0  0  0  0  0
    3.5906    1.2403    0.7256 C   0  0  0  1  0  0  0  0  0  0  0  0
    2.7533    0.8039   -0.2838 C   0  0  0  1  0  0  0  0  0  0  0  0
    4.9656    1.1875    0.5571 C   0  0  0  1  0  0  0  0  0  0  0  0
    5.4990    0.7035   -0.6225 C   0  0  0  1  0  0  0  0  0  0  0  0
   -1.2965   -1.5171    0.7570 C   0  0  0  1  0  0  0  0  0  0  0  0
   -2.0795   -2.3402    1.7737 C   0  0  0  1  0  0  0  0  0  0  0  0
   -3.4799   -1.7136    1.7612 C   0  0  0  1  0  0  0  0  0  0  0  0
   -4.2117    0.6835    1.3029 C   0  0  0  1  0  0  0  0  0  0  0  0
   -1.1664   -2.0088   -2.8843 N   0  0  0  1  0  0  0  0  0  0  0  0
    0.8348   -1.1274   -3.7160 C   0  0  0  1  0  0  0  0  0  0  0  0
    1.1949   -0.8038   -2.3917 C   0  0  0  1  0  0  0  0  0  0  0  0
    2.4260   -0.2134   -2.4685 N   0  0  0  1  0  0  0  0  0  0  0  0
    1.8413   -0.7282   -4.5239 N   0  0  0  1  0  0  0  0  0  0  0  0
    2.7811   -0.1927   -3.8256 N   0  0  0  1  0  0  0  0  0  0  0  0
    5.6830    1.6364    1.6143 O   0  0  0  1  0  0  0  0  0  0  0  0
   -1.5827   -1.9554   -0.5980 N   0  0  0  1  0  0  0  0  0  0  0  0
    7.1140    1.6031    1.4978 C   0  0  0  1  0  0  0  0  0  0  0  0
   -3.2187   -0.3227    1.3493 N   0  0  0  1  0  0  0  0  0  0  0  0
   -1.8024   -0.0971    0.9899 C   0  0  0  1  0  0  0  0  0  0  0  0
   -5.4883    0.4360    1.7725 C   0  0  0  1  0  0  0  0  0  0  0  0
   -6.4268    1.4486    1.7119 C   0  0  0  1  0  0  0  0  0  0  0  0
   -6.1668    2.6628    1.2176 N   0  0  0  1  0  0  0  0  0  0  0  0
   -4.9262    2.8876    0.7619 C   0  0  0  1  0  0  0  0  0  0  0  0
   -3.9249    1.9326    0.7877 C   0  0  0  1  0  0  0  0  0  0  0  0
   -0.7061   -2.0090   -4.8882 H   0  0  0  1  0  0  0  0  0  0  0  0
    5.0609   -0.1020   -2.5209 H   0  0  0  1  0  0  0  0  0  0  0  0
    3.1891    1.6082    1.6116 H   0  0  0  1  0  0  0  0  0  0  0  0
    1.7219    0.8397   -0.1558 H   0  0  0  1  0  0  0  0  0  0  0  0
    6.5305    0.6677   -0.7506 H   0  0  0  1  0  0  0  0  0  0  0  0
   -0.2443   -1.5836    0.9392 H   0  0  0  1  0  0  0  0  0  0  0  0
   -2.1206   -3.3682    1.4797 H   0  0  0  1  0  0  0  0  0  0  0  0
   -1.6378   -2.2640    2.7453 H   0  0  0  1  0  0  0  0  0  0  0  0
   -4.1164   -2.2094    1.0584 H   0  0  0  1  0  0  0  0  0  0  0  0
   -3.9254   -1.7491    2.7335 H   0  0  0  1  0  0  0  0  0  0  0  0
   -2.3990   -2.4756   -0.7515 H   0  0  0  1  0  0  0  0  0  0  0  0
    7.5550    1.8464    2.4418 H   0  0  0  1  0  0  0  0  0  0  0  0
    7.4285    2.3150    0.7635 H   0  0  0  1  0  0  0  0  0  0  0  0
    7.4248    0.6231    1.2012 H   0  0  0  1  0  0  0  0  0  0  0  0
   -1.7173    0.4949    0.1027 H   0  0  0  1  0  0  0  0  0  0  0  0
   -1.2709    0.3774    1.7882 H   0  0  0  1  0  0  0  0  0  0  0  0
   -5.7377   -0.4947    2.1639 H   0  0  0  1  0  0  0  0  0  0  0  0
   -7.3843    1.2560    2.0692 H   0  0  0  1  0  0  0  0  0  0  0  0
   -4.7055    3.8253    0.3698 H   0  0  0  1  0  0  0  0  0  0  0  0
   -2.9746    2.1512    0.4260 H   0  0  0  1  0  0  0  0  0  0  0  0
  1  3  4  0  0  0  0
  1 14  4  0  0  0  0
  1 21  1  0  0  0  0
  2 14  4  0  0  0  0
  2 15  4  0  0  0  0
  2 30  1  0  0  0  0
  3 16  4  0  0  0  0
  4  5  4  0  0  0  0
  4  7  4  0  0  0  0
  4 17  1  0  0  0  0
  5  9  4  0  0  0  0
  5 31  1  0  0  0  0
  6  7  4  0  0  0  0
  6  8  4  0  0  0  0
  6 32  1  0  0  0  0
  7 33  1  0  0  0  0
  8  9  4  0  0  0  0
  8 20  1  0  0  0  0
  9 34  1  0  0  0  0
 10 11  1  0  0  0  0
 10 21  1  0  0  0  0
 10 24  1  0  0  0  0
 10 35  1  0  0  0  0
 11 12  1  0  0  0  0
 11 36  1  0  0  0  0
 11 37  1  0  0  0  0
 12 23  1  0  0  0  0
 12 38  1  0  0  0  0
 12 39  1  0  0  0  0
 13 23  1  0  0  0  0
 13 25  4  0  0  0  0
 13 29  4  0  0  0  0
 15 16  4  0  0  0  0
 15 18  4  0  0  0  0
 16 17  4  0  0  0  0
 17 19  4  0  0  0  0
 18 19  4  0  0  0  0
 20 22  1  0  0  0  0
 21 40  1  0  0  0  0
 22 41  1  0  0  0  0
 22 42  1  0  0  0  0
 22 43  1  0  0  0  0
 23 24  1  0  0  0  0
 24 44  1  0  0  0  0
 24 45  1  0  0  0  0
 25 26  4  0  0  0  0
 25 46  1  0  0  0  0
 26 27  4  0  0  0  0
 26 47  1  0  0  0  0
 27 28  4  0  0  0  0
 28 29  4  0  0  0  0
 28 48  1  0  0  0  0
 29 49  1  0  0  0  0
M  END
> <ConfClashScore>
0 

> <ConfOneFourInteractionScore>
-0.984874 

> <ConfScore>
-0.0341279 

> <ConfScorePBest>
0.00473946 

> <ConfTolerance>
0.587883 

> <HETNAM>
     OWQ A 303  OWQ                                                       

> <pdb_OW>
Q_303 -16.5129 3.80749 7.62812 0.15963 1.39178 -0.28144 -3.20151 0 0 0 -1.30514 0 0 0 0 0 0 0 0 -8.31393

$$$$
6yky_lig_1.pdb
 OpenBabel04162415593D

 49 53  0  0  0  0  0  0  0  0999 V2000
    1.3140   -0.9056   -2.7511 C   0  0  0  1  0  0  0  0  0  0  0  0
    3.1198   -2.1658   -3.4299 C   0  0  0  1  0  0  0  0  0  0  0  0
    1.6233   -1.0189   -1.4774 N   0  0  0  1  0  0  0  0  0  0  0  0
    2.9228   -1.6758    1.4352 C   0  0  0  1  0  0  0  0  0  0  0  0
    3.2420   -2.5336    2.4707 C   0  0  0  1  0  0  0  0  0  0  0  0
    1.7583   -0.2508    2.9716 C   0  0  0  1  0  0  0  0  0  0  0  0
    2.1775   -0.5341    1.6854 C   0  0  0  1  0  0  0  0  0  0  0  0
    2.0784   -1.1111    4.0104 C   0  0  0  1  0  0  0  0  0  0  0  0
    2.8215   -2.2495    3.7606 C   0  0  0  1  0  0  0  0  0  0  0  0
   -0.6625    0.3458   -2.0080 C   0  0  0  1  0  0  0  0  0  0  0  0
   -1.7291   -0.6918   -1.5608 C   0  0  0  1  0  0  0  0  0  0  0  0
   -2.9556    0.0939   -1.0515 C   0  0  0  1  0  0  0  0  0  0  0  0
   -3.4973    2.5659   -1.3132 C   0  0  0  1  0  0  0  0  0  0  0  0
    2.0378   -1.4611   -3.7072 N   0  0  0  1  0  0  0  0  0  0  0  0
    3.4953   -2.3186   -2.0904 C   0  0  0  1  0  0  0  0  0  0  0  0
    2.6938   -1.7088   -1.1035 C   0  0  0  1  0  0  0  0  0  0  0  0
    3.2763   -2.0112    0.0962 N   0  0  0  1  0  0  0  0  0  0  0  0
    4.5092   -2.9522   -1.4614 N   0  0  0  1  0  0  0  0  0  0  0  0
    4.4076   -2.7906   -0.1882 N   0  0  0  1  0  0  0  0  0  0  0  0
    1.6094   -0.7333    5.2233 O   0  0  0  1  0  0  0  0  0  0  0  0
    0.2033   -0.1830   -3.0472 N   0  0  0  1  0  0  0  0  0  0  0  0
    1.9870   -1.5367    6.3522 C   0  0  0  1  0  0  0  0  0  0  0  0
   -2.7324    1.4546   -1.6170 N   0  0  0  1  0  0  0  0  0  0  0  0
   -1.5877    1.4560   -2.5426 C   0  0  0  1  0  0  0  0  0  0  0  0
   -3.0151    3.5343   -0.4523 C   0  0  0  1  0  0  0  0  0  0  0  0
   -3.7658    4.6766   -0.2493 C   0  0  0  1  0  0  0  0  0  0  0  0
   -4.9433    4.8971   -0.8419 N   0  0  0  1  0  0  0  0  0  0  0  0
   -5.4009    3.9479   -1.6707 C   0  0  0  1  0  0  0  0  0  0  0  0
   -4.7131    2.7761   -1.9340 C   0  0  0  1  0  0  0  0  0  0  0  0
    3.6811   -2.5982   -4.1911 H   0  0  0  1  0  0  0  0  0  0  0  0
    3.7978   -3.3923    2.2822 H   0  0  0  1  0  0  0  0  0  0  0  0
    1.2026    0.6078    3.1601 H   0  0  0  1  0  0  0  0  0  0  0  0
    1.9339    0.1093    0.9055 H   0  0  0  1  0  0  0  0  0  0  0  0
    3.0651   -2.8929    4.5405 H   0  0  0  1  0  0  0  0  0  0  0  0
   -0.0676    0.6849   -1.1858 H   0  0  0  1  0  0  0  0  0  0  0  0
   -2.0087   -1.3084   -2.3893 H   0  0  0  1  0  0  0  0  0  0  0  0
   -1.3363   -1.3043   -0.7763 H   0  0  0  1  0  0  0  0  0  0  0  0
   -3.8659   -0.3317   -1.4190 H   0  0  0  1  0  0  0  0  0  0  0  0
   -2.9797    0.1201    0.0179 H   0  0  0  1  0  0  0  0  0  0  0  0
   -0.0199   -0.0140   -3.9864 H   0  0  0  1  0  0  0  0  0  0  0  0
    1.2257   -2.2637    6.5439 H   0  0  0  1  0  0  0  0  0  0  0  0
    2.1062   -0.9103    7.2115 H   0  0  0  1  0  0  0  0  0  0  0  0
    2.9106   -2.0346    6.1423 H   0  0  0  1  0  0  0  0  0  0  0  0
   -1.9069    1.2354   -3.5398 H   0  0  0  1  0  0  0  0  0  0  0  0
   -1.0902    2.4032   -2.5282 H   0  0  0  1  0  0  0  0  0  0  0  0
   -2.1045    3.4055    0.0334 H   0  0  0  1  0  0  0  0  0  0  0  0
   -3.3956    5.4018    0.3977 H   0  0  0  1  0  0  0  0  0  0  0  0
   -6.3173    4.0994   -2.1384 H   0  0  0  1  0  0  0  0  0  0  0  0
   -5.1042    2.0675   -2.5870 H   0  0  0  1  0  0  0  0  0  0  0  0
  1  3  4  0  0  0  0
  1 14  4  0  0  0  0
  1 21  1  0  0  0  0
  2 14  4  0  0  0  0
  2 15  4  0  0  0  0
  2 30  1  0  0  0  0
  3 16  4  0  0  0  0
  4  5  4  0  0  0  0
  4  7  4  0  0  0  0
  4 17  1  0  0  0  0
  5  9  4  0  0  0  0
  5 31  1  0  0  0  0
  6  7  4  0  0  0  0
  6  8  4  0  0  0  0
  6 32  1  0  0  0  0
  7 33  1  0  0  0  0
  8  9  4  0  0  0  0
  8 20  1  0  0  0  0
  9 34  1  0  0  0  0
 10 11  1  0  0  0  0
 10 21  1  0  0  0  0
 10 24  1  0  0  0  0
 10 35  1  0  0  0  0
 11 12  1  0  0  0  0
 11 36  1  0  0  0  0
 11 37  1  0  0  0  0
 12 23  1  0  0  0  0
 12 38  1  0  0  0  0
 12 39  1  0  0  0  0
 13 23  1  0  0  0  0
 13 25  4  0  0  0  0
 13 29  4  0  0  0  0
 15 16  4  0  0  0  0
 15 18  4  0  0  0  0
 16 17  4  0  0  0  0
 17 19  4  0  0  0  0
 18 19  4  0  0  0  0
 20 22  1  0  0  0  0
 21 40  1  0  0  0  0
 22 41  1  0  0  0  0
 22 42  1  0  0  0  0
 22 43  1  0  0  0  0
 23 24  1  0  0  0  0
 24 44  1  0  0  0  0
 24 45  1  0  0  0  0
 25 26  4  0  0  0  0
 25 46  1  0  0  0  0
 26 27  4  0  0  0  0
 26 47  1  0  0  0  0
 27 28  4  0  0  0  0
 28 29  4  0  0  0  0
 28 48  1  0  0  0  0
 29 49  1  0  0  0  0
M  END
> <ConfClashScore>
0 

> <ConfOneFourInteractionScore>
-0.986948 

> <ConfScore>
-0.0293989 

> <ConfScorePBest>
0.00472613 

> <ConfTolerance>
0.364781 

> <HETNAM>
     OWQ A 303  OWQ                                                       

> <pdb_OW>
Q_303 -16.5129 3.80749 7.62812 0.15963 1.39178 -0.28144 -3.20151 0 0 0 -1.30514 0 0 0 0 0 0 0 0 -8.31393

$$$$
6yky_lig_1.pdb
 OpenBabel04162415593D

 49 53  0  0  0  0  0  0  0  0999 V2000
   -0.4712   -0.8842   -2.0694 C   0  0  0  1  0  0  0  0  0  0  0  0
    0.2438   -2.2808   -3.7570 C   0  0  0  1  0  0  0  0  0  0  0  0
    0.6211   -1.0663   -1.3591 N   0  0  0  1  0  0  0  0  0  0  0  0
    3.5944   -1.8465   -0.2107 C   0  0  0  1  0  0  0  0  0  0  0  0
    4.3900   -2.7646    0.4482 C   0  0  0  1  0  0  0  0  0  0  0  0
    4.1851   -0.1739    1.4020 C   0  0  0  1  0  0  0  0  0  0  0  0
    3.4897   -0.5499    0.2683 C   0  0  0  1  0  0  0  0  0  0  0  0
    4.9831   -1.0947    2.0630 C   0  0  0  1  0  0  0  0  0  0  0  0
    5.0874   -2.3874    1.5852 C   0  0  0  1  0  0  0  0  0  0  0  0
   -1.3487    0.6095   -0.3096 C   0  0  0  1  0  0  0  0  0  0  0  0
   -2.1239   -0.1443    0.7309 C   0  0  0  1  0  0  0  0  0  0  0  0
   -3.5755    0.3337    0.4476 C   0  0  0  1  0  0  0  0  0  0  0  0
   -4.3704    2.6155   -0.1004 C   0  0  0  1  0  0  0  0  0  0  0  0
   -0.6619   -1.4721   -3.2376 N   0  0  0  1  0  0  0  0  0  0  0  0
    1.4257   -2.5103   -3.0434 C   0  0  0  1  0  0  0  0  0  0  0  0
    1.5867   -1.8623   -1.8015 C   0  0  0  1  0  0  0  0  0  0  0  0
    2.8072   -2.2551   -1.3259 N   0  0  0  1  0  0  0  0  0  0  0  0
    2.5319   -3.2535   -3.2647 N   0  0  0  1  0  0  0  0  0  0  0  0
    3.3534   -3.1245   -2.2818 N   0  0  0  1  0  0  0  0  0  0  0  0
    5.7260   -0.7101    3.1073 O   0  0  0  1  0  0  0  0  0  0  0  0
   -1.4295   -0.0706   -1.5906 N   0  0  0  1  0  0  0  0  0  0  0  0
    6.4206   -1.6823    3.9590 C   0  0  0  1  0  0  0  0  0  0  0  0
   -3.3582    1.6781   -0.0192 N   0  0  0  1  0  0  0  0  0  0  0  0
   -1.9873    1.9664   -0.3975 C   0  0  0  1  0  0  0  0  0  0  0  0
   -4.6254    3.4034    1.0068 C   0  0  0  1  0  0  0  0  0  0  0  0
   -5.6922    4.2808    0.9668 C   0  0  0  1  0  0  0  0  0  0  0  0
   -6.4994    4.4085   -0.0908 N   0  0  0  1  0  0  0  0  0  0  0  0
   -6.2432    3.6353   -1.1556 C   0  0  0  1  0  0  0  0  0  0  0  0
   -5.1947    2.7332   -1.2024 C   0  0  0  1  0  0  0  0  0  0  0  0
    0.0822   -2.7376   -4.6772 H   0  0  0  1  0  0  0  0  0  0  0  0
    4.4654   -3.7385    0.0911 H   0  0  0  1  0  0  0  0  0  0  0  0
    4.1097    0.8000    1.7591 H   0  0  0  1  0  0  0  0  0  0  0  0
    2.8878    0.1398   -0.2253 H   0  0  0  1  0  0  0  0  0  0  0  0
    5.6892   -3.0772    2.0788 H   0  0  0  1  0  0  0  0  0  0  0  0
   -0.3234    0.6992   -0.0169 H   0  0  0  1  0  0  0  0  0  0  0  0
   -1.8114    0.1215    1.7191 H   0  0  0  1  0  0  0  0  0  0  0  0
   -2.0285   -1.2018    0.5985 H   0  0  0  1  0  0  0  0  0  0  0  0
   -4.1698    0.3218    1.3373 H   0  0  0  1  0  0  0  0  0  0  0  0
   -4.0440   -0.2681   -0.3029 H   0  0  0  1  0  0  0  0  0  0  0  0
   -2.2295    0.0719   -2.1384 H   0  0  0  1  0  0  0  0  0  0  0  0
    5.7735   -1.9864    4.7550 H   0  0  0  1  0  0  0  0  0  0  0  0
    7.3014   -1.2328    4.3677 H   0  0  0  1  0  0  0  0  0  0  0  0
    6.6935   -2.5365    3.3753 H   0  0  0  1  0  0  0  0  0  0  0  0
   -1.9324    2.3583   -1.3916 H   0  0  0  1  0  0  0  0  0  0  0  0
   -1.5326    2.6551    0.2835 H   0  0  0  1  0  0  0  0  0  0  0  0
   -4.0256    3.3369    1.8538 H   0  0  0  1  0  0  0  0  0  0  0  0
   -5.8764    4.8720    1.8023 H   0  0  0  1  0  0  0  0  0  0  0  0
   -6.8626    3.7174   -1.9870 H   0  0  0  1  0  0  0  0  0  0  0  0
   -5.0306    2.1550   -2.0511 H   0  0  0  1  0  0  0  0  0  0  0  0
  1  3  4  0  0  0  0
  1 14  4  0  0  0  0
  1 21  1  0  0  0  0
  2 14  4  0  0  0  0
  2 15  4  0  0  0  0
  2 30  1  0  0  0  0
  3 16  4  0  0  0  0
  4  5  4  0  0  0  0
  4  7  4  0  0  0  0
  4 17  1  0  0  0  0
  5  9  4  0  0  0  0
  5 31  1  0  0  0  0
  6  7  4  0  0  0  0
  6  8  4  0  0  0  0
  6 32  1  0  0  0  0
  7 33  1  0  0  0  0
  8  9  4  0  0  0  0
  8 20  1  0  0  0  0
  9 34  1  0  0  0  0
 10 11  1  0  0  0  0
 10 21  1  0  0  0  0
 10 24  1  0  0  0  0
 10 35  1  0  0  0  0
 11 12  1  0  0  0  0
 11 36  1  0  0  0  0
 11 37  1  0  0  0  0
 12 23  1  0  0  0  0
 12 38  1  0  0  0  0
 12 39  1  0  0  0  0
 13 23  1  0  0  0  0
 13 25  4  0  0  0  0
 13 29  4  0  0  0  0
 15 16  4  0  0  0  0
 15 18  4  0  0  0  0
 16 17  4  0  0  0  0
 17 19  4  0  0  0  0
 18 19  4  0  0  0  0
 20 22  1  0  0  0  0
 21 40  1  0  0  0  0
 22 41  1  0  0  0  0
 22 42  1  0  0  0  0
 22 43  1  0  0  0  0
 23 24  1  0  0  0  0
 24 44  1  0  0  0  0
 24 45  1  0  0  0  0
 25 26  4  0  0  0  0
 25 46  1  0  0  0  0
 26 27  4  0  0  0  0
 26 47  1  0  0  0  0
 27 28  4  0  0  0  0
 28 29  4  0  0  0  0
 28 48  1  0  0  0  0
 29 49  1  0  0  0  0
M  END
> <ConfClashScore>
0 

> <ConfOneFourInteractionScore>
-0.986948 

> <ConfScore>
-0.0291748 

> <ConfScorePBest>
0.0047128 

> <ConfTolerance>
0.500976 

> <HETNAM>
     OWQ A 303  OWQ                                                       

> <pdb_OW>
Q_303 -16.5129 3.80749 7.62812 0.15963 1.39178 -0.28144 -3.20151 0 0 0 -1.30514 0 0 0 0 0 0 0 0 -8.31393

$$$$
6yky_lig_1.pdb
 OpenBabel04162415593D

 49 53  0  0  0  0  0  0  0  0999 V2000
    0.2844   -2.6840   -1.4286 C   0  0  0  1  0  0  0  0  0  0  0  0
    0.5218   -2.8525   -3.7144 C   0  0  0  1  0  0  0  0  0  0  0  0
    0.9017   -1.5233   -1.3786 N   0  0  0  1  0  0  0  0  0  0  0  0
    2.3789    1.2906   -1.9250 C   0  0  0  1  0  0  0  0  0  0  0  0
    1.9676    1.2988   -0.6055 C   0  0  0  1  0  0  0  0  0  0  0  0
    3.3140    3.4807   -1.6495 C   0  0  0  1  0  0  0  0  0  0  0  0
    3.0507    2.3842   -2.4486 C   0  0  0  1  0  0  0  0  0  0  0  0
    2.9017    3.4891   -0.3261 C   0  0  0  1  0  0  0  0  0  0  0  0
    2.2318    2.3986    0.1958 C   0  0  0  1  0  0  0  0  0  0  0  0
    0.0355   -2.5960    1.0173 C   0  0  0  1  0  0  0  0  0  0  0  0
   -0.6804   -3.3502    2.0992 C   0  0  0  1  0  0  0  0  0  0  0  0
   -2.1301   -2.8097    1.9514 C   0  0  0  1  0  0  0  0  0  0  0  0
   -2.8988   -0.4615    1.5323 C   0  0  0  1  0  0  0  0  0  0  0  0
    0.0957   -3.3369   -2.5620 N   0  0  0  1  0  0  0  0  0  0  0  0
    1.1855   -1.6204   -3.7194 C   0  0  0  1  0  0  0  0  0  0  0  0
    1.3645   -0.9588   -2.4872 C   0  0  0  1  0  0  0  0  0  0  0  0
    2.0302    0.2007   -2.7742 N   0  0  0  1  0  0  0  0  0  0  0  0
    1.7383   -0.8507   -4.6823 N   0  0  0  1  0  0  0  0  0  0  0  0
    2.2377    0.2156   -4.1616 N   0  0  0  1  0  0  0  0  0  0  0  0
    3.2097    4.6148    0.3542 O   0  0  0  1  0  0  0  0  0  0  0  0
   -0.1784   -3.2346   -0.2694 N   0  0  0  1  0  0  0  0  0  0  0  0
    2.6844    4.8071    1.6883 C   0  0  0  1  0  0  0  0  0  0  0  0
   -1.8987   -1.4613    1.5030 N   0  0  0  1  0  0  0  0  0  0  0  0
   -0.5534   -1.2140    1.0186 C   0  0  0  1  0  0  0  0  0  0  0  0
   -3.0924    0.3089    2.6640 C   0  0  0  1  0  0  0  0  0  0  0  0
   -4.0780    1.2774    2.6482 C   0  0  0  1  0  0  0  0  0  0  0  0
   -4.8627    1.5101    1.5916 N   0  0  0  1  0  0  0  0  0  0  0  0
   -4.6670    0.7529    0.5028 C   0  0  0  1  0  0  0  0  0  0  0  0
   -3.7011   -0.2356    0.4309 C   0  0  0  1  0  0  0  0  0  0  0  0
    0.3674   -3.3758   -4.5997 H   0  0  0  1  0  0  0  0  0  0  0  0
    1.4601    0.4799   -0.2139 H   0  0  0  1  0  0  0  0  0  0  0  0
    3.8216    4.2996   -2.0412 H   0  0  0  1  0  0  0  0  0  0  0  0
    3.3565    2.3795   -3.4426 H   0  0  0  1  0  0  0  0  0  0  0  0
    1.9259    2.4031    1.1897 H   0  0  0  1  0  0  0  0  0  0  0  0
    1.0843   -2.5536    1.2251 H   0  0  0  1  0  0  0  0  0  0  0  0
   -0.2767   -3.1253    3.0643 H   0  0  0  1  0  0  0  0  0  0  0  0
   -0.6388   -4.4062    1.9318 H   0  0  0  1  0  0  0  0  0  0  0  0
   -2.6830   -3.3711    1.2275 H   0  0  0  1  0  0  0  0  0  0  0  0
   -2.6486   -2.8251    2.8872 H   0  0  0  1  0  0  0  0  0  0  0  0
   -0.6677   -4.0829   -0.3059 H   0  0  0  1  0  0  0  0  0  0  0  0
    3.0425    4.0284    2.3288 H   0  0  0  1  0  0  0  0  0  0  0  0
    1.6151    4.7798    1.6576 H   0  0  0  1  0  0  0  0  0  0  0  0
    3.0068    5.7552    2.0651 H   0  0  0  1  0  0  0  0  0  0  0  0
   -0.5655   -0.7955    0.0339 H   0  0  0  1  0  0  0  0  0  0  0  0
   -0.0166   -0.5632    1.6768 H   0  0  0  1  0  0  0  0  0  0  0  0
   -2.5072    0.1623    3.5112 H   0  0  0  1  0  0  0  0  0  0  0  0
   -4.2162    1.8547    3.5021 H   0  0  0  1  0  0  0  0  0  0  0  0
   -5.2704    0.9164   -0.3284 H   0  0  0  1  0  0  0  0  0  0  0  0
   -3.5817   -0.7978   -0.4359 H   0  0  0  1  0  0  0  0  0  0  0  0
  1  3  4  0  0  0  0
  1 14  4  0  0  0  0
  1 21  1  0  0  0  0
  2 14  4  0  0  0  0
  2 15  4  0  0  0  0
  2 30  1  0  0  0  0
  3 16  4  0  0  0  0
  4  5  4  0  0  0  0
  4  7  4  0  0  0  0
  4 17  1  0  0  0  0
  5  9  4  0  0  0  0
  5 31  1  0  0  0  0
  6  7  4  0  0  0  0
  6  8  4  0  0  0  0
  6 32  1  0  0  0  0
  7 33  1  0  0  0  0
  8  9  4  0  0  0  0
  8 20  1  0  0  0  0
  9 34  1  0  0  0  0
 10 11  1  0  0  0  0
 10 21  1  0  0  0  0
 10 24  1  0  0  0  0
 10 35  1  0  0  0  0
 11 12  1  0  0  0  0
 11 36  1  0  0  0  0
 11 37  1  0  0  0  0
 12 23  1  0  0  0  0
 12 38  1  0  0  0  0
 12 39  1  0  0  0  0
 13 23  1  0  0  0  0
 13 25  4  0  0  0  0
 13 29  4  0  0  0  0
 15 16  4  0  0  0  0
 15 18  4  0  0  0  0
 16 17  4  0  0  0  0
 17 19  4  0  0  0  0
 18 19  4  0  0  0  0
 20 22  1  0  0  0  0
 21 40  1  0  0  0  0
 22 41  1  0  0  0  0
 22 42  1  0  0  0  0
 22 43  1  0  0  0  0
 23 24  1  0  0  0  0
 24 44  1  0  0  0  0
 24 45  1  0  0  0  0
 25 26  4  0  0  0  0
 25 46  1  0  0  0  0
 26 27  4  0  0  0  0
 26 47  1  0  0  0  0
 27 28  4  0  0  0  0
 28 29  4  0  0  0  0
 28 48  1  0  0  0  0
 29 49  1  0  0  0  0
M  END
> <ConfClashScore>
0 

> <ConfOneFourInteractionScore>
-0.984874 

> <ConfScore>
-0.0285649 

> <ConfScorePBest>
0.00469947 

> <ConfTolerance>
0.521579 

> <HETNAM>
     OWQ A 303  OWQ                                                       

> <pdb_OW>
Q_303 -16.5129 3.80749 7.62812 0.15963 1.39178 -0.28144 -3.20151 0 0 0 -1.30514 0 0 0 0 0 0 0 0 -8.31393

$$$$
6yky_lig_1.pdb
 OpenBabel04162415593D

 49 53  0  0  0  0  0  0  0  0999 V2000
    0.6672   -2.3836   -1.9647 C   0  0  0  1  0  0  0  0  0  0  0  0
    2.1589   -2.2399   -3.7150 C   0  0  0  1  0  0  0  0  0  0  0  0
    1.2726   -1.4390   -1.2777 N   0  0  0  1  0  0  0  0  0  0  0  0
    3.2423    0.9380   -0.1390 C   0  0  0  1  0  0  0  0  0  0  0  0
    3.1959    2.3116   -0.2842 C   0  0  0  1  0  0  0  0  0  0  0  0
    3.5602    1.1961    2.2231 C   0  0  0  1  0  0  0  0  0  0  0  0
    3.4274    0.3793    1.1161 C   0  0  0  1  0  0  0  0  0  0  0  0
    3.5136    2.5739    2.0777 C   0  0  0  1  0  0  0  0  0  0  0  0
    3.3291    3.1307    0.8261 C   0  0  0  1  0  0  0  0  0  0  0  0
   -1.0747   -2.4301   -0.2188 C   0  0  0  1  0  0  0  0  0  0  0  0
   -2.0805   -3.4263    0.3999 C   0  0  0  1  0  0  0  0  0  0  0  0
   -3.2825   -2.6360    0.8519 C   0  0  0  1  0  0  0  0  0  0  0  0
   -3.9794   -0.2486    0.1488 C   0  0  0  1  0  0  0  0  0  0  0  0
    1.0929   -2.7788   -3.1518 N   0  0  0  1  0  0  0  0  0  0  0  0
    2.8420   -1.2299   -3.0279 C   0  0  0  1  0  0  0  0  0  0  0  0
    2.3525   -0.8399   -1.7644 C   0  0  0  1  0  0  0  0  0  0  0  0
    3.1914    0.1452   -1.3219 N   0  0  0  1  0  0  0  0  0  0  0  0
    3.9344   -0.4809   -3.2936 N   0  0  0  1  0  0  0  0  0  0  0  0
    4.1618    0.3284   -2.3185 N   0  0  0  1  0  0  0  0  0  0  0  0
    3.6605    3.2700    3.2299 O   0  0  0  1  0  0  0  0  0  0  0  0
   -0.4554   -2.9857   -1.4264 N   0  0  0  1  0  0  0  0  0  0  0  0
    3.8468    4.6898    3.1196 C   0  0  0  1  0  0  0  0  0  0  0  0
   -3.0598   -1.3003    0.1095 N   0  0  0  1  0  0  0  0  0  0  0  0
   -1.9490   -1.2374   -0.5524 C   0  0  0  1  0  0  0  0  0  0  0  0
   -3.8803    0.7386    1.1118 C   0  0  0  1  0  0  0  0  0  0  0  0
   -4.8084    1.7625    1.1120 C   0  0  0  1  0  0  0  0  0  0  0  0
   -5.8063    1.8500    0.2272 N   0  0  0  1  0  0  0  0  0  0  0  0
   -5.8929    0.8838   -0.6982 C   0  0  0  1  0  0  0  0  0  0  0  0
   -5.0049   -0.1750   -0.7735 C   0  0  0  1  0  0  0  0  0  0  0  0
    2.4842   -2.5594   -4.6497 H   0  0  0  1  0  0  0  0  0  0  0  0
    3.0610    2.7307   -1.2264 H   0  0  0  1  0  0  0  0  0  0  0  0
    3.6950    0.7770    3.1653 H   0  0  0  1  0  0  0  0  0  0  0  0
    3.4663   -0.6542    1.2247 H   0  0  0  1  0  0  0  0  0  0  0  0
    3.2901    4.1642    0.7175 H   0  0  0  1  0  0  0  0  0  0  0  0
   -0.3125   -2.1651    0.4839 H   0  0  0  1  0  0  0  0  0  0  0  0
   -1.6347   -3.9231    1.2362 H   0  0  0  1  0  0  0  0  0  0  0  0
   -2.3735   -4.1506   -0.3312 H   0  0  0  1  0  0  0  0  0  0  0  0
   -4.1959   -3.1047    0.5500 H   0  0  0  1  0  0  0  0  0  0  0  0
   -3.2852   -2.4990    1.9130 H   0  0  0  1  0  0  0  0  0  0  0  0
   -0.8364   -3.7824   -1.8513 H   0  0  0  1  0  0  0  0  0  0  0  0
    2.9701    5.1332    2.6957 H   0  0  0  1  0  0  0  0  0  0  0  0
    4.6881    4.8910    2.4899 H   0  0  0  1  0  0  0  0  0  0  0  0
    4.0209    5.1029    4.0912 H   0  0  0  1  0  0  0  0  0  0  0  0
   -1.4329   -0.3369   -0.2923 H   0  0  0  1  0  0  0  0  0  0  0  0
   -2.1617   -1.2371   -1.6010 H   0  0  0  1  0  0  0  0  0  0  0  0
   -3.1217    0.7112    1.8226 H   0  0  0  1  0  0  0  0  0  0  0  0
   -4.7262    2.5029    1.8377 H   0  0  0  1  0  0  0  0  0  0  0  0
   -6.6650    0.9322   -1.3932 H   0  0  0  1  0  0  0  0  0  0  0  0
   -5.1078   -0.9015   -1.5105 H   0  0  0  1  0  0  0  0  0  0  0  0
  1  3  4  0  0  0  0
  1 14  4  0  0  0  0
  1 21  1  0  0  0  0
  2 14  4  0  0  0  0
  2 15  4  0  0  0  0
  2 30  1  0  0  0  0
  3 16  4  0  0  0  0
  4  5  4  0  0  0  0
  4  7  4  0  0  0  0
  4 17  1  0  0  0  0
  5  9  4  0  0  0  0
  5 31  1  0  0  0  0
  6  7  4  0  0  0  0
  6  8  4  0  0  0  0
  6 32  1  0  0  0  0
  7 33  1  0  0  0  0
  8  9  4  0  0  0  0
  8 20  1  0  0  0  0
  9 34  1  0  0  0  0
 10 11  1  0  0  0  0
 10 21  1  0  0  0  0
 10 24  1  0  0  0  0
 10 35  1  0  0  0  0
 11 12  1  0  0  0  0
 11 36  1  0  0  0  0
 11 37  1  0  0  0  0
 12 23  1  0  0  0  0
 12 38  1  0  0  0  0
 12 39  1  0  0  0  0
 13 23  1  0  0  0  0
 13 25  4  0  0  0  0
 13 29  4  0  0  0  0
 15 16  4  0  0  0  0
 15 18  4  0  0  0  0
 16 17  4  0  0  0  0
 17 19  4  0  0  0  0
 18 19  4  0  0  0  0
 20 22  1  0  0  0  0
 21 40  1  0  0  0  0
 22 41  1  0  0  0  0
 22 42  1  0  0  0  0
 22 43  1  0  0  0  0
 23 24  1  0  0  0  0
 24 44  1  0  0  0  0
 24 45  1  0  0  0  0
 25 26  4  0  0  0  0
 25 46  1  0  0  0  0
 26 27  4  0  0  0  0
 26 47  1  0  0  0  0
 27 28  4  0  0  0  0
 28 29  4  0  0  0  0
 28 48  1  0  0  0  0
 29 49  1  0  0  0  0
M  END
> <ConfClashScore>
0 

> <ConfOneFourInteractionScore>
-0.986948 

> <ConfScore>
-0.0284774 

> <ConfScorePBest>
0.00468614 

> <ConfTolerance>
0.485187 

> <HETNAM>
     OWQ A 303  OWQ                                                       

> <pdb_OW>
Q_303 -16.5129 3.80749 7.62812 0.15963 1.39178 -0.28144 -3.20151 0 0 0 -1.30514 0 0 0 0 0 0 0 0 -8.31393

$$$$
6yky_lig_1.pdb
 OpenBabel04162415593D

 49 53  0  0  0  0  0  0  0  0999 V2000
    0.7796    0.2924    0.8337 C   0  0  0  1  0  0  0  0  0  0  0  0
    2.5734    1.6772    1.2512 C   0  0  0  1  0  0  0  0  0  0  0  0
    1.3756   -0.2908   -0.1840 N   0  0  0  1  0  0  0  0  0  0  0  0
    3.4174   -1.2891   -2.5632 C   0  0  0  1  0  0  0  0  0  0  0  0
    2.3046   -1.2876   -3.3827 C   0  0  0  1  0  0  0  0  0  0  0  0
    4.2400   -3.2445   -3.6797 C   0  0  0  1  0  0  0  0  0  0  0  0
    4.3853   -2.2704   -2.7100 C   0  0  0  1  0  0  0  0  0  0  0  0
    3.1239   -3.2432   -4.5019 C   0  0  0  1  0  0  0  0  0  0  0  0
    2.1590   -2.2646   -4.3552 C   0  0  0  1  0  0  0  0  0  0  0  0
   -1.1455    0.4055    2.3613 C   0  0  0  1  0  0  0  0  0  0  0  0
   -2.1682   -0.6146    2.9091 C   0  0  0  1  0  0  0  0  0  0  0  0
   -3.3938    0.1546    3.3335 C   0  0  0  1  0  0  0  0  0  0  0  0
   -4.0676    2.5438    2.6707 C   0  0  0  1  0  0  0  0  0  0  0  0
    1.3564    1.2512    1.5369 N   0  0  0  1  0  0  0  0  0  0  0  0
    3.2540    1.0913    0.1779 C   0  0  0  1  0  0  0  0  0  0  0  0
    2.6004    0.0720   -0.5447 C   0  0  0  1  0  0  0  0  0  0  0  0
    3.4738   -0.3181   -1.5218 N   0  0  0  1  0  0  0  0  0  0  0  0
    4.4712    1.2731   -0.3794 N   0  0  0  1  0  0  0  0  0  0  0  0
    4.6270    0.4666   -1.3708 N   0  0  0  1  0  0  0  0  0  0  0  0
    2.8725   -4.1408   -5.4746 O   0  0  0  1  0  0  0  0  0  0  0  0
   -0.4794   -0.1059    1.1764 N   0  0  0  1  0  0  0  0  0  0  0  0
    3.8643   -5.1842   -5.6159 C   0  0  0  1  0  0  0  0  0  0  0  0
   -3.1509    1.5127    2.6396 N   0  0  0  1  0  0  0  0  0  0  0  0
   -2.0144    1.6018    2.0263 C   0  0  0  1  0  0  0  0  0  0  0  0
   -5.1150    2.5832    1.7689 C   0  0  0  1  0  0  0  0  0  0  0  0
   -6.0124    3.6317    1.8379 C   0  0  0  1  0  0  0  0  0  0  0  0
   -5.9211    4.6194    2.7337 N   0  0  0  1  0  0  0  0  0  0  0  0
   -4.8983    4.5709    3.5991 C   0  0  0  1  0  0  0  0  0  0  0  0
   -3.9568    3.5566    3.6033 C   0  0  0  1  0  0  0  0  0  0  0  0
    3.0167    2.4325    1.8121 H   0  0  0  1  0  0  0  0  0  0  0  0
    1.5765   -0.5536   -3.2698 H   0  0  0  1  0  0  0  0  0  0  0  0
    4.9681   -3.9785   -3.7926 H   0  0  0  1  0  0  0  0  0  0  0  0
    5.2207   -2.2738   -2.0906 H   0  0  0  1  0  0  0  0  0  0  0  0
    1.3235   -2.2612   -4.9746 H   0  0  0  1  0  0  0  0  0  0  0  0
   -0.4148    0.6549    3.1021 H   0  0  0  1  0  0  0  0  0  0  0  0
   -1.7535   -1.1326    3.7484 H   0  0  0  1  0  0  0  0  0  0  0  0
   -2.4255   -1.3192    2.1461 H   0  0  0  1  0  0  0  0  0  0  0  0
   -4.2904   -0.3110    2.9808 H   0  0  0  1  0  0  0  0  0  0  0  0
   -3.4411    0.2608    4.3972 H   0  0  0  1  0  0  0  0  0  0  0  0
   -0.9463   -0.7538    0.6084 H   0  0  0  1  0  0  0  0  0  0  0  0
    3.7637   -5.8838   -4.8126 H   0  0  0  1  0  0  0  0  0  0  0  0
    4.8427   -4.7517   -5.5915 H   0  0  0  1  0  0  0  0  0  0  0  0
    3.7201   -5.6890   -6.5483 H   0  0  0  1  0  0  0  0  0  0  0  0
   -2.1838    1.6311    0.9702 H   0  0  0  1  0  0  0  0  0  0  0  0
   -1.5162    2.4977    2.3331 H   0  0  0  1  0  0  0  0  0  0  0  0
   -5.2253    1.8377    1.0522 H   0  0  0  1  0  0  0  0  0  0  0  0
   -6.7991    3.6534    1.1580 H   0  0  0  1  0  0  0  0  0  0  0  0
   -4.8080    5.3326    4.3014 H   0  0  0  1  0  0  0  0  0  0  0  0
   -3.1806    3.5569    4.2954 H   0  0  0  1  0  0  0  0  0  0  0  0
  1  3  4  0  0  0  0
  1 14  4  0  0  0  0
  1 21  1  0  0  0  0
  2 14  4  0  0  0  0
  2 15  4  0  0  0  0
  2 30  1  0  0  0  0
  3 16  4  0  0  0  0
  4  5  4  0  0  0  0
  4  7  4  0  0  0  0
  4 17  1  0  0  0  0
  5  9  4  0  0  0  0
  5 31  1  0  0  0  0
  6  7  4  0  0  0  0
  6  8  4  0  0  0  0
  6 32  1  0  0  0  0
  7 33  1  0  0  0  0
  8  9  4  0  0  0  0
  8 20  1  0  0  0  0
  9 34  1  0  0  0  0
 10 11  1  0  0  0  0
 10 21  1  0  0  0  0
 10 24  1  0  0  0  0
 10 35  1  0  0  0  0
 11 12  1  0  0  0  0
 11 36  1  0  0  0  0
 11 37  1  0  0  0  0
 12 23  1  0  0  0  0
 12 38  1  0  0  0  0
 12 39  1  0  0  0  0
 13 23  1  0  0  0  0
 13 25  4  0  0  0  0
 13 29  4  0  0  0  0
 15 16  4  0  0  0  0
 15 18  4  0  0  0  0
 16 17  4  0  0  0  0
 17 19  4  0  0  0  0
 18 19  4  0  0  0  0
 20 22  1  0  0  0  0
 21 40  1  0  0  0  0
 22 41  1  0  0  0  0
 22 42  1  0  0  0  0
 22 43  1  0  0  0  0
 23 24  1  0  0  0  0
 24 44  1  0  0  0  0
 24 45  1  0  0  0  0
 25 26  4  0  0  0  0
 25 46  1  0  0  0  0
 26 27  4  0  0  0  0
 26 47  1  0  0  0  0
 27 28  4  0  0  0  0
 28 29  4  0  0  0  0
 28 48  1  0  0  0  0
 29 49  1  0  0  0  0
M  END
> <ConfClashScore>
0 

> <ConfOneFourInteractionScore>
-0.986948 

> <ConfScore>
-0.0278977 

> <ConfScorePBest>
0.00467282 

> <ConfTolerance>
0.399142 

> <HETNAM>
     OWQ A 303  OWQ                                                       

> <pdb_OW>
Q_303 -16.5129 3.80749 7.62812 0.15963 1.39178 -0.28144 -3.20151 0 0 0 -1.30514 0 0 0 0 0 0 0 0 -8.31393

$$$$
6yky_lig_1.pdb
 OpenBabel04162415593D

 49 53  0  0  0  0  0  0  0  0999 V2000
    0.8124    0.2576    0.6780 C   0  0  0  1  0  0  0  0  0  0  0  0
    2.4689    1.7668    1.2144 C   0  0  0  1  0  0  0  0  0  0  0  0
    1.5535   -0.3418   -0.2288 N   0  0  0  1  0  0  0  0  0  0  0  0
    3.8031   -1.3056   -2.3387 C   0  0  0  1  0  0  0  0  0  0  0  0
    2.7522   -2.1961   -2.4506 C   0  0  0  1  0  0  0  0  0  0  0  0
    4.9623   -2.4488   -4.0984 C   0  0  0  1  0  0  0  0  0  0  0  0
    4.9110   -1.4336   -3.1619 C   0  0  0  1  0  0  0  0  0  0  0  0
    3.9083   -3.3421   -4.2108 C   0  0  0  1  0  0  0  0  0  0  0  0
    2.8037   -3.2142   -3.3899 C   0  0  0  1  0  0  0  0  0  0  0  0
   -1.3269    0.4101    1.9656 C   0  0  0  1  0  0  0  0  0  0  0  0
   -2.3758   -0.6332    2.4406 C   0  0  0  1  0  0  0  0  0  0  0  0
   -3.6204    0.1443    2.9174 C   0  0  0  1  0  0  0  0  0  0  0  0
   -4.2324    2.6286    2.5805 C   0  0  0  1  0  0  0  0  0  0  0  0
    1.2512    1.2847    1.3844 N   0  0  0  1  0  0  0  0  0  0  0  0
    3.3007    1.1668    0.2622 C   0  0  0  1  0  0  0  0  0  0  0  0
    2.7911    0.0738   -0.4685 C   0  0  0  1  0  0  0  0  0  0  0  0
    3.7925   -0.3145   -1.3150 N   0  0  0  1  0  0  0  0  0  0  0  0
    4.5633    1.3913   -0.1626 N   0  0  0  1  0  0  0  0  0  0  0  0
    4.8767    0.5444   -1.0803 N   0  0  0  1  0  0  0  0  0  0  0  0
    4.0731   -4.2959   -5.1579 O   0  0  0  1  0  0  0  0  0  0  0  0
   -0.4378   -0.1392    0.9409 N   0  0  0  1  0  0  0  0  0  0  0  0
    3.0798   -5.3308   -5.2269 C   0  0  0  1  0  0  0  0  0  0  0  0
   -3.4203    1.4901    2.3092 N   0  0  0  1  0  0  0  0  0  0  0  0
   -2.2704    1.4840    1.3901 C   0  0  0  1  0  0  0  0  0  0  0  0
   -4.1040    3.3181    3.7720 C   0  0  0  1  0  0  0  0  0  0  0  0
   -4.9090    4.4195    3.9927 C   0  0  0  1  0  0  0  0  0  0  0  0
   -5.8140    4.8565    3.1118 N   0  0  0  1  0  0  0  0  0  0  0  0
   -5.9309    4.1760    1.9626 C   0  0  0  1  0  0  0  0  0  0  0  0
   -5.1633    3.0654    1.6583 C   0  0  0  1  0  0  0  0  0  0  0  0
    2.8028    2.5757    1.7764 H   0  0  0  1  0  0  0  0  0  0  0  0
    1.9228   -2.1024   -1.8302 H   0  0  0  1  0  0  0  0  0  0  0  0
    5.7917   -2.5425   -4.7188 H   0  0  0  1  0  0  0  0  0  0  0  0
    5.7036   -0.7659   -3.0749 H   0  0  0  1  0  0  0  0  0  0  0  0
    2.0111   -3.8820   -3.4769 H   0  0  0  1  0  0  0  0  0  0  0  0
   -0.7438    0.7873    2.7795 H   0  0  0  1  0  0  0  0  0  0  0  0
   -1.9758   -1.2121    3.2467 H   0  0  0  1  0  0  0  0  0  0  0  0
   -2.6383   -1.2817    1.6310 H   0  0  0  1  0  0  0  0  0  0  0  0
   -3.6515    0.2047    3.9853 H   0  0  0  1  0  0  0  0  0  0  0  0
   -4.5200   -0.3108    2.5591 H   0  0  0  1  0  0  0  0  0  0  0  0
   -0.7934   -0.8700    0.3932 H   0  0  0  1  0  0  0  0  0  0  0  0
    2.1155   -4.9145   -5.0223 H   0  0  0  1  0  0  0  0  0  0  0  0
    3.3023   -6.0871   -4.5036 H   0  0  0  1  0  0  0  0  0  0  0  0
    3.0814   -5.7617   -6.2063 H   0  0  0  1  0  0  0  0  0  0  0  0
   -2.5792    1.2250    0.3990 H   0  0  0  1  0  0  0  0  0  0  0  0
   -1.7915    2.4408    1.3765 H   0  0  0  1  0  0  0  0  0  0  0  0
   -3.4147    3.0136    4.4887 H   0  0  0  1  0  0  0  0  0  0  0  0
   -4.8051    4.9346    4.8901 H   0  0  0  1  0  0  0  0  0  0  0  0
   -6.6325    4.4985    1.2659 H   0  0  0  1  0  0  0  0  0  0  0  0
   -5.2851    2.5691    0.7525 H   0  0  0  1  0  0  0  0  0  0  0  0
  1  3  4  0  0  0  0
  1 14  4  0  0  0  0
  1 21  1  0  0  0  0
  2 14  4  0  0  0  0
  2 15  4  0  0  0  0
  2 30  1  0  0  0  0
  3 16  4  0  0  0  0
  4  5  4  0  0  0  0
  4  7  4  0  0  0  0
  4 17  1  0  0  0  0
  5  9  4  0  0  0  0
  5 31  1  0  0  0  0
  6  7  4  0  0  0  0
  6  8  4  0  0  0  0
  6 32  1  0  0  0  0
  7 33  1  0  0  0  0
  8  9  4  0  0  0  0
  8 20  1  0  0  0  0
  9 34  1  0  0  0  0
 10 11  1  0  0  0  0
 10 21  1  0  0  0  0
 10 24  1  0  0  0  0
 10 35  1  0  0  0  0
 11 12  1  0  0  0  0
 11 36  1  0  0  0  0
 11 37  1  0  0  0  0
 12 23  1  0  0  0  0
 12 38  1  0  0  0  0
 12 39  1  0  0  0  0
 13 23  1  0  0  0  0
 13 25  4  0  0  0  0
 13 29  4  0  0  0  0
 15 16  4  0  0  0  0
 15 18  4  0  0  0  0
 16 17  4  0  0  0  0
 17 19  4  0  0  0  0
 18 19  4  0  0  0  0
 20 22  1  0  0  0  0
 21 40  1  0  0  0  0
 22 41  1  0  0  0  0
 22 42  1  0  0  0  0
 22 43  1  0  0  0  0
 23 24  1  0  0  0  0
 24 44  1  0  0  0  0
 24 45  1  0  0  0  0
 25 26  4  0  0  0  0
 25 46  1  0  0  0  0
 26 27  4  0  0  0  0
 26 47  1  0  0  0  0
 27 28  4  0  0  0  0
 28 29  4  0  0  0  0
 28 48  1  0  0  0  0
 29 49  1  0  0  0  0
M  END
> <ConfClashScore>
0 

> <ConfOneFourInteractionScore>
-0.986948 

> <ConfScore>
-0.0267352 

> <ConfScorePBest>
0.00465949 

> <ConfTolerance>
0.365686 

> <HETNAM>
     OWQ A 303  OWQ                                                       

> <pdb_OW>
Q_303 -16.5129 3.80749 7.62812 0.15963 1.39178 -0.28144 -3.20151 0 0 0 -1.30514 0 0 0 0 0 0 0 0 -8.31393

$$$$
6yky_lig_1.pdb
 OpenBabel04162415593D

 49 53  0  0  0  0  0  0  0  0999 V2000
    0.4747   -0.1617    0.8558 C   0  0  0  1  0  0  0  0  0  0  0  0
    1.9943   -0.2427    2.5861 C   0  0  0  1  0  0  0  0  0  0  0  0
    1.2981   -0.7441    0.0110 N   0  0  0  1  0  0  0  0  0  0  0  0
    3.7702   -2.1931   -1.5357 C   0  0  0  1  0  0  0  0  0  0  0  0
    5.0353   -2.2030   -2.0919 C   0  0  0  1  0  0  0  0  0  0  0  0
    2.8464   -2.9404   -3.6179 C   0  0  0  1  0  0  0  0  0  0  0  0
    2.6737   -2.5598   -2.3005 C   0  0  0  1  0  0  0  0  0  0  0  0
    4.1153   -2.9504   -4.1760 C   0  0  0  1  0  0  0  0  0  0  0  0
    5.2084   -2.5848   -3.4132 C   0  0  0  1  0  0  0  0  0  0  0  0
   -1.6773    0.7543    1.4533 C   0  0  0  1  0  0  0  0  0  0  0  0
   -2.7310   -0.2871    1.9220 C   0  0  0  1  0  0  0  0  0  0  0  0
   -3.9670    0.4936    2.4157 C   0  0  0  1  0  0  0  0  0  0  0  0
   -4.5453    2.9612    2.1062 C   0  0  0  1  0  0  0  0  0  0  0  0
    0.8067    0.0857    2.1109 N   0  0  0  1  0  0  0  0  0  0  0  0
    2.9102   -0.8652    1.7304 C   0  0  0  1  0  0  0  0  0  0  0  0
    2.5135   -1.1097    0.3996 C   0  0  0  1  0  0  0  0  0  0  0  0
    3.5788   -1.7158   -0.2069 N   0  0  0  1  0  0  0  0  0  0  0  0
    4.1730   -1.3235    1.8728 N   0  0  0  1  0  0  0  0  0  0  0  0
    4.5882   -1.8240    0.7615 N   0  0  0  1  0  0  0  0  0  0  0  0
    4.1598   -3.3333   -5.4668 O   0  0  0  1  0  0  0  0  0  0  0  0
   -0.7946    0.2087    0.4123 N   0  0  0  1  0  0  0  0  0  0  0  0
    5.4431   -3.1624   -6.1122 C   0  0  0  1  0  0  0  0  0  0  0  0
   -3.7608    1.8451    1.8226 N   0  0  0  1  0  0  0  0  0  0  0  0
   -2.6164    1.8419    0.8966 C   0  0  0  1  0  0  0  0  0  0  0  0
   -5.6554    3.2516    1.3349 C   0  0  0  1  0  0  0  0  0  0  0  0
   -6.4640    4.3092    1.7054 C   0  0  0  1  0  0  0  0  0  0  0  0
   -6.2283    5.0748    2.7752 N   0  0  0  1  0  0  0  0  0  0  0  0
   -5.1462    4.7848    3.5115 C   0  0  0  1  0  0  0  0  0  0  0  0
   -4.2854    3.7424    3.2153 C   0  0  0  1  0  0  0  0  0  0  0  0
    2.2438   -0.0427    3.5757 H   0  0  0  1  0  0  0  0  0  0  0  0
    5.8574   -1.9241   -1.5193 H   0  0  0  1  0  0  0  0  0  0  0  0
    2.0243   -3.2194   -4.1906 H   0  0  0  1  0  0  0  0  0  0  0  0
    1.7213   -2.5485   -1.8830 H   0  0  0  1  0  0  0  0  0  0  0  0
    6.1609   -2.5961   -3.8307 H   0  0  0  1  0  0  0  0  0  0  0  0
   -1.0866    1.1174    2.2683 H   0  0  0  1  0  0  0  0  0  0  0  0
   -3.0030   -0.9238    1.1062 H   0  0  0  1  0  0  0  0  0  0  0  0
   -2.3305   -0.8787    2.7186 H   0  0  0  1  0  0  0  0  0  0  0  0
   -3.9913    0.5412    3.4844 H   0  0  0  1  0  0  0  0  0  0  0  0
   -4.8720    0.0493    2.0573 H   0  0  0  1  0  0  0  0  0  0  0  0
   -1.0763    0.1126   -0.5214 H   0  0  0  1  0  0  0  0  0  0  0  0
    5.3000   -2.7435   -7.0863 H   0  0  0  1  0  0  0  0  0  0  0  0
    5.9270   -4.1127   -6.2004 H   0  0  0  1  0  0  0  0  0  0  0  0
    6.0515   -2.5048   -5.5271 H   0  0  0  1  0  0  0  0  0  0  0  0
   -2.9329    1.5972   -0.0957 H   0  0  0  1  0  0  0  0  0  0  0  0
   -2.1306    2.7953    0.8917 H   0  0  0  1  0  0  0  0  0  0  0  0
   -5.8777    2.6847    0.4918 H   0  0  0  1  0  0  0  0  0  0  0  0
   -7.2987    4.5201    1.1219 H   0  0  0  1  0  0  0  0  0  0  0  0
   -4.9438    5.3716    4.3459 H   0  0  0  1  0  0  0  0  0  0  0  0
   -3.4585    3.5509    3.8163 H   0  0  0  1  0  0  0  0  0  0  0  0
  1  3  4  0  0  0  0
  1 14  4  0  0  0  0
  1 21  1  0  0  0  0
  2 14  4  0  0  0  0
  2 15  4  0  0  0  0
  2 30  1  0  0  0  0
  3 16  4  0  0  0  0
  4  5  4  0  0  0  0
  4  7  4  0  0  0  0
  4 17  1  0  0  0  0
  5  9  4  0  0  0  0
  5 31  1  0  0  0  0
  6  7  4  0  0  0  0
  6  8  4  0  0  0  0
  6 32  1  0  0  0  0
  7 33  1  0  0  0  0
  8  9  4  0  0  0  0
  8 20  1  0  0  0  0
  9 34  1  0  0  0  0
 10 11  1  0  0  0  0
 10 21  1  0  0  0  0
 10 24  1  0  0  0  0
 10 35  1  0  0  0  0
 11 12  1  0  0  0  0
 11 36  1  0  0  0  0
 11 37  1  0  0  0  0
 12 23  1  0  0  0  0
 12 38  1  0  0  0  0
 12 39  1  0  0  0  0
 13 23  1  0  0  0  0
 13 25  4  0  0  0  0
 13 29  4  0  0  0  0
 15 16  4  0  0  0  0
 15 18  4  0  0  0  0
 16 17  4  0  0  0  0
 17 19  4  0  0  0  0
 18 19  4  0  0  0  0
 20 22  1  0  0  0  0
 21 40  1  0  0  0  0
 22 41  1  0  0  0  0
 22 42  1  0  0  0  0
 22 43  1  0  0  0  0
 23 24  1  0  0  0  0
 24 44  1  0  0  0  0
 24 45  1  0  0  0  0
 25 26  4  0  0  0  0
 25 46  1  0  0  0  0
 26 27  4  0  0  0  0
 26 47  1  0  0  0  0
 27 28  4  0  0  0  0
 28 29  4  0  0  0  0
 28 48  1  0  0  0  0
 29 49  1  0  0  0  0
M  END
> <ConfClashScore>
0 

> <ConfOneFourInteractionScore>
-0.986948 

> <ConfScore>
-0.0265769 

> <ConfScorePBest>
0.00464616 

> <ConfTolerance>
0.332876 

> <HETNAM>
     OWQ A 303  OWQ                                                       

> <pdb_OW>
Q_303 -16.5129 3.80749 7.62812 0.15963 1.39178 -0.28144 -3.20151 0 0 0 -1.30514 0 0 0 0 0 0 0 0 -8.31393

$$$$
6yky_lig_1.pdb
 OpenBabel04162415593D

 49 53  0  0  0  0  0  0  0  0999 V2000
    0.5918    0.3207    0.6507 C   0  0  0  1  0  0  0  0  0  0  0  0
    1.3519    2.4484    0.1984 C   0  0  0  1  0  0  0  0  0  0  0  0
    1.1638   -0.1879   -0.4193 N   0  0  0  1  0  0  0  0  0  0  0  0
    2.7917   -0.7923   -3.1739 C   0  0  0  1  0  0  0  0  0  0  0  0
    3.0585   -1.9934   -2.5444 C   0  0  0  1  0  0  0  0  0  0  0  0
    3.1566   -1.8260   -5.3059 C   0  0  0  1  0  0  0  0  0  0  0  0
    2.8434   -0.7077   -4.5565 C   0  0  0  1  0  0  0  0  0  0  0  0
    3.4242   -3.0308   -4.6747 C   0  0  0  1  0  0  0  0  0  0  0  0
    3.3726   -3.1149   -3.2960 C   0  0  0  1  0  0  0  0  0  0  0  0
   -0.7731   -0.0081    2.6709 C   0  0  0  1  0  0  0  0  0  0  0  0
   -1.8032   -1.0281    3.2050 C   0  0  0  1  0  0  0  0  0  0  0  0
   -3.0193   -0.2551    3.6491 C   0  0  0  1  0  0  0  0  0  0  0  0
   -3.6956    2.1780    3.0342 C   0  0  0  1  0  0  0  0  0  0  0  0
    0.6790    1.6031    0.9579 N   0  0  0  1  0  0  0  0  0  0  0  0
    1.9808    1.9609   -0.9529 C   0  0  0  1  0  0  0  0  0  0  0  0
    1.8613    0.5860   -1.2418 C   0  0  0  1  0  0  0  0  0  0  0  0
    2.5572    0.3816   -2.4010 N   0  0  0  1  0  0  0  0  0  0  0  0
    2.7284    2.5215   -1.9285 N   0  0  0  1  0  0  0  0  0  0  0  0
    3.0781    1.6263   -2.7852 N   0  0  0  1  0  0  0  0  0  0  0  0
    3.8444   -4.1270   -5.3694 O   0  0  0  1  0  0  0  0  0  0  0  0
   -0.1174   -0.5043    1.4738 N   0  0  0  1  0  0  0  0  0  0  0  0
    4.3009   -5.3435   -4.6877 C   0  0  0  1  0  0  0  0  0  0  0  0
   -2.7664    1.1130    2.9787 N   0  0  0  1  0  0  0  0  0  0  0  0
   -1.6319    1.2023    2.3617 C   0  0  0  1  0  0  0  0  0  0  0  0
   -4.5613    2.4137    1.9822 C   0  0  0  1  0  0  0  0  0  0  0  0
   -5.4557    3.4625    2.0795 C   0  0  0  1  0  0  0  0  0  0  0  0
   -5.5285    4.2700    3.1420 N   0  0  0  1  0  0  0  0  0  0  0  0
   -4.6804    4.0328    4.1528 C   0  0  0  1  0  0  0  0  0  0  0  0
   -3.7559    3.0030    4.1404 C   0  0  0  1  0  0  0  0  0  0  0  0
    1.4133    3.4555    0.4507 H   0  0  0  1  0  0  0  0  0  0  0  0
    3.0236   -2.0557   -1.5068 H   0  0  0  1  0  0  0  0  0  0  0  0
    3.1915   -1.7636   -6.3434 H   0  0  0  1  0  0  0  0  0  0  0  0
    2.6466    0.1972   -5.0300 H   0  0  0  1  0  0  0  0  0  0  0  0
    3.5694   -4.0197   -2.8226 H   0  0  0  1  0  0  0  0  0  0  0  0
   -0.0367    0.2208    3.4127 H   0  0  0  1  0  0  0  0  0  0  0  0
   -2.0708   -1.7163    2.4306 H   0  0  0  1  0  0  0  0  0  0  0  0
   -1.3896   -1.5652    4.0329 H   0  0  0  1  0  0  0  0  0  0  0  0
   -3.9219   -0.7055    3.2923 H   0  0  0  1  0  0  0  0  0  0  0  0
   -3.0607   -0.1677    4.7147 H   0  0  0  1  0  0  0  0  0  0  0  0
   -0.1861   -1.4563    1.2516 H   0  0  0  1  0  0  0  0  0  0  0  0
    3.5451   -5.6768   -4.0076 H   0  0  0  1  0  0  0  0  0  0  0  0
    5.1996   -5.1329   -4.1465 H   0  0  0  1  0  0  0  0  0  0  0  0
    4.4909   -6.1079   -5.4119 H   0  0  0  1  0  0  0  0  0  0  0  0
   -1.8058    1.2525    1.3072 H   0  0  0  1  0  0  0  0  0  0  0  0
   -1.1237    2.0877    2.6824 H   0  0  0  1  0  0  0  0  0  0  0  0
   -4.5396    1.8129    1.1335 H   0  0  0  1  0  0  0  0  0  0  0  0
   -6.1055    3.6322    1.2854 H   0  0  0  1  0  0  0  0  0  0  0  0
   -4.7191    4.6528    4.9869 H   0  0  0  1  0  0  0  0  0  0  0  0
   -3.1187    2.8531    4.9485 H   0  0  0  1  0  0  0  0  0  0  0  0
  1  3  4  0  0  0  0
  1 14  4  0  0  0  0
  1 21  1  0  0  0  0
  2 14  4  0  0  0  0
  2 15  4  0  0  0  0
  2 30  1  0  0  0  0
  3 16  4  0  0  0  0
  4  5  4  0  0  0  0
  4  7  4  0  0  0  0
  4 17  1  0  0  0  0
  5  9  4  0  0  0  0
  5 31  1  0  0  0  0
  6  7  4  0  0  0  0
  6  8  4  0  0  0  0
  6 32  1  0  0  0  0
  7 33  1  0  0  0  0
  8  9  4  0  0  0  0
  8 20  1  0  0  0  0
  9 34  1  0  0  0  0
 10 11  1  0  0  0  0
 10 21  1  0  0  0  0
 10 24  1  0  0  0  0
 10 35  1  0  0  0  0
 11 12  1  0  0  0  0
 11 36  1  0  0  0  0
 11 37  1  0  0  0  0
 12 23  1  0  0  0  0
 12 38  1  0  0  0  0
 12 39  1  0  0  0  0
 13 23  1  0  0  0  0
 13 25  4  0  0  0  0
 13 29  4  0  0  0  0
 15 16  4  0  0  0  0
 15 18  4  0  0  0  0
 16 17  4  0  0  0  0
 17 19  4  0  0  0  0
 18 19  4  0  0  0  0
 20 22  1  0  0  0  0
 21 40  1  0  0  0  0
 22 41  1  0  0  0  0
 22 42  1  0  0  0  0
 22 43  1  0  0  0  0
 23 24  1  0  0  0  0
 24 44  1  0  0  0  0
 24 45  1  0  0  0  0
 25 26  4  0  0  0  0
 25 46  1  0  0  0  0
 26 27  4  0  0  0  0
 26 47  1  0  0  0  0
 27 28  4  0  0  0  0
 28 29  4  0  0  0  0
 28 48  1  0  0  0  0
 29 49  1  0  0  0  0
M  END
> <ConfClashScore>
0 

> <ConfOneFourInteractionScore>
-0.987833 

> <ConfScore>
-0.0255576 

> <ConfScorePBest>
0.00463283 

> <ConfTolerance>
0.396056 

> <HETNAM>
     OWQ A 303  OWQ                                                       

> <pdb_OW>
Q_303 -16.5129 3.80749 7.62812 0.15963 1.39178 -0.28144 -3.20151 0 0 0 -1.30514 0 0 0 0 0 0 0 0 -8.31393

$$$$
6yky_lig_1.pdb
 OpenBabel04162415593D

 49 53  0  0  0  0  0  0  0  0999 V2000
    1.2410   -0.2751    1.2392 C   0  0  0  1  0  0  0  0  0  0  0  0
    2.1590   -2.1543    2.2062 C   0  0  0  1  0  0  0  0  0  0  0  0
    1.1521   -0.8410    0.0548 N   0  0  0  1  0  0  0  0  0  0  0  0
    1.2254   -2.8360   -2.5607 C   0  0  0  1  0  0  0  0  0  0  0  0
    1.3343   -3.9649   -3.3506 C   0  0  0  1  0  0  0  0  0  0  0  0
    0.5768   -1.5532   -4.4793 C   0  0  0  1  0  0  0  0  0  0  0  0
    0.8487   -1.6278   -3.1262 C   0  0  0  1  0  0  0  0  0  0  0  0
    0.6860   -2.6854   -5.2718 C   0  0  0  1  0  0  0  0  0  0  0  0
    1.0616   -3.8900   -4.7076 C   0  0  0  1  0  0  0  0  0  0  0  0
    0.9586    1.6442    2.7560 C   0  0  0  1  0  0  0  0  0  0  0  0
    0.1551    0.8921    3.8110 C   0  0  0  1  0  0  0  0  0  0  0  0
   -1.2836    1.3831    3.6037 C   0  0  0  1  0  0  0  0  0  0  0  0
   -2.1324    3.6034    2.7735 C   0  0  0  1  0  0  0  0  0  0  0  0
    1.7301   -0.9081    2.2911 N   0  0  0  1  0  0  0  0  0  0  0  0
    2.0877   -2.8052    0.9694 C   0  0  0  1  0  0  0  0  0  0  0  0
    1.5589   -2.0916   -0.1257 C   0  0  0  1  0  0  0  0  0  0  0  0
    1.6043   -2.9470   -1.1916 N   0  0  0  1  0  0  0  0  0  0  0  0
    2.4248   -4.0379    0.5314 N   0  0  0  1  0  0  0  0  0  0  0  0
    2.1547   -4.1492   -0.7226 N   0  0  0  1  0  0  0  0  0  0  0  0
    0.5170   -2.5874   -6.6118 O   0  0  0  1  0  0  0  0  0  0  0  0
    0.8304    1.0107    1.4554 N   0  0  0  1  0  0  0  0  0  0  0  0
    0.6062   -3.8007   -7.3749 C   0  0  0  1  0  0  0  0  0  0  0  0
   -1.0970    2.7270    3.0277 N   0  0  0  1  0  0  0  0  0  0  0  0
    0.3235    3.0310    2.7529 C   0  0  0  1  0  0  0  0  0  0  0  0
   -2.5601    4.4897    3.7446 C   0  0  0  1  0  0  0  0  0  0  0  0
   -3.5975    5.3525    3.4464 C   0  0  0  1  0  0  0  0  0  0  0  0
   -4.2171    5.3754    2.2624 N   0  0  0  1  0  0  0  0  0  0  0  0
   -3.7950    4.5078    1.3317 C   0  0  0  1  0  0  0  0  0  0  0  0
   -2.7615    3.6121    1.5439 C   0  0  0  1  0  0  0  0  0  0  0  0
    2.5419   -2.6419    3.0413 H   0  0  0  1  0  0  0  0  0  0  0  0
    1.6208   -4.8704   -2.9269 H   0  0  0  1  0  0  0  0  0  0  0  0
    0.2903   -0.6477   -4.9030 H   0  0  0  1  0  0  0  0  0  0  0  0
    0.7707   -0.7775   -2.5325 H   0  0  0  1  0  0  0  0  0  0  0  0
    1.1396   -4.7403   -5.3013 H   0  0  0  1  0  0  0  0  0  0  0  0
    1.9923    1.6969    3.0272 H   0  0  0  1  0  0  0  0  0  0  0  0
    0.5007    1.1327    4.7947 H   0  0  0  1  0  0  0  0  0  0  0  0
    0.2218   -0.1647    3.6575 H   0  0  0  1  0  0  0  0  0  0  0  0
   -1.8101    1.4335    4.5338 H   0  0  0  1  0  0  0  0  0  0  0  0
   -1.8135    0.7454    2.9274 H   0  0  0  1  0  0  0  0  0  0  0  0
    0.4393    1.5181    0.7137 H   0  0  0  1  0  0  0  0  0  0  0  0
   -0.1305   -4.4953   -7.0288 H   0  0  0  1  0  0  0  0  0  0  0  0
    1.5808   -4.2259   -7.2557 H   0  0  0  1  0  0  0  0  0  0  0  0
    0.4346   -3.5849   -8.4088 H   0  0  0  1  0  0  0  0  0  0  0  0
    0.4407    3.5087    1.8026 H   0  0  0  1  0  0  0  0  0  0  0  0
    0.7422    3.6506    3.5181 H   0  0  0  1  0  0  0  0  0  0  0  0
   -2.1096    4.5067    4.6818 H   0  0  0  1  0  0  0  0  0  0  0  0
   -3.9123    6.0181    4.1810 H   0  0  0  1  0  0  0  0  0  0  0  0
   -4.2673    4.5077    0.4051 H   0  0  0  1  0  0  0  0  0  0  0  0
   -2.4643    2.9581    0.7919 H   0  0  0  1  0  0  0  0  0  0  0  0
  1  3  4  0  0  0  0
  1 14  4  0  0  0  0
  1 21  1  0  0  0  0
  2 14  4  0  0  0  0
  2 15  4  0  0  0  0
  2 30  1  0  0  0  0
  3 16  4  0  0  0  0
  4  5  4  0  0  0  0
  4  7  4  0  0  0  0
  4 17  1  0  0  0  0
  5  9  4  0  0  0  0
  5 31  1  0  0  0  0
  6  7  4  0  0  0  0
  6  8  4  0  0  0  0
  6 32  1  0  0  0  0
  7 33  1  0  0  0  0
  8  9  4  0  0  0  0
  8 20  1  0  0  0  0
  9 34  1  0  0  0  0
 10 11  1  0  0  0  0
 10 21  1  0  0  0  0
 10 24  1  0  0  0  0
 10 35  1  0  0  0  0
 11 12  1  0  0  0  0
 11 36  1  0  0  0  0
 11 37  1  0  0  0  0
 12 23  1  0  0  0  0
 12 38  1  0  0  0  0
 12 39  1  0  0  0  0
 13 23  1  0  0  0  0
 13 25  4  0  0  0  0
 13 29  4  0  0  0  0
 15 16  4  0  0  0  0
 15 18  4  0  0  0  0
 16 17  4  0  0  0  0
 17 19  4  0  0  0  0
 18 19  4  0  0  0  0
 20 22  1  0  0  0  0
 21 40  1  0  0  0  0
 22 41  1  0  0  0  0
 22 42  1  0  0  0  0
 22 43  1  0  0  0  0
 23 24  1  0  0  0  0
 24 44  1  0  0  0  0
 24 45  1  0  0  0  0
 25 26  4  0  0  0  0
 25 46  1  0  0  0  0
 26 27  4  0  0  0  0
 26 47  1  0  0  0  0
 27 28  4  0  0  0  0
 28 29  4  0  0  0  0
 28 48  1  0  0  0  0
 29 49  1  0  0  0  0
M  END
> <ConfClashScore>
0 

> <ConfOneFourInteractionScore>
-0.981795 

> <ConfScore>
-0.0251673 

> <ConfScorePBest>
0.0046195 

> <ConfTolerance>
0.551668 

> <HETNAM>
     OWQ A 303  OWQ                                                       

> <pdb_OW>
Q_303 -16.5129 3.80749 7.62812 0.15963 1.39178 -0.28144 -3.20151 0 0 0 -1.30514 0 0 0 0 0 0 0 0 -8.31393

$$$$
6yky_lig_1.pdb
 OpenBabel04162415593D

 49 53  0  0  0  0  0  0  0  0999 V2000
    1.3229   -0.2667   -2.5526 C   0  0  0  1  0  0  0  0  0  0  0  0
    2.5473   -1.7771   -3.7892 C   0  0  0  1  0  0  0  0  0  0  0  0
    1.4104   -0.9865   -1.4548 N   0  0  0  1  0  0  0  0  0  0  0  0
    2.1316   -3.1670    0.8890 C   0  0  0  1  0  0  0  0  0  0  0  0
    1.9990   -2.0060    1.6270 C   0  0  0  1  0  0  0  0  0  0  0  0
    2.0440   -4.4611    2.9052 C   0  0  0  1  0  0  0  0  0  0  0  0
    2.1569   -4.3963    1.5292 C   0  0  0  1  0  0  0  0  0  0  0  0
    1.9109   -3.2967    3.6455 C   0  0  0  1  0  0  0  0  0  0  0  0
    1.8858   -2.0712    3.0070 C   0  0  0  1  0  0  0  0  0  0  0  0
   -0.0176    1.4081   -1.3295 C   0  0  0  1  0  0  0  0  0  0  0  0
   -1.0404    0.3880   -0.7817 C   0  0  0  1  0  0  0  0  0  0  0  0
   -2.2660    1.1572   -0.3573 C   0  0  0  1  0  0  0  0  0  0  0  0
   -2.9410    3.5478   -1.0201 C   0  0  0  1  0  0  0  0  0  0  0  0
    1.8737   -0.6452   -3.6927 N   0  0  0  1  0  0  0  0  0  0  0  0
    2.6718   -2.5823   -2.6514 C   0  0  0  1  0  0  0  0  0  0  0  0
    2.0681   -2.1394   -1.4566 C   0  0  0  1  0  0  0  0  0  0  0  0
    2.3382   -3.0977   -0.5191 N   0  0  0  1  0  0  0  0  0  0  0  0
    3.2703   -3.7658   -2.3943 N   0  0  0  1  0  0  0  0  0  0  0  0
    3.0928   -4.0909   -1.1613 N   0  0  0  1  0  0  0  0  0  0  0  0
    1.8143   -3.4843    4.9831 O   0  0  0  1  0  0  0  0  0  0  0  0
    0.6487    0.8967   -2.5146 N   0  0  0  1  0  0  0  0  0  0  0  0
    1.5929   -2.3203    5.7947 C   0  0  0  1  0  0  0  0  0  0  0  0
   -2.0230    2.5153   -1.0512 N   0  0  0  1  0  0  0  0  0  0  0  0
   -0.8865    2.6044   -1.6645 C   0  0  0  1  0  0  0  0  0  0  0  0
   -2.8405    4.5520   -0.0750 C   0  0  0  1  0  0  0  0  0  0  0  0
   -3.7775    5.5676   -0.0822 C   0  0  0  1  0  0  0  0  0  0  0  0
   -4.7854    5.6314   -0.9575 N   0  0  0  1  0  0  0  0  0  0  0  0
   -4.8734    4.6489   -1.8654 C   0  0  0  1  0  0  0  0  0  0  0  0
   -3.9769    3.5967   -1.9324 C   0  0  0  1  0  0  0  0  0  0  0  0
    2.9762   -2.0641   -4.6921 H   0  0  0  1  0  0  0  0  0  0  0  0
    1.9841   -1.0835    1.1469 H   0  0  0  1  0  0  0  0  0  0  0  0
    2.0589   -5.3836    3.3852 H   0  0  0  1  0  0  0  0  0  0  0  0
    2.2607   -5.2696    0.9742 H   0  0  0  1  0  0  0  0  0  0  0  0
    1.7819   -1.1978    3.5619 H   0  0  0  1  0  0  0  0  0  0  0  0
    0.7130    1.6575   -0.5886 H   0  0  0  1  0  0  0  0  0  0  0  0
   -0.6256   -0.1299    0.0577 H   0  0  0  1  0  0  0  0  0  0  0  0
   -1.2976   -0.3166   -1.5447 H   0  0  0  1  0  0  0  0  0  0  0  0
   -3.1625    0.6916   -0.7100 H   0  0  0  1  0  0  0  0  0  0  0  0
   -2.3133    1.2634    0.7064 H   0  0  0  1  0  0  0  0  0  0  0  0
    0.6043    1.4308   -3.3351 H   0  0  0  1  0  0  0  0  0  0  0  0
    1.4776   -2.6143    6.8170 H   0  0  0  1  0  0  0  0  0  0  0  0
    0.7063   -1.8198    5.4656 H   0  0  0  1  0  0  0  0  0  0  0  0
    2.4299   -1.6596    5.7060 H   0  0  0  1  0  0  0  0  0  0  0  0
   -1.0559    2.6338   -2.7206 H   0  0  0  1  0  0  0  0  0  0  0  0
   -0.3884    3.5003   -1.3577 H   0  0  0  1  0  0  0  0  0  0  0  0
   -2.0741    4.5432    0.6279 H   0  0  0  1  0  0  0  0  0  0  0  0
   -3.6941    6.3209    0.6300 H   0  0  0  1  0  0  0  0  0  0  0  0
   -5.6532    4.6789   -2.5528 H   0  0  0  1  0  0  0  0  0  0  0  0
   -4.0812    2.8570   -2.6559 H   0  0  0  1  0  0  0  0  0  0  0  0
  1  3  4  0  0  0  0
  1 14  4  0  0  0  0
  1 21  1  0  0  0  0
  2 14  4  0  0  0  0
  2 15  4  0  0  0  0
  2 30  1  0  0  0  0
  3 16  4  0  0  0  0
  4  5  4  0  0  0  0
  4  7  4  0  0  0  0
  4 17  1  0  0  0  0
  5  9  4  0  0  0  0
  5 31  1  0  0  0  0
  6  7  4  0  0  0  0
  6  8  4  0  0  0  0
  6 32  1  0  0  0  0
  7 33  1  0  0  0  0
  8  9  4  0  0  0  0
  8 20  1  0  0  0  0
  9 34  1  0  0  0  0
 10 11  1  0  0  0  0
 10 21  1  0  0  0  0
 10 24  1  0  0  0  0
 10 35  1  0  0  0  0
 11 12  1  0  0  0  0
 11 36  1  0  0  0  0
 11 37  1  0  0  0  0
 12 23  1  0  0  0  0
 12 38  1  0  0  0  0
 12 39  1  0  0  0  0
 13 23  1  0  0  0  0
 13 25  4  0  0  0  0
 13 29  4  0  0  0  0
 15 16  4  0  0  0  0
 15 18  4  0  0  0  0
 16 17  4  0  0  0  0
 17 19  4  0  0  0  0
 18 19  4  0  0  0  0
 20 22  1  0  0  0  0
 21 40  1  0  0  0  0
 22 41  1  0  0  0  0
 22 42  1  0  0  0  0
 22 43  1  0  0  0  0
 23 24  1  0  0  0  0
 24 44  1  0  0  0  0
 24 45  1  0  0  0  0
 25 26  4  0  0  0  0
 25 46  1  0  0  0  0
 26 27  4  0  0  0  0
 26 47  1  0  0  0  0
 27 28  4  0  0  0  0
 28 29  4  0  0  0  0
 28 48  1  0  0  0  0
 29 49  1  0  0  0  0
M  END
> <ConfClashScore>
0 

> <ConfOneFourInteractionScore>
-0.987833 

> <ConfScore>
-0.0247287 

> <ConfScorePBest>
0.00460617 

> <ConfTolerance>
0.419689 

> <HETNAM>
     OWQ A 303  OWQ                                                       

> <pdb_OW>
Q_303 -16.5129 3.80749 7.62812 0.15963 1.39178 -0.28144 -3.20151 0 0 0 -1.30514 0 0 0 0 0 0 0 0 -8.31393

$$$$
6yky_lig_1.pdb
 OpenBabel04162415593D

 49 53  0  0  0  0  0  0  0  0999 V2000
    1.3345   -0.7129   -2.5119 C   0  0  0  1  0  0  0  0  0  0  0  0
    3.1104   -1.8083   -3.4895 C   0  0  0  1  0  0  0  0  0  0  0  0
    1.8151   -0.8687   -1.2971 N   0  0  0  1  0  0  0  0  0  0  0  0
    3.4394   -1.6814    1.3806 C   0  0  0  1  0  0  0  0  0  0  0  0
    4.4711   -1.7030    2.2999 C   0  0  0  1  0  0  0  0  0  0  0  0
    1.8459   -1.5681    3.1680 C   0  0  0  1  0  0  0  0  0  0  0  0
    2.1247   -1.6165    1.8152 C   0  0  0  1  0  0  0  0  0  0  0  0
    2.8805   -1.5897    4.0903 C   0  0  0  1  0  0  0  0  0  0  0  0
    4.1913   -1.6544    3.6567 C   0  0  0  1  0  0  0  0  0  0  0  0
   -0.6894    0.4576   -1.6037 C   0  0  0  1  0  0  0  0  0  0  0  0
   -1.7249   -0.5746   -1.1841 C   0  0  0  1  0  0  0  0  0  0  0  0
   -2.8168    0.2731   -0.5561 C   0  0  0  1  0  0  0  0  0  0  0  0
   -3.7990    2.4330   -1.3903 C   0  0  0  1  0  0  0  0  0  0  0  0
    1.9595   -1.1676   -3.5839 N   0  0  0  1  0  0  0  0  0  0  0  0
    3.6677   -2.0022   -2.2204 C   0  0  0  1  0  0  0  0  0  0  0  0
    2.9665   -1.5003   -1.1048 C   0  0  0  1  0  0  0  0  0  0  0  0
    3.7195   -1.8217   -0.0095 N   0  0  0  1  0  0  0  0  0  0  0  0
    4.7931   -2.5946   -1.7649 N   0  0  0  1  0  0  0  0  0  0  0  0
    4.8501   -2.5051   -0.4818 N   0  0  0  1  0  0  0  0  0  0  0  0
    2.6752   -1.5501    5.4283 O   0  0  0  1  0  0  0  0  0  0  0  0
    0.1648   -0.0676   -2.6700 N   0  0  0  1  0  0  0  0  0  0  0  0
    1.3459   -1.2468    5.8795 C   0  0  0  1  0  0  0  0  0  0  0  0
   -2.7784    1.5077   -1.3533 N   0  0  0  1  0  0  0  0  0  0  0  0
   -1.5216    1.6387   -2.1070 C   0  0  0  1  0  0  0  0  0  0  0  0
   -3.9053    3.4045   -0.4122 C   0  0  0  1  0  0  0  0  0  0  0  0
   -4.9418    4.3151   -0.4898 C   0  0  0  1  0  0  0  0  0  0  0  0
   -5.8562    4.3064   -1.4645 N   0  0  0  1  0  0  0  0  0  0  0  0
   -5.7436    3.3564   -2.4036 C   0  0  0  1  0  0  0  0  0  0  0  0
   -4.7356    2.4080   -2.4050 C   0  0  0  1  0  0  0  0  0  0  0  0
    3.5927   -2.1615   -4.3405 H   0  0  0  1  0  0  0  0  0  0  0  0
    5.4573   -1.7557    1.9739 H   0  0  0  1  0  0  0  0  0  0  0  0
    0.8597   -1.5154    3.4940 H   0  0  0  1  0  0  0  0  0  0  0  0
    1.3483   -1.6043    1.1233 H   0  0  0  1  0  0  0  0  0  0  0  0
    4.9678   -1.6666    4.3485 H   0  0  0  1  0  0  0  0  0  0  0  0
   -0.0834    0.7476   -0.7709 H   0  0  0  1  0  0  0  0  0  0  0  0
   -2.0957   -1.1134   -2.0309 H   0  0  0  1  0  0  0  0  0  0  0  0
   -1.3161   -1.2627   -0.4740 H   0  0  0  1  0  0  0  0  0  0  0  0
   -2.6035    0.4735    0.4731 H   0  0  0  1  0  0  0  0  0  0  0  0
   -3.7698   -0.2067   -0.6365 H   0  0  0  1  0  0  0  0  0  0  0  0
   -0.1462    0.0638   -3.5900 H   0  0  0  1  0  0  0  0  0  0  0  0
    1.3265   -1.2324    6.9492 H   0  0  0  1  0  0  0  0  0  0  0  0
    0.6687   -1.9935    5.5207 H   0  0  0  1  0  0  0  0  0  0  0  0
    1.0523   -0.2886    5.5047 H   0  0  0  1  0  0  0  0  0  0  0  0
   -1.6960    1.5643   -3.1601 H   0  0  0  1  0  0  0  0  0  0  0  0
   -1.0388    2.5686   -1.8898 H   0  0  0  1  0  0  0  0  0  0  0  0
   -3.2181    3.4491    0.3671 H   0  0  0  1  0  0  0  0  0  0  0  0
   -5.0140    5.0446    0.2480 H   0  0  0  1  0  0  0  0  0  0  0  0
   -6.4480    3.3308   -3.1683 H   0  0  0  1  0  0  0  0  0  0  0  0
   -4.6844    1.6903   -3.1559 H   0  0  0  1  0  0  0  0  0  0  0  0
  1  3  4  0  0  0  0
  1 14  4  0  0  0  0
  1 21  1  0  0  0  0
  2 14  4  0  0  0  0
  2 15  4  0  0  0  0
  2 30  1  0  0  0  0
  3 16  4  0  0  0  0
  4  5  4  0  0  0  0
  4  7  4  0  0  0  0
  4 17  1  0  0  0  0
  5  9  4  0  0  0  0
  5 31  1  0  0  0  0
  6  7  4  0  0  0  0
  6  8  4  0  0  0  0
  6 32  1  0  0  0  0
  7 33  1  0  0  0  0
  8  9  4  0  0  0  0
  8 20  1  0  0  0  0
  9 34  1  0  0  0  0
 10 11  1  0  0  0  0
 10 21  1  0  0  0  0
 10 24  1  0  0  0  0
 10 35  1  0  0  0  0
 11 12  1  0  0  0  0
 11 36  1  0  0  0  0
 11 37  1  0  0  0  0
 12 23  1  0  0  0  0
 12 38  1  0  0  0  0
 12 39  1  0  0  0  0
 13 23  1  0  0  0  0
 13 25  4  0  0  0  0
 13 29  4  0  0  0  0
 15 16  4  0  0  0  0
 15 18  4  0  0  0  0
 16 17  4  0  0  0  0
 17 19  4  0  0  0  0
 18 19  4  0  0  0  0
 20 22  1  0  0  0  0
 21 40  1  0  0  0  0
 22 41  1  0  0  0  0
 22 42  1  0  0  0  0
 22 43  1  0  0  0  0
 23 24  1  0  0  0  0
 24 44  1  0  0  0  0
 24 45  1  0  0  0  0
 25 26  4  0  0  0  0
 25 46  1  0  0  0  0
 26 27  4  0  0  0  0
 26 47  1  0  0  0  0
 27 28  4  0  0  0  0
 28 29  4  0  0  0  0
 28 48  1  0  0  0  0
 29 49  1  0  0  0  0
M  END
> <ConfClashScore>
0 

> <ConfOneFourInteractionScore>
-0.986948 

> <ConfScore>
-0.0245295 

> <ConfScorePBest>
0.00459285 

> <ConfTolerance>
0.455067 

> <HETNAM>
     OWQ A 303  OWQ                                                       

> <pdb_OW>
Q_303 -16.5129 3.80749 7.62812 0.15963 1.39178 -0.28144 -3.20151 0 0 0 -1.30514 0 0 0 0 0 0 0 0 -8.31393

$$$$
6yky_lig_1.pdb
 OpenBabel04162415593D

 49 53  0  0  0  0  0  0  0  0999 V2000
    2.1677   -0.3840    0.8531 C   0  0  0  1  0  0  0  0  0  0  0  0
    4.0917   -1.6520    0.8414 C   0  0  0  1  0  0  0  0  0  0  0  0
    1.6708   -0.9995   -0.1981 N   0  0  0  1  0  0  0  0  0  0  0  0
    1.0338   -2.8867   -2.7741 C   0  0  0  1  0  0  0  0  0  0  0  0
    0.2165   -1.7939   -2.9928 C   0  0  0  1  0  0  0  0  0  0  0  0
   -0.3748   -4.2242   -4.1792 C   0  0  0  1  0  0  0  0  0  0  0  0
    0.7364   -4.1044   -3.3660 C   0  0  0  1  0  0  0  0  0  0  0  0
   -1.1946   -3.1282   -4.3987 C   0  0  0  1  0  0  0  0  0  0  0  0
   -0.8978   -1.9142   -3.8085 C   0  0  0  1  0  0  0  0  0  0  0  0
    1.6264    1.3333    2.5897 C   0  0  0  1  0  0  0  0  0  0  0  0
    0.9249    0.6803    3.7753 C   0  0  0  1  0  0  0  0  0  0  0  0
   -0.5305    1.1499    3.6521 C   0  0  0  1  0  0  0  0  0  0  0  0
   -1.4814    3.2962    2.6988 C   0  0  0  1  0  0  0  0  0  0  0  0
    3.3456   -0.6962    1.3647 N   0  0  0  1  0  0  0  0  0  0  0  0
    3.6114   -2.3400   -0.2786 C   0  0  0  1  0  0  0  0  0  0  0  0
    2.3499   -1.9738   -0.7909 C   0  0  0  1  0  0  0  0  0  0  0  0
    2.1274   -2.7893   -1.8659 N   0  0  0  1  0  0  0  0  0  0  0  0
    4.0915   -3.3414   -1.0479 N   0  0  0  1  0  0  0  0  0  0  0  0
    3.2492   -3.6240   -1.9798 N   0  0  0  1  0  0  0  0  0  0  0  0
   -2.2543   -3.3669   -5.2073 O   0  0  0  1  0  0  0  0  0  0  0  0
    1.3878    0.5780    1.3588 N   0  0  0  1  0  0  0  0  0  0  0  0
   -3.0953   -2.2495   -5.5341 C   0  0  0  1  0  0  0  0  0  0  0  0
   -0.4064    2.4357    2.9424 N   0  0  0  1  0  0  0  0  0  0  0  0
    0.9819    2.7139    2.5168 C   0  0  0  1  0  0  0  0  0  0  0  0
   -1.9245    4.2280    3.6191 C   0  0  0  1  0  0  0  0  0  0  0  0
   -2.9935    5.0370    3.2839 C   0  0  0  1  0  0  0  0  0  0  0  0
   -3.6296    4.9654    2.1106 N   0  0  0  1  0  0  0  0  0  0  0  0
   -3.1923    4.0546    1.2295 C   0  0  0  1  0  0  0  0  0  0  0  0
   -2.1273    3.2074    1.4811 C   0  0  0  1  0  0  0  0  0  0  0  0
    5.0170   -1.8884    1.2531 H   0  0  0  1  0  0  0  0  0  0  0  0
    0.4375   -0.8814   -2.5455 H   0  0  0  1  0  0  0  0  0  0  0  0
   -0.5957   -5.1367   -4.6265 H   0  0  0  1  0  0  0  0  0  0  0  0
    1.3492   -4.9277   -3.1981 H   0  0  0  1  0  0  0  0  0  0  0  0
   -1.5106   -1.0908   -3.9763 H   0  0  0  1  0  0  0  0  0  0  0  0
    2.6794    1.4108    2.7628 H   0  0  0  1  0  0  0  0  0  0  0  0
    1.3536    1.0095    4.6988 H   0  0  0  1  0  0  0  0  0  0  0  0
    0.9867   -0.3861    3.7131 H   0  0  0  1  0  0  0  0  0  0  0  0
   -0.9737    1.2846    4.6166 H   0  0  0  1  0  0  0  0  0  0  0  0
   -1.1124    0.4530    3.0858 H   0  0  0  1  0  0  0  0  0  0  0  0
    0.5765    0.7989    0.8553 H   0  0  0  1  0  0  0  0  0  0  0  0
   -3.5099   -1.8401   -4.6366 H   0  0  0  1  0  0  0  0  0  0  0  0
   -3.8868   -2.5749   -6.1763 H   0  0  0  1  0  0  0  0  0  0  0  0
   -2.5156   -1.5010   -6.0327 H   0  0  0  1  0  0  0  0  0  0  0  0
    1.4610    3.4008    3.1827 H   0  0  0  1  0  0  0  0  0  0  0  0
    1.0111    3.1030    1.5205 H   0  0  0  1  0  0  0  0  0  0  0  0
   -1.4620    4.3184    4.5462 H   0  0  0  1  0  0  0  0  0  0  0  0
   -3.3198    5.7372    3.9801 H   0  0  0  1  0  0  0  0  0  0  0  0
   -3.6769    3.9811    0.3123 H   0  0  0  1  0  0  0  0  0  0  0  0
   -1.8191    2.5170    0.7670 H   0  0  0  1  0  0  0  0  0  0  0  0
  1  3  4  0  0  0  0
  1 14  4  0  0  0  0
  1 21  1  0  0  0  0
  2 14  4  0  0  0  0
  2 15  4  0  0  0  0
  2 30  1  0  0  0  0
  3 16  4  0  0  0  0
  4  5  4  0  0  0  0
  4  7  4  0  0  0  0
  4 17  1  0  0  0  0
  5  9  4  0  0  0  0
  5 31  1  0  0  0  0
  6  7  4  0  0  0  0
  6  8  4  0  0  0  0
  6 32  1  0  0  0  0
  7 33  1  0  0  0  0
  8  9  4  0  0  0  0
  8 20  1  0  0  0  0
  9 34  1  0  0  0  0
 10 11  1  0  0  0  0
 10 21  1  0  0  0  0
 10 24  1  0  0  0  0
 10 35  1  0  0  0  0
 11 12  1  0  0  0  0
 11 36  1  0  0  0  0
 11 37  1  0  0  0  0
 12 23  1  0  0  0  0
 12 38  1  0  0  0  0
 12 39  1  0  0  0  0
 13 23  1  0  0  0  0
 13 25  4  0  0  0  0
 13 29  4  0  0  0  0
 15 16  4  0  0  0  0
 15 18  4  0  0  0  0
 16 17  4  0  0  0  0
 17 19  4  0  0  0  0
 18 19  4  0  0  0  0
 20 22  1  0  0  0  0
 21 40  1  0  0  0  0
 22 41  1  0  0  0  0
 22 42  1  0  0  0  0
 22 43  1  0  0  0  0
 23 24  1  0  0  0  0
 24 44  1  0  0  0  0
 24 45  1  0  0  0  0
 25 26  4  0  0  0  0
 25 46  1  0  0  0  0
 26 27  4  0  0  0  0
 26 47  1  0  0  0  0
 27 28  4  0  0  0  0
 28 29  4  0  0  0  0
 28 48  1  0  0  0  0
 29 49  1  0  0  0  0
M  END
> <ConfClashScore>
0 

> <ConfOneFourInteractionScore>
-0.986948 

> <ConfScore>
-0.0243054 

> <ConfScorePBest>
0.00457952 

> <ConfTolerance>
0.728291 

> <HETNAM>
     OWQ A 303  OWQ                                                       

> <pdb_OW>
Q_303 -16.5129 3.80749 7.62812 0.15963 1.39178 -0.28144 -3.20151 0 0 0 -1.30514 0 0 0 0 0 0 0 0 -8.31393

$$$$
6yky_lig_1.pdb
 OpenBabel04162415593D

 49 53  0  0  0  0  0  0  0  0999 V2000
   -0.5387   -2.2581   -1.2987 C   0  0  0  1  0  0  0  0  0  0  0  0
   -0.0921   -2.7377   -3.5078 C   0  0  0  1  0  0  0  0  0  0  0  0
    0.5163   -1.4811   -1.1802 N   0  0  0  1  0  0  0  0  0  0  0  0
    3.2325    0.2755   -1.5545 C   0  0  0  1  0  0  0  0  0  0  0  0
    3.5049    1.5800   -1.9207 C   0  0  0  1  0  0  0  0  0  0  0  0
    4.5890    0.5399    0.4045 C   0  0  0  1  0  0  0  0  0  0  0  0
    3.7775   -0.2463   -0.3916 C   0  0  0  1  0  0  0  0  0  0  0  0
    4.8622    1.8483    0.0373 C   0  0  0  1  0  0  0  0  0  0  0  0
    4.3188    2.3684   -1.1223 C   0  0  0  1  0  0  0  0  0  0  0  0
   -1.1253   -1.7952    1.0549 C   0  0  0  1  0  0  0  0  0  0  0  0
   -1.8412   -2.5493    2.1367 C   0  0  0  1  0  0  0  0  0  0  0  0
   -3.2909   -2.0087    1.9890 C   0  0  0  1  0  0  0  0  0  0  0  0
   -4.0681    0.3482    1.5703 C   0  0  0  1  0  0  0  0  0  0  0  0
   -0.8412   -2.8731   -2.4287 N   0  0  0  1  0  0  0  0  0  0  0  0
    1.0432   -1.9221   -3.4379 C   0  0  0  1  0  0  0  0  0  0  0  0
    1.3276   -1.2856   -2.2124 C   0  0  0  1  0  0  0  0  0  0  0  0
    2.4707   -0.5637   -2.4180 N   0  0  0  1  0  0  0  0  0  0  0  0
    2.0053   -1.5675   -4.3174 N   0  0  0  1  0  0  0  0  0  0  0  0
    2.8499   -0.7773   -3.7517 N   0  0  0  1  0  0  0  0  0  0  0  0
    5.6347    2.6987    0.7233 O   0  0  0  1  0  0  0  0  0  0  0  0
   -1.3393   -2.4338   -0.2321 N   0  0  0  1  0  0  0  0  0  0  0  0
    6.0335    3.9971    0.1684 C   0  0  0  1  0  0  0  0  0  0  0  0
   -3.0594   -0.6604    1.5407 N   0  0  0  1  0  0  0  0  0  0  0  0
   -1.7141   -0.4131    1.0563 C   0  0  0  1  0  0  0  0  0  0  0  0
   -5.3497    0.0510    1.9957 C   0  0  0  1  0  0  0  0  0  0  0  0
   -6.2950    1.0589    2.0123 C   0  0  0  1  0  0  0  0  0  0  0  0
   -6.0372    2.3145    1.6338 N   0  0  0  1  0  0  0  0  0  0  0  0
   -4.7917    2.5875    1.2195 C   0  0  0  1  0  0  0  0  0  0  0  0
   -3.7835    1.6405    1.1745 C   0  0  0  1  0  0  0  0  0  0  0  0
   -0.3406   -3.2269   -4.3913 H   0  0  0  1  0  0  0  0  0  0  0  0
    3.0992    1.9701   -2.7953 H   0  0  0  1  0  0  0  0  0  0  0  0
    4.9946    0.1497    1.2790 H   0  0  0  1  0  0  0  0  0  0  0  0
    3.5757   -1.2292   -0.1181 H   0  0  0  1  0  0  0  0  0  0  0  0
    4.5205    3.3513   -1.3957 H   0  0  0  1  0  0  0  0  0  0  0  0
   -0.0765   -1.7528    1.2626 H   0  0  0  1  0  0  0  0  0  0  0  0
   -1.4375   -2.3246    3.1018 H   0  0  0  1  0  0  0  0  0  0  0  0
   -1.7997   -3.6053    1.9693 H   0  0  0  1  0  0  0  0  0  0  0  0
   -3.8438   -2.5701    1.2650 H   0  0  0  1  0  0  0  0  0  0  0  0
   -3.8094   -2.0242    2.9248 H   0  0  0  1  0  0  0  0  0  0  0  0
   -2.1126   -3.0279   -0.3291 H   0  0  0  1  0  0  0  0  0  0  0  0
    5.1600    4.5595   -0.0879 H   0  0  0  1  0  0  0  0  0  0  0  0
    6.6279    3.8428   -0.7078 H   0  0  0  1  0  0  0  0  0  0  0  0
    6.6034    4.5359    0.8963 H   0  0  0  1  0  0  0  0  0  0  0  0
   -1.7262    0.0055    0.0716 H   0  0  0  1  0  0  0  0  0  0  0  0
   -1.1773    0.2377    1.7144 H   0  0  0  1  0  0  0  0  0  0  0  0
   -5.5976   -0.9128    2.2975 H   0  0  0  1  0  0  0  0  0  0  0  0
   -7.2561    0.8286    2.3358 H   0  0  0  1  0  0  0  0  0  0  0  0
   -4.5726    3.5582    0.9172 H   0  0  0  1  0  0  0  0  0  0  0  0
   -2.8297    1.8971    0.8489 H   0  0  0  1  0  0  0  0  0  0  0  0
  1  3  4  0  0  0  0
  1 14  4  0  0  0  0
  1 21  1  0  0  0  0
  2 14  4  0  0  0  0
  2 15  4  0  0  0  0
  2 30  1  0  0  0  0
  3 16  4  0  0  0  0
  4  5  4  0  0  0  0
  4  7  4  0  0  0  0
  4 17  1  0  0  0  0
  5  9  4  0  0  0  0
  5 31  1  0  0  0  0
  6  7  4  0  0  0  0
  6  8  4  0  0  0  0
  6 32  1  0  0  0  0
  7 33  1  0  0  0  0
  8  9  4  0  0  0  0
  8 20  1  0  0  0  0
  9 34  1  0  0  0  0
 10 11  1  0  0  0  0
 10 21  1  0  0  0  0
 10 24  1  0  0  0  0
 10 35  1  0  0  0  0
 11 12  1  0  0  0  0
 11 36  1  0  0  0  0
 11 37  1  0  0  0  0
 12 23  1  0  0  0  0
 12 38  1  0  0  0  0
 12 39  1  0  0  0  0
 13 23  1  0  0  0  0
 13 25  4  0  0  0  0
 13 29  4  0  0  0  0
 15 16  4  0  0  0  0
 15 18  4  0  0  0  0
 16 17  4  0  0  0  0
 17 19  4  0  0  0  0
 18 19  4  0  0  0  0
 20 22  1  0  0  0  0
 21 40  1  0  0  0  0
 22 41  1  0  0  0  0
 22 42  1  0  0  0  0
 22 43  1  0  0  0  0
 23 24  1  0  0  0  0
 24 44  1  0  0  0  0
 24 45  1  0  0  0  0
 25 26  4  0  0  0  0
 25 46  1  0  0  0  0
 26 27  4  0  0  0  0
 26 47  1  0  0  0  0
 27 28  4  0  0  0  0
 28 29  4  0  0  0  0
 28 48  1  0  0  0  0
 29 49  1  0  0  0  0
M  END
> <ConfClashScore>
0 

> <ConfOneFourInteractionScore>
-0.984874 

> <ConfScore>
-0.0227727 

> <ConfScorePBest>
0.00456619 

> <ConfTolerance>
0.62159 

> <HETNAM>
     OWQ A 303  OWQ                                                       

> <pdb_OW>
Q_303 -16.5129 3.80749 7.62812 0.15963 1.39178 -0.28144 -3.20151 0 0 0 -1.30514 0 0 0 0 0 0 0 0 -8.31393

$$$$
6yky_lig_1.pdb
 OpenBabel04162415593D

 49 53  0  0  0  0  0  0  0  0999 V2000
    1.1515   -0.0011    1.0362 C   0  0  0  1  0  0  0  0  0  0  0  0
    3.2670    0.2941    1.9005 C   0  0  0  1  0  0  0  0  0  0  0  0
    1.6034   -0.5464   -0.0726 N   0  0  0  1  0  0  0  0  0  0  0  0
    3.3922   -1.7979   -2.5343 C   0  0  0  1  0  0  0  0  0  0  0  0
    2.1504   -2.3558   -2.7725 C   0  0  0  1  0  0  0  0  0  0  0  0
    4.1360   -2.5257   -4.6940 C   0  0  0  1  0  0  0  0  0  0  0  0
    4.3874   -1.8852   -3.4953 C   0  0  0  1  0  0  0  0  0  0  0  0
    2.8905   -3.0853   -4.9331 C   0  0  0  1  0  0  0  0  0  0  0  0
    1.8984   -2.9982   -3.9747 C   0  0  0  1  0  0  0  0  0  0  0  0
   -0.7927    0.7213    2.3764 C   0  0  0  1  0  0  0  0  0  0  0  0
   -1.7778   -0.2715    3.0327 C   0  0  0  1  0  0  0  0  0  0  0  0
   -2.9908    0.5123    3.4664 C   0  0  0  1  0  0  0  0  0  0  0  0
   -3.7463    2.8792    2.6918 C   0  0  0  1  0  0  0  0  0  0  0  0
    1.9553    0.4105    2.0011 N   0  0  0  1  0  0  0  0  0  0  0  0
    3.8024   -0.2793    0.7416 C   0  0  0  1  0  0  0  0  0  0  0  0
    2.9077   -0.7042   -0.2620 C   0  0  0  1  0  0  0  0  0  0  0  0
    3.6818   -1.2168   -1.2660 N   0  0  0  1  0  0  0  0  0  0  0  0
    5.0556   -0.5462    0.3135 N   0  0  0  1  0  0  0  0  0  0  0  0
    5.0164   -1.0920   -0.8519 N   0  0  0  1  0  0  0  0  0  0  0  0
    2.7635   -3.6901   -6.1381 O   0  0  0  1  0  0  0  0  0  0  0  0
   -0.1764    0.1434    1.1947 N   0  0  0  1  0  0  0  0  0  0  0  0
    1.4603   -4.1779   -6.4934 C   0  0  0  1  0  0  0  0  0  0  0  0
   -2.7951    1.8272    2.6804 N   0  0  0  1  0  0  0  0  0  0  0  0
   -1.6892    1.8877    2.0102 C   0  0  0  1  0  0  0  0  0  0  0  0
   -3.5620    3.9208    3.5821 C   0  0  0  1  0  0  0  0  0  0  0  0
   -4.5291    4.9045    3.6635 C   0  0  0  1  0  0  0  0  0  0  0  0
   -5.6431    4.9028    2.9251 N   0  0  0  1  0  0  0  0  0  0  0  0
   -5.8108    3.8847    2.0692 C   0  0  0  1  0  0  0  0  0  0  0  0
   -4.8922    2.8603    1.9208 C   0  0  0  1  0  0  0  0  0  0  0  0
    3.8892    0.6218    2.6667 H   0  0  0  1  0  0  0  0  0  0  0  0
    1.4051   -2.2938   -2.0498 H   0  0  0  1  0  0  0  0  0  0  0  0
    4.8813   -2.5877   -5.4167 H   0  0  0  1  0  0  0  0  0  0  0  0
    5.3230   -1.4688   -3.3144 H   0  0  0  1  0  0  0  0  0  0  0  0
    0.9627   -3.4145   -4.1556 H   0  0  0  1  0  0  0  0  0  0  0  0
   -0.0313    1.0216    3.0656 H   0  0  0  1  0  0  0  0  0  0  0  0
   -1.3190   -0.7336    3.8817 H   0  0  0  1  0  0  0  0  0  0  0  0
   -2.0624   -1.0237    2.3269 H   0  0  0  1  0  0  0  0  0  0  0  0
   -2.9899    0.6832    4.5226 H   0  0  0  1  0  0  0  0  0  0  0  0
   -3.8975    0.0187    3.1851 H   0  0  0  1  0  0  0  0  0  0  0  0
   -0.7628   -0.1591    0.4702 H   0  0  0  1  0  0  0  0  0  0  0  0
    1.4595   -4.4793   -7.5201 H   0  0  0  1  0  0  0  0  0  0  0  0
    0.7378   -3.4020   -6.3491 H   0  0  0  1  0  0  0  0  0  0  0  0
    1.2127   -5.0158   -5.8758 H   0  0  0  1  0  0  0  0  0  0  0  0
   -1.1872    2.8047    2.2381 H   0  0  0  1  0  0  0  0  0  0  0  0
   -1.9076    1.8507    0.9633 H   0  0  0  1  0  0  0  0  0  0  0  0
   -2.7116    3.9631    4.1793 H   0  0  0  1  0  0  0  0  0  0  0  0
   -4.3825    5.6862    4.3337 H   0  0  0  1  0  0  0  0  0  0  0  0
   -6.6733    3.8636    1.4885 H   0  0  0  1  0  0  0  0  0  0  0  0
   -5.0614    2.0910    1.2417 H   0  0  0  1  0  0  0  0  0  0  0  0
  1  3  4  0  0  0  0
  1 14  4  0  0  0  0
  1 21  1  0  0  0  0
  2 14  4  0  0  0  0
  2 15  4  0  0  0  0
  2 30  1  0  0  0  0
  3 16  4  0  0  0  0
  4  5  4  0  0  0  0
  4  7  4  0  0  0  0
  4 17  1  0  0  0  0
  5  9  4  0  0  0  0
  5 31  1  0  0  0  0
  6  7  4  0  0  0  0
  6  8  4  0  0  0  0
  6 32  1  0  0  0  0
  7 33  1  0  0  0  0
  8  9  4  0  0  0  0
  8 20  1  0  0  0  0
  9 34  1  0  0  0  0
 10 11  1  0  0  0  0
 10 21  1  0  0  0  0
 10 24  1  0  0  0  0
 10 35  1  0  0  0  0
 11 12  1  0  0  0  0
 11 36  1  0  0  0  0
 11 37  1  0  0  0  0
 12 23  1  0  0  0  0
 12 38  1  0  0  0  0
 12 39  1  0  0  0  0
 13 23  1  0  0  0  0
 13 25  4  0  0  0  0
 13 29  4  0  0  0  0
 15 16  4  0  0  0  0
 15 18  4  0  0  0  0
 16 17  4  0  0  0  0
 17 19  4  0  0  0  0
 18 19  4  0  0  0  0
 20 22  1  0  0  0  0
 21 40  1  0  0  0  0
 22 41  1  0  0  0  0
 22 42  1  0  0  0  0
 22 43  1  0  0  0  0
 23 24  1  0  0  0  0
 24 44  1  0  0  0  0
 24 45  1  0  0  0  0
 25 26  4  0  0  0  0
 25 46  1  0  0  0  0
 26 27  4  0  0  0  0
 26 47  1  0  0  0  0
 27 28  4  0  0  0  0
 28 29  4  0  0  0  0
 28 48  1  0  0  0  0
 29 49  1  0  0  0  0
M  END
> <ConfClashScore>
0 

> <ConfOneFourInteractionScore>
-0.986948 

> <ConfScore>
-0.0211729 

> <ConfScorePBest>
0.00455286 

> <ConfTolerance>
0.499495 

> <HETNAM>
     OWQ A 303  OWQ                                                       

> <pdb_OW>
Q_303 -16.5129 3.80749 7.62812 0.15963 1.39178 -0.28144 -3.20151 0 0 0 -1.30514 0 0 0 0 0 0 0 0 -8.31393

$$$$
6yky_lig_1.pdb
 OpenBabel04162415593D

 49 53  0  0  0  0  0  0  0  0999 V2000
    0.6664    0.1827    0.7143 C   0  0  0  1  0  0  0  0  0  0  0  0
    2.1103    1.9256    1.1468 C   0  0  0  1  0  0  0  0  0  0  0  0
    1.4568   -0.3392   -0.1988 N   0  0  0  1  0  0  0  0  0  0  0  0
    3.7939   -1.0273   -2.3760 C   0  0  0  1  0  0  0  0  0  0  0  0
    3.9686   -0.5916   -3.6759 C   0  0  0  1  0  0  0  0  0  0  0  0
    3.7558   -3.2993   -3.1402 C   0  0  0  1  0  0  0  0  0  0  0  0
    3.6846   -2.3830   -2.1080 C   0  0  0  1  0  0  0  0  0  0  0  0
    3.9310   -2.8625   -4.4441 C   0  0  0  1  0  0  0  0  0  0  0  0
    4.0399   -1.5107   -4.7111 C   0  0  0  1  0  0  0  0  0  0  0  0
   -1.4104    0.1413    2.0411 C   0  0  0  1  0  0  0  0  0  0  0  0
   -2.4595   -0.9017    2.5162 C   0  0  0  1  0  0  0  0  0  0  0  0
   -3.7035   -0.1237    2.9941 C   0  0  0  1  0  0  0  0  0  0  0  0
   -4.2964    2.3357    2.6525 C   0  0  0  1  0  0  0  0  0  0  0  0
    0.9779    1.2850    1.3735 N   0  0  0  1  0  0  0  0  0  0  0  0
    2.9891    1.4141    0.1852 C   0  0  0  1  0  0  0  0  0  0  0  0
    2.6161    0.2359   -0.4937 C   0  0  0  1  0  0  0  0  0  0  0  0
    3.6362   -0.0387   -1.3621 N   0  0  0  1  0  0  0  0  0  0  0  0
    4.1945    1.7970   -0.2896 N   0  0  0  1  0  0  0  0  0  0  0  0
    4.5959    0.9703   -1.1913 N   0  0  0  1  0  0  0  0  0  0  0  0
    4.0037   -3.7071   -5.5002 O   0  0  0  1  0  0  0  0  0  0  0  0
   -0.5258   -0.4057    1.0199 N   0  0  0  1  0  0  0  0  0  0  0  0
    3.9919   -5.1149   -5.2165 C   0  0  0  1  0  0  0  0  0  0  0  0
   -3.5031    1.2222    2.3863 N   0  0  0  1  0  0  0  0  0  0  0  0
   -2.3537    1.2160    1.4667 C   0  0  0  1  0  0  0  0  0  0  0  0
   -5.4612    2.2119    3.3870 C   0  0  0  1  0  0  0  0  0  0  0  0
   -6.2163    3.3432    3.6313 C   0  0  0  1  0  0  0  0  0  0  0  0
   -5.8814    4.5596    3.1903 N   0  0  0  1  0  0  0  0  0  0  0  0
   -4.7519    4.6643    2.4758 C   0  0  0  1  0  0  0  0  0  0  0  0
   -3.9347    3.5851    2.1878 C   0  0  0  1  0  0  0  0  0  0  0  0
    2.3442    2.7922    1.6721 H   0  0  0  1  0  0  0  0  0  0  0  0
    4.0465    0.4257   -3.8774 H   0  0  0  1  0  0  0  0  0  0  0  0
    3.6779   -4.3166   -2.9388 H   0  0  0  1  0  0  0  0  0  0  0  0
    3.5492   -2.7105   -1.1302 H   0  0  0  1  0  0  0  0  0  0  0  0
    4.1754   -1.1831   -5.6889 H   0  0  0  1  0  0  0  0  0  0  0  0
   -0.8266    0.5179    2.8549 H   0  0  0  1  0  0  0  0  0  0  0  0
   -2.0594   -1.4812    3.3218 H   0  0  0  1  0  0  0  0  0  0  0  0
   -2.7229   -1.5497    1.7065 H   0  0  0  1  0  0  0  0  0  0  0  0
   -3.7340   -0.0638    4.0620 H   0  0  0  1  0  0  0  0  0  0  0  0
   -4.6035   -0.5783    2.6360 H   0  0  0  1  0  0  0  0  0  0  0  0
   -0.7944   -1.2172    0.5405 H   0  0  0  1  0  0  0  0  0  0  0  0
    4.8381   -5.3643   -4.6111 H   0  0  0  1  0  0  0  0  0  0  0  0
    4.0358   -5.6637   -6.1340 H   0  0  0  1  0  0  0  0  0  0  0  0
    3.0929   -5.3654   -4.6931 H   0  0  0  1  0  0  0  0  0  0  0  0
   -2.6631    0.9575    0.4755 H   0  0  0  1  0  0  0  0  0  0  0  0
   -1.8743    2.1725    1.4532 H   0  0  0  1  0  0  0  0  0  0  0  0
   -5.7633    1.2849    3.7489 H   0  0  0  1  0  0  0  0  0  0  0  0
   -7.0899    3.2429    4.1866 H   0  0  0  1  0  0  0  0  0  0  0  0
   -4.4764    5.6021    2.1206 H   0  0  0  1  0  0  0  0  0  0  0  0
   -3.0649    3.7125    1.6321 H   0  0  0  1  0  0  0  0  0  0  0  0
  1  3  4  0  0  0  0
  1 14  4  0  0  0  0
  1 21  1  0  0  0  0
  2 14  4  0  0  0  0
  2 15  4  0  0  0  0
  2 30  1  0  0  0  0
  3 16  4  0  0  0  0
  4  5  4  0  0  0  0
  4  7  4  0  0  0  0
  4 17  1  0  0  0  0
  5  9  4  0  0  0  0
  5 31  1  0  0  0  0
  6  7  4  0  0  0  0
  6  8  4  0  0  0  0
  6 32  1  0  0  0  0
  7 33  1  0  0  0  0
  8  9  4  0  0  0  0
  8 20  1  0  0  0  0
  9 34  1  0  0  0  0
 10 11  1  0  0  0  0
 10 21  1  0  0  0  0
 10 24  1  0  0  0  0
 10 35  1  0  0  0  0
 11 12  1  0  0  0  0
 11 36  1  0  0  0  0
 11 37  1  0  0  0  0
 12 23  1  0  0  0  0
 12 38  1  0  0  0  0
 12 39  1  0  0  0  0
 13 23  1  0  0  0  0
 13 25  4  0  0  0  0
 13 29  4  0  0  0  0
 15 16  4  0  0  0  0
 15 18  4  0  0  0  0
 16 17  4  0  0  0  0
 17 19  4  0  0  0  0
 18 19  4  0  0  0  0
 20 22  1  0  0  0  0
 21 40  1  0  0  0  0
 22 41  1  0  0  0  0
 22 42  1  0  0  0  0
 22 43  1  0  0  0  0
 23 24  1  0  0  0  0
 24 44  1  0  0  0  0
 24 45  1  0  0  0  0
 25 26  4  0  0  0  0
 25 46  1  0  0  0  0
 26 27  4  0  0  0  0
 26 47  1  0  0  0  0
 27 28  4  0  0  0  0
 28 29  4  0  0  0  0
 28 48  1  0  0  0  0
 29 49  1  0  0  0  0
M  END
> <ConfClashScore>
0 

> <ConfOneFourInteractionScore>
-0.984874 

> <ConfScore>
-0.0209873 

> <ConfScorePBest>
0.00453953 

> <ConfTolerance>
0.359035 

> <HETNAM>
     OWQ A 303  OWQ                                                       

> <pdb_OW>
Q_303 -16.5129 3.80749 7.62812 0.15963 1.39178 -0.28144 -3.20151 0 0 0 -1.30514 0 0 0 0 0 0 0 0 -8.31393

$$$$
6yky_lig_1.pdb
 OpenBabel04162415593D

 49 53  0  0  0  0  0  0  0  0999 V2000
    1.2575   -0.0819    1.0886 C   0  0  0  1  0  0  0  0  0  0  0  0
    3.1475    1.1848    1.4531 C   0  0  0  1  0  0  0  0  0  0  0  0
    1.6957   -0.5321   -0.0674 N   0  0  0  1  0  0  0  0  0  0  0  0
    3.2694   -1.1902   -2.8117 C   0  0  0  1  0  0  0  0  0  0  0  0
    2.0947   -0.9333   -3.4930 C   0  0  0  1  0  0  0  0  0  0  0  0
    3.7054   -3.0500   -4.2603 C   0  0  0  1  0  0  0  0  0  0  0  0
    4.0747   -2.2517   -3.1941 C   0  0  0  1  0  0  0  0  0  0  0  0
    2.5272   -2.7924   -4.9437 C   0  0  0  1  0  0  0  0  0  0  0  0
    1.7245   -1.7339   -4.5622 C   0  0  0  1  0  0  0  0  0  0  0  0
   -0.6027    0.0578    2.7471 C   0  0  0  1  0  0  0  0  0  0  0  0
   -1.6171   -0.9638    3.3074 C   0  0  0  1  0  0  0  0  0  0  0  0
   -2.8456   -0.1985    3.7303 C   0  0  0  1  0  0  0  0  0  0  0  0
   -3.5596    2.2069    3.0512 C   0  0  0  1  0  0  0  0  0  0  0  0
    1.9586    0.7541    1.8342 N   0  0  0  1  0  0  0  0  0  0  0  0
    3.6625    0.7376    0.2311 C   0  0  0  1  0  0  0  0  0  0  0  0
    2.8802   -0.1536   -0.5317 C   0  0  0  1  0  0  0  0  0  0  0  0
    3.6068   -0.4254   -1.6578 N   0  0  0  1  0  0  0  0  0  0  0  0
    4.8070    0.9646   -0.4498 N   0  0  0  1  0  0  0  0  0  0  0  0
    4.8026    0.3009   -1.5530 N   0  0  0  1  0  0  0  0  0  0  0  0
    2.2676   -3.6431   -5.9649 O   0  0  0  1  0  0  0  0  0  0  0  0
    0.0642   -0.4613    1.5594 N   0  0  0  1  0  0  0  0  0  0  0  0
    1.2162   -3.2775   -6.8724 C   0  0  0  1  0  0  0  0  0  0  0  0
   -2.6136    1.1552    3.0243 N   0  0  0  1  0  0  0  0  0  0  0  0
   -1.4800    1.2461    2.4057 C   0  0  0  1  0  0  0  0  0  0  0  0
   -3.6617    3.1022    4.0999 C   0  0  0  1  0  0  0  0  0  0  0  0
   -4.6163    4.0991    4.0322 C   0  0  0  1  0  0  0  0  0  0  0  0
   -5.4549    4.2447    3.0018 N   0  0  0  1  0  0  0  0  0  0  0  0
   -5.3477    3.3671    1.9940 C   0  0  0  1  0  0  0  0  0  0  0  0
   -4.4186    2.3414    1.9781 C   0  0  0  1  0  0  0  0  0  0  0  0
    3.6897    1.8427    2.0487 H   0  0  0  1  0  0  0  0  0  0  0  0
    1.4886   -0.1393   -3.2035 H   0  0  0  1  0  0  0  0  0  0  0  0
    4.3115   -3.8440   -4.5498 H   0  0  0  1  0  0  0  0  0  0  0  0
    4.9566   -2.4475   -2.6789 H   0  0  0  1  0  0  0  0  0  0  0  0
    0.8425   -1.5382   -5.0775 H   0  0  0  1  0  0  0  0  0  0  0  0
    0.1294    0.3176    3.4829 H   0  0  0  1  0  0  0  0  0  0  0  0
   -1.8732   -1.6763    2.5512 H   0  0  0  1  0  0  0  0  0  0  0  0
   -1.1960   -1.4724    4.1493 H   0  0  0  1  0  0  0  0  0  0  0  0
   -2.8893   -0.0838    4.7933 H   0  0  0  1  0  0  0  0  0  0  0  0
   -3.7408   -0.6723    3.3851 H   0  0  0  1  0  0  0  0  0  0  0  0
   -0.4082   -1.1569    1.0562 H   0  0  0  1  0  0  0  0  0  0  0  0
    0.9597   -4.1201   -7.4799 H   0  0  0  1  0  0  0  0  0  0  0  0
    1.5481   -2.4751   -7.4977 H   0  0  0  1  0  0  0  0  0  0  0  0
    0.3576   -2.9648   -6.3157 H   0  0  0  1  0  0  0  0  0  0  0  0
   -1.6538    1.2657    1.3501 H   0  0  0  1  0  0  0  0  0  0  0  0
   -0.9861    2.1474    2.7032 H   0  0  0  1  0  0  0  0  0  0  0  0
   -3.0319    3.0268    4.9241 H   0  0  0  1  0  0  0  0  0  0  0  0
   -4.6856    4.7704    4.8234 H   0  0  0  1  0  0  0  0  0  0  0  0
   -5.9941    3.4616    1.1848 H   0  0  0  1  0  0  0  0  0  0  0  0
   -4.3683    1.6845    1.1734 H   0  0  0  1  0  0  0  0  0  0  0  0
  1  3  4  0  0  0  0
  1 14  4  0  0  0  0
  1 21  1  0  0  0  0
  2 14  4  0  0  0  0
  2 15  4  0  0  0  0
  2 30  1  0  0  0  0
  3 16  4  0  0  0  0
  4  5  4  0  0  0  0
  4  7  4  0  0  0  0
  4 17  1  0  0  0  0
  5  9  4  0  0  0  0
  5 31  1  0  0  0  0
  6  7  4  0  0  0  0
  6  8  4  0  0  0  0
  6 32  1  0  0  0  0
  7 33  1  0  0  0  0
  8  9  4  0  0  0  0
  8 20  1  0  0  0  0
  9 34  1  0  0  0  0
 10 11  1  0  0  0  0
 10 21  1  0  0  0  0
 10 24  1  0  0  0  0
 10 35  1  0  0  0  0
 11 12  1  0  0  0  0
 11 36  1  0  0  0  0
 11 37  1  0  0  0  0
 12 23  1  0  0  0  0
 12 38  1  0  0  0  0
 12 39  1  0  0  0  0
 13 23  1  0  0  0  0
 13 25  4  0  0  0  0
 13 29  4  0  0  0  0
 15 16  4  0  0  0  0
 15 18  4  0  0  0  0
 16 17  4  0  0  0  0
 17 19  4  0  0  0  0
 18 19  4  0  0  0  0
 20 22  1  0  0  0  0
 21 40  1  0  0  0  0
 22 41  1  0  0  0  0
 22 42  1  0  0  0  0
 22 43  1  0  0  0  0
 23 24  1  0  0  0  0
 24 44  1  0  0  0  0
 24 45  1  0  0  0  0
 25 26  4  0  0  0  0
 25 46  1  0  0  0  0
 26 27  4  0  0  0  0
 26 47  1  0  0  0  0
 27 28  4  0  0  0  0
 28 29  4  0  0  0  0
 28 48  1  0  0  0  0
 29 49  1  0  0  0  0
M  END
> <ConfClashScore>
0 

> <ConfOneFourInteractionScore>
-0.986948 

> <ConfScore>
-0.0198018 

> <ConfScorePBest>
0.00452621 

> <ConfTolerance>
0.582448 

> <HETNAM>
     OWQ A 303  OWQ                                                       

> <pdb_OW>
Q_303 -16.5129 3.80749 7.62812 0.15963 1.39178 -0.28144 -3.20151 0 0 0 -1.30514 0 0 0 0 0 0 0 0 -8.31393

$$$$
6yky_lig_1.pdb
 OpenBabel04162415593D

 49 53  0  0  0  0  0  0  0  0999 V2000
    1.7734   -0.8494    0.9865 C   0  0  0  1  0  0  0  0  0  0  0  0
    2.4612   -2.9587    1.6088 C   0  0  0  1  0  0  0  0  0  0  0  0
    1.3158   -1.2639   -0.1752 N   0  0  0  1  0  0  0  0  0  0  0  0
    0.4059   -2.9583   -2.8449 C   0  0  0  1  0  0  0  0  0  0  0  0
    0.8593   -3.5252   -4.0210 C   0  0  0  1  0  0  0  0  0  0  0  0
   -1.1572   -1.6295   -4.0852 C   0  0  0  1  0  0  0  0  0  0  0  0
   -0.6020   -2.0072   -2.8772 C   0  0  0  1  0  0  0  0  0  0  0  0
   -0.7026   -2.1980   -5.2650 C   0  0  0  1  0  0  0  0  0  0  0  0
    0.3023   -3.1463   -5.2326 C   0  0  0  1  0  0  0  0  0  0  0  0
    1.8606    1.1069    2.4980 C   0  0  0  1  0  0  0  0  0  0  0  0
    1.1521    0.3551    3.5864 C   0  0  0  1  0  0  0  0  0  0  0  0
   -0.2952    0.9071    3.4577 C   0  0  0  1  0  0  0  0  0  0  0  0
   -1.0508    3.2623    3.0546 C   0  0  0  1  0  0  0  0  0  0  0  0
    2.3322   -1.6686    1.8601 N   0  0  0  1  0  0  0  0  0  0  0  0
    1.9913   -3.4541    0.3872 C   0  0  0  1  0  0  0  0  0  0  0  0
    1.4022   -2.5442   -0.5146 C   0  0  0  1  0  0  0  0  0  0  0  0
    1.0373   -3.2792   -1.6085 N   0  0  0  1  0  0  0  0  0  0  0  0
    1.9598   -4.6774   -0.1852 N   0  0  0  1  0  0  0  0  0  0  0  0
    1.4101   -4.6062   -1.3473 N   0  0  0  1  0  0  0  0  0  0  0  0
   -1.1645   -1.9048   -6.5037 O   0  0  0  1  0  0  0  0  0  0  0  0
    1.6262    0.4737    1.2119 N   0  0  0  1  0  0  0  0  0  0  0  0
   -2.2096   -0.9244   -6.5993 C   0  0  0  1  0  0  0  0  0  0  0  0
   -0.0588    2.2550    3.0104 N   0  0  0  1  0  0  0  0  0  0  0  0
    1.2823    2.4934    2.5104 C   0  0  0  1  0  0  0  0  0  0  0  0
   -0.7254    4.5833    2.8079 C   0  0  0  1  0  0  0  0  0  0  0  0
   -1.7263    5.5348    2.8576 C   0  0  0  1  0  0  0  0  0  0  0  0
   -3.0012    5.2465    3.1362 N   0  0  0  1  0  0  0  0  0  0  0  0
   -3.3018    3.9625    3.3776 C   0  0  0  1  0  0  0  0  0  0  0  0
   -2.3635    2.9456    3.3451 C   0  0  0  1  0  0  0  0  0  0  0  0
    2.9028   -3.5934    2.3043 H   0  0  0  1  0  0  0  0  0  0  0  0
    1.6182   -4.2358   -3.9971 H   0  0  0  1  0  0  0  0  0  0  0  0
   -1.9161   -0.9189   -4.1092 H   0  0  0  1  0  0  0  0  0  0  0  0
   -0.9403   -1.5778   -1.9924 H   0  0  0  1  0  0  0  0  0  0  0  0
    0.6407   -3.5758   -6.1173 H   0  0  0  1  0  0  0  0  0  0  0  0
    2.9121    1.1408    2.6932 H   0  0  0  1  0  0  0  0  0  0  0  0
    1.1836   -0.7007    3.4155 H   0  0  0  1  0  0  0  0  0  0  0  0
    1.5692    0.5741    4.5471 H   0  0  0  1  0  0  0  0  0  0  0  0
   -0.8024    0.8929    4.3997 H   0  0  0  1  0  0  0  0  0  0  0  0
   -0.8610    0.3520    2.7390 H   0  0  0  1  0  0  0  0  0  0  0  0
    1.3446    1.0403    0.4636 H   0  0  0  1  0  0  0  0  0  0  0  0
   -3.0739   -1.2711   -6.0724 H   0  0  0  1  0  0  0  0  0  0  0  0
   -2.4584   -0.7679   -7.6282 H   0  0  0  1  0  0  0  0  0  0  0  0
   -1.8751   -0.0038   -6.1687 H   0  0  0  1  0  0  0  0  0  0  0  0
    1.8320    3.1382    3.1639 H   0  0  0  1  0  0  0  0  0  0  0  0
    1.2616    2.9149    1.5271 H   0  0  0  1  0  0  0  0  0  0  0  0
    0.2542    4.8556    2.5891 H   0  0  0  1  0  0  0  0  0  0  0  0
   -1.4746    6.5260    2.6684 H   0  0  0  1  0  0  0  0  0  0  0  0
   -4.2880    3.7186    3.6000 H   0  0  0  1  0  0  0  0  0  0  0  0
   -2.6415    1.9618    3.5359 H   0  0  0  1  0  0  0  0  0  0  0  0
  1  3  4  0  0  0  0
  1 14  4  0  0  0  0
  1 21  1  0  0  0  0
  2 14  4  0  0  0  0
  2 15  4  0  0  0  0
  2 30  1  0  0  0  0
  3 16  4  0  0  0  0
  4  5  4  0  0  0  0
  4  7  4  0  0  0  0
  4 17  1  0  0  0  0
  5  9  4  0  0  0  0
  5 31  1  0  0  0  0
  6  7  4  0  0  0  0
  6  8  4  0  0  0  0
  6 32  1  0  0  0  0
  7 33  1  0  0  0  0
  8  9  4  0  0  0  0
  8 20  1  0  0  0  0
  9 34  1  0  0  0  0
 10 11  1  0  0  0  0
 10 21  1  0  0  0  0
 10 24  1  0  0  0  0
 10 35  1  0  0  0  0
 11 12  1  0  0  0  0
 11 36  1  0  0  0  0
 11 37  1  0  0  0  0
 12 23  1  0  0  0  0
 12 38  1  0  0  0  0
 12 39  1  0  0  0  0
 13 23  1  0  0  0  0
 13 25  4  0  0  0  0
 13 29  4  0  0  0  0
 15 16  4  0  0  0  0
 15 18  4  0  0  0  0
 16 17  4  0  0  0  0
 17 19  4  0  0  0  0
 18 19  4  0  0  0  0
 20 22  1  0  0  0  0
 21 40  1  0  0  0  0
 22 41  1  0  0  0  0
 22 42  1  0  0  0  0
 22 43  1  0  0  0  0
 23 24  1  0  0  0  0
 24 44  1  0  0  0  0
 24 45  1  0  0  0  0
 25 26  4  0  0  0  0
 25 46  1  0  0  0  0
 26 27  4  0  0  0  0
 26 47  1  0  0  0  0
 27 28  4  0  0  0  0
 28 29  4  0  0  0  0
 28 48  1  0  0  0  0
 29 49  1  0  0  0  0
M  END
> <ConfClashScore>
0 

> <ConfOneFourInteractionScore>
-0.987833 

> <ConfScore>
-0.0196037 

> <ConfScorePBest>
0.00451288 

> <ConfTolerance>
0.554298 

> <HETNAM>
     OWQ A 303  OWQ                                                       

> <pdb_OW>
Q_303 -16.5129 3.80749 7.62812 0.15963 1.39178 -0.28144 -3.20151 0 0 0 -1.30514 0 0 0 0 0 0 0 0 -8.31393

$$$$
6yky_lig_1.pdb
 OpenBabel04162415593D

 49 53  0  0  0  0  0  0  0  0999 V2000
    0.7407   -2.2250   -2.0258 C   0  0  0  1  0  0  0  0  0  0  0  0
    2.4360   -2.3902   -3.5776 C   0  0  0  1  0  0  0  0  0  0  0  0
    1.4106   -1.3735   -1.2794 N   0  0  0  1  0  0  0  0  0  0  0  0
    3.5101    0.6413    0.0916 C   0  0  0  1  0  0  0  0  0  0  0  0
    2.3866    0.5209    0.8875 C   0  0  0  1  0  0  0  0  0  0  0  0
    4.3538    2.3568    1.5381 C   0  0  0  1  0  0  0  0  0  0  0  0
    4.4939    1.5624    0.4158 C   0  0  0  1  0  0  0  0  0  0  0  0
    3.2271    2.2362    2.3365 C   0  0  0  1  0  0  0  0  0  0  0  0
    2.2462    1.3177    2.0130 C   0  0  0  1  0  0  0  0  0  0  0  0
   -1.1565   -2.0905   -0.4508 C   0  0  0  1  0  0  0  0  0  0  0  0
   -2.1792   -3.1106    0.0969 C   0  0  0  1  0  0  0  0  0  0  0  0
   -3.4048   -2.3415    0.5215 C   0  0  0  1  0  0  0  0  0  0  0  0
   -4.1014    0.0735   -0.1403 C   0  0  0  1  0  0  0  0  0  0  0  0
    1.2335   -2.7241   -3.1459 N   0  0  0  1  0  0  0  0  0  0  0  0
    3.1929   -1.4874   -2.8222 C   0  0  0  1  0  0  0  0  0  0  0  0
    2.6277   -0.9801   -1.6342 C   0  0  0  1  0  0  0  0  0  0  0  0
    3.5623   -0.1359   -1.1016 N   0  0  0  1  0  0  0  0  0  0  0  0
    4.4210   -0.9412   -2.9579 N   0  0  0  1  0  0  0  0  0  0  0  0
    4.6632   -0.1504   -1.9712 N   0  0  0  1  0  0  0  0  0  0  0  0
    2.9781    2.9606    3.4532 O   0  0  0  1  0  0  0  0  0  0  0  0
   -0.4903   -2.6020   -1.6360 N   0  0  0  1  0  0  0  0  0  0  0  0
    3.8449    4.0743    3.7197 C   0  0  0  1  0  0  0  0  0  0  0  0
   -3.1618   -0.9833   -0.1724 N   0  0  0  1  0  0  0  0  0  0  0  0
   -2.0253   -0.8942   -0.7857 C   0  0  0  1  0  0  0  0  0  0  0  0
   -5.3671   -0.1241    0.3799 C   0  0  0  1  0  0  0  0  0  0  0  0
   -6.2525    0.9368    0.3954 C   0  0  0  1  0  0  0  0  0  0  0  0
   -5.9511    2.1523   -0.0715 N   0  0  0  1  0  0  0  0  0  0  0  0
   -4.7220    2.3286   -0.5770 C   0  0  0  1  0  0  0  0  0  0  0  0
   -3.7724    1.3231   -0.6282 C   0  0  0  1  0  0  0  0  0  0  0  0
    2.8128   -2.7899   -4.4607 H   0  0  0  1  0  0  0  0  0  0  0  0
    1.6466   -0.1674    0.6420 H   0  0  0  1  0  0  0  0  0  0  0  0
    5.0938    3.0451    1.7836 H   0  0  0  1  0  0  0  0  0  0  0  0
    5.3374    1.6557   -0.1855 H   0  0  0  1  0  0  0  0  0  0  0  0
    1.4027    1.2244    2.6142 H   0  0  0  1  0  0  0  0  0  0  0  0
   -0.4258   -1.8412    0.2900 H   0  0  0  1  0  0  0  0  0  0  0  0
   -1.7645   -3.6287    0.9363 H   0  0  0  1  0  0  0  0  0  0  0  0
   -2.4366   -3.8152   -0.6661 H   0  0  0  1  0  0  0  0  0  0  0  0
   -4.3014   -2.8070    0.1688 H   0  0  0  1  0  0  0  0  0  0  0  0
   -3.4520   -2.2354    1.5851 H   0  0  0  1  0  0  0  0  0  0  0  0
   -0.9659   -3.2606   -2.1841 H   0  0  0  1  0  0  0  0  0  0  0  0
    3.9692    4.6517    2.8275 H   0  0  0  1  0  0  0  0  0  0  0  0
    4.7978    3.7139    4.0468 H   0  0  0  1  0  0  0  0  0  0  0  0
    3.4134    4.6869    4.4835 H   0  0  0  1  0  0  0  0  0  0  0  0
   -2.1948   -0.8648   -1.8418 H   0  0  0  1  0  0  0  0  0  0  0  0
   -1.5272    0.0016   -0.4788 H   0  0  0  1  0  0  0  0  0  0  0  0
   -5.6475   -1.0537    0.7526 H   0  0  0  1  0  0  0  0  0  0  0  0
   -7.2018    0.7814    0.7905 H   0  0  0  1  0  0  0  0  0  0  0  0
   -4.4699    3.2666   -0.9487 H   0  0  0  1  0  0  0  0  0  0  0  0
   -2.8291    1.5050   -1.0265 H   0  0  0  1  0  0  0  0  0  0  0  0
  1  3  4  0  0  0  0
  1 14  4  0  0  0  0
  1 21  1  0  0  0  0
  2 14  4  0  0  0  0
  2 15  4  0  0  0  0
  2 30  1  0  0  0  0
  3 16  4  0  0  0  0
  4  5  4  0  0  0  0
  4  7  4  0  0  0  0
  4 17  1  0  0  0  0
  5  9  4  0  0  0  0
  5 31  1  0  0  0  0
  6  7  4  0  0  0  0
  6  8  4  0  0  0  0
  6 32  1  0  0  0  0
  7 33  1  0  0  0  0
  8  9  4  0  0  0  0
  8 20  1  0  0  0  0
  9 34  1  0  0  0  0
 10 11  1  0  0  0  0
 10 21  1  0  0  0  0
 10 24  1  0  0  0  0
 10 35  1  0  0  0  0
 11 12  1  0  0  0  0
 11 36  1  0  0  0  0
 11 37  1  0  0  0  0
 12 23  1  0  0  0  0
 12 38  1  0  0  0  0
 12 39  1  0  0  0  0
 13 23  1  0  0  0  0
 13 25  4  0  0  0  0
 13 29  4  0  0  0  0
 15 16  4  0  0  0  0
 15 18  4  0  0  0  0
 16 17  4  0  0  0  0
 17 19  4  0  0  0  0
 18 19  4  0  0  0  0
 20 22  1  0  0  0  0
 21 40  1  0  0  0  0
 22 41  1  0  0  0  0
 22 42  1  0  0  0  0
 22 43  1  0  0  0  0
 23 24  1  0  0  0  0
 24 44  1  0  0  0  0
 24 45  1  0  0  0  0
 25 26  4  0  0  0  0
 25 46  1  0  0  0  0
 26 27  4  0  0  0  0
 26 47  1  0  0  0  0
 27 28  4  0  0  0  0
 28 29  4  0  0  0  0
 28 48  1  0  0  0  0
 29 49  1  0  0  0  0
M  END
> <ConfClashScore>
0 

> <ConfOneFourInteractionScore>
-0.984874 

> <ConfScore>
-0.0183275 

> <ConfScorePBest>
0.00449955 

> <ConfTolerance>
0.451086 

> <HETNAM>
     OWQ A 303  OWQ                                                       

> <pdb_OW>
Q_303 -16.5129 3.80749 7.62812 0.15963 1.39178 -0.28144 -3.20151 0 0 0 -1.30514 0 0 0 0 0 0 0 0 -8.31393

$$$$
6yky_lig_1.pdb
 OpenBabel04162415593D

 49 53  0  0  0  0  0  0  0  0999 V2000
    0.9912   -1.3144   -2.6430 C   0  0  0  1  0  0  0  0  0  0  0  0
    2.9421   -2.1724   -3.5190 C   0  0  0  1  0  0  0  0  0  0  0  0
    1.4934   -1.2197   -1.4307 N   0  0  0  1  0  0  0  0  0  0  0  0
    3.3089   -1.2468    1.2723 C   0  0  0  1  0  0  0  0  0  0  0  0
    2.0724   -1.4708    1.8476 C   0  0  0  1  0  0  0  0  0  0  0  0
    4.0351   -0.1270    3.2638 C   0  0  0  1  0  0  0  0  0  0  0  0
    4.2909   -0.5716    1.9803 C   0  0  0  1  0  0  0  0  0  0  0  0
    2.7949   -0.3516    3.8409 C   0  0  0  1  0  0  0  0  0  0  0  0
    1.8160   -1.0248    3.1347 C   0  0  0  1  0  0  0  0  0  0  0  0
   -1.1460   -0.3975   -1.8127 C   0  0  0  1  0  0  0  0  0  0  0  0
   -2.2125   -1.4352   -1.3655 C   0  0  0  1  0  0  0  0  0  0  0  0
   -3.4392   -0.6496   -0.8565 C   0  0  0  1  0  0  0  0  0  0  0  0
   -3.9897    1.8343   -1.1155 C   0  0  0  1  0  0  0  0  0  0  0  0
    1.6904   -1.7772   -3.6645 N   0  0  0  1  0  0  0  0  0  0  0  0
    3.5269   -2.0934   -2.2499 C   0  0  0  1  0  0  0  0  0  0  0  0
    2.7439   -1.5935   -1.1892 C   0  0  0  1  0  0  0  0  0  0  0  0
    3.5449   -1.6242   -0.0813 N   0  0  0  1  0  0  0  0  0  0  0  0
    4.7446   -2.4001   -1.7518 N   0  0  0  1  0  0  0  0  0  0  0  0
    4.7843   -2.1375   -0.4920 N   0  0  0  1  0  0  0  0  0  0  0  0
    2.4299    0.0379    5.0778 O   0  0  0  1  0  0  0  0  0  0  0  0
   -0.2798   -0.9264   -2.8519 N   0  0  0  1  0  0  0  0  0  0  0  0
    3.4115    0.8314    5.7844 C   0  0  0  1  0  0  0  0  0  0  0  0
   -3.2162    0.7110   -1.4222 N   0  0  0  1  0  0  0  0  0  0  0  0
   -2.0714    0.7125   -2.3477 C   0  0  0  1  0  0  0  0  0  0  0  0
   -3.6238    2.6825   -0.0867 C   0  0  0  1  0  0  0  0  0  0  0  0
   -4.4150    3.7836    0.1802 C   0  0  0  1  0  0  0  0  0  0  0  0
   -5.5250    4.0744   -0.5051 N   0  0  0  1  0  0  0  0  0  0  0  0
   -5.8703    3.2411   -1.4970 C   0  0  0  1  0  0  0  0  0  0  0  0
   -5.1345    2.1185   -1.8342 C   0  0  0  1  0  0  0  0  0  0  0  0
    3.4821   -2.5348   -4.3306 H   0  0  0  1  0  0  0  0  0  0  0  0
    1.3344   -1.9738    1.3148 H   0  0  0  1  0  0  0  0  0  0  0  0
    4.7732    0.3760    3.7966 H   0  0  0  1  0  0  0  0  0  0  0  0
    5.2200   -0.3996    1.5459 H   0  0  0  1  0  0  0  0  0  0  0  0
    0.8868   -1.1969    3.5692 H   0  0  0  1  0  0  0  0  0  0  0  0
   -0.5514   -0.0581   -0.9905 H   0  0  0  1  0  0  0  0  0  0  0  0
   -2.4919   -2.0520   -2.1940 H   0  0  0  1  0  0  0  0  0  0  0  0
   -1.8197   -2.0475   -0.5808 H   0  0  0  1  0  0  0  0  0  0  0  0
   -4.3494   -1.0755   -1.2241 H   0  0  0  1  0  0  0  0  0  0  0  0
   -3.4636   -0.6232    0.2129 H   0  0  0  1  0  0  0  0  0  0  0  0
   -0.6428   -1.0053   -3.7587 H   0  0  0  1  0  0  0  0  0  0  0  0
    4.2926    0.2468    5.9481 H   0  0  0  1  0  0  0  0  0  0  0  0
    3.0089    1.1405    6.7263 H   0  0  0  1  0  0  0  0  0  0  0  0
    3.6592    1.6938    5.2015 H   0  0  0  1  0  0  0  0  0  0  0  0
   -2.3904    0.4916   -3.3449 H   0  0  0  1  0  0  0  0  0  0  0  0
   -1.5741    1.6597   -2.3333 H   0  0  0  1  0  0  0  0  0  0  0  0
   -2.7693    2.4953    0.4757 H   0  0  0  1  0  0  0  0  0  0  0  0
   -4.1322    4.4185    0.9538 H   0  0  0  1  0  0  0  0  0  0  0  0
   -6.7331    3.4484   -2.0394 H   0  0  0  1  0  0  0  0  0  0  0  0
   -5.4377    1.5007   -2.6139 H   0  0  0  1  0  0  0  0  0  0  0  0
  1  3  4  0  0  0  0
  1 14  4  0  0  0  0
  1 21  1  0  0  0  0
  2 14  4  0  0  0  0
  2 15  4  0  0  0  0
  2 30  1  0  0  0  0
  3 16  4  0  0  0  0
  4  5  4  0  0  0  0
  4  7  4  0  0  0  0
  4 17  1  0  0  0  0
  5  9  4  0  0  0  0
  5 31  1  0  0  0  0
  6  7  4  0  0  0  0
  6  8  4  0  0  0  0
  6 32  1  0  0  0  0
  7 33  1  0  0  0  0
  8  9  4  0  0  0  0
  8 20  1  0  0  0  0
  9 34  1  0  0  0  0
 10 11  1  0  0  0  0
 10 21  1  0  0  0  0
 10 24  1  0  0  0  0
 10 35  1  0  0  0  0
 11 12  1  0  0  0  0
 11 36  1  0  0  0  0
 11 37  1  0  0  0  0
 12 23  1  0  0  0  0
 12 38  1  0  0  0  0
 12 39  1  0  0  0  0
 13 23  1  0  0  0  0
 13 25  4  0  0  0  0
 13 29  4  0  0  0  0
 15 16  4  0  0  0  0
 15 18  4  0  0  0  0
 16 17  4  0  0  0  0
 17 19  4  0  0  0  0
 18 19  4  0  0  0  0
 20 22  1  0  0  0  0
 21 40  1  0  0  0  0
 22 41  1  0  0  0  0
 22 42  1  0  0  0  0
 22 43  1  0  0  0  0
 23 24  1  0  0  0  0
 24 44  1  0  0  0  0
 24 45  1  0  0  0  0
 25 26  4  0  0  0  0
 25 46  1  0  0  0  0
 26 27  4  0  0  0  0
 26 47  1  0  0  0  0
 27 28  4  0  0  0  0
 28 29  4  0  0  0  0
 28 48  1  0  0  0  0
 29 49  1  0  0  0  0
M  END
> <ConfClashScore>
0 

> <ConfOneFourInteractionScore>
-0.986948 

> <ConfScore>
-0.0171202 

> <ConfScorePBest>
0.00448622 

> <ConfTolerance>
0.369653 

> <HETNAM>
     OWQ A 303  OWQ                                                       

> <pdb_OW>
Q_303 -16.5129 3.80749 7.62812 0.15963 1.39178 -0.28144 -3.20151 0 0 0 -1.30514 0 0 0 0 0 0 0 0 -8.31393

$$$$
6yky_lig_1.pdb
 OpenBabel04162415593D

 49 53  0  0  0  0  0  0  0  0999 V2000
    1.7351   -0.0300    0.9275 C   0  0  0  1  0  0  0  0  0  0  0  0
    3.9583    0.2586    0.3950 C   0  0  0  1  0  0  0  0  0  0  0  0
    1.4692   -0.6409   -0.2070 N   0  0  0  1  0  0  0  0  0  0  0  0
    1.5205   -2.0564   -3.1768 C   0  0  0  1  0  0  0  0  0  0  0  0
    0.3246   -2.4403   -2.6000 C   0  0  0  1  0  0  0  0  0  0  0  0
    0.8538   -3.0748   -5.2422 C   0  0  0  1  0  0  0  0  0  0  0  0
    1.7867   -2.3764   -4.4990 C   0  0  0  1  0  0  0  0  0  0  0  0
   -0.3456   -3.4600   -4.6638 C   0  0  0  1  0  0  0  0  0  0  0  0
   -0.6109   -3.1408   -3.3454 C   0  0  0  1  0  0  0  0  0  0  0  0
    0.9206    0.9306    3.0408 C   0  0  0  1  0  0  0  0  0  0  0  0
    0.2030    0.2842    4.2218 C   0  0  0  1  0  0  0  0  0  0  0  0
   -1.2486    0.7260    4.0431 C   0  0  0  1  0  0  0  0  0  0  0  0
   -2.1622    2.9691    3.2835 C   0  0  0  1  0  0  0  0  0  0  0  0
    2.9444    0.4107    1.2274 N   0  0  0  1  0  0  0  0  0  0  0  0
    3.7318   -0.3848   -0.8271 C   0  0  0  1  0  0  0  0  0  0  0  0
    2.4262   -0.8386   -1.1053 C   0  0  0  1  0  0  0  0  0  0  0  0
    2.4835   -1.4191   -2.3421 N   0  0  0  1  0  0  0  0  0  0  0  0
    4.5104   -0.7022   -1.8844 N   0  0  0  1  0  0  0  0  0  0  0  0
    3.8109   -1.3049   -2.7817 N   0  0  0  1  0  0  0  0  0  0  0  0
   -1.2988   -4.0716   -5.4759 O   0  0  0  1  0  0  0  0  0  0  0  0
    0.7271    0.1560    1.8276 N   0  0  0  1  0  0  0  0  0  0  0  0
   -1.0465   -4.0829   -6.8896 C   0  0  0  1  0  0  0  0  0  0  0  0
   -1.1144    2.0524    3.4102 N   0  0  0  1  0  0  0  0  0  0  0  0
    0.2544    2.2940    2.9287 C   0  0  0  1  0  0  0  0  0  0  0  0
   -1.9704    4.2862    2.9090 C   0  0  0  1  0  0  0  0  0  0  0  0
   -3.0711    5.1154    2.8076 C   0  0  0  1  0  0  0  0  0  0  0  0
   -4.3206    4.7119    3.0565 N   0  0  0  1  0  0  0  0  0  0  0  0
   -4.4916    3.4337    3.4229 C   0  0  0  1  0  0  0  0  0  0  0  0
   -3.4468    2.5344    3.5457 C   0  0  0  1  0  0  0  0  0  0  0  0
    4.9054    0.6098    0.6424 H   0  0  0  1  0  0  0  0  0  0  0  0
    0.1267   -2.2036   -1.6068 H   0  0  0  1  0  0  0  0  0  0  0  0
    1.0518   -3.3115   -6.2353 H   0  0  0  1  0  0  0  0  0  0  0  0
    2.6883   -2.0909   -4.9318 H   0  0  0  1  0  0  0  0  0  0  0  0
   -1.5124   -3.4262   -2.9126 H   0  0  0  1  0  0  0  0  0  0  0  0
    1.9677    1.0309    3.2373 H   0  0  0  1  0  0  0  0  0  0  0  0
    0.5989    0.6389    5.1503 H   0  0  0  1  0  0  0  0  0  0  0  0
    0.2856   -0.7819    4.1822 H   0  0  0  1  0  0  0  0  0  0  0  0
   -1.7476    0.7988    4.9869 H   0  0  0  1  0  0  0  0  0  0  0  0
   -1.7816    0.0491    3.4086 H   0  0  0  1  0  0  0  0  0  0  0  0
   -0.1503   -0.2433    1.6511 H   0  0  0  1  0  0  0  0  0  0  0  0
   -1.0791   -3.0819   -7.2663 H   0  0  0  1  0  0  0  0  0  0  0  0
   -1.7923   -4.6728   -7.3801 H   0  0  0  1  0  0  0  0  0  0  0  0
   -0.0799   -4.5024   -7.0758 H   0  0  0  1  0  0  0  0  0  0  0  0
    0.7534    3.0143    3.5427 H   0  0  0  1  0  0  0  0  0  0  0  0
    0.2477    2.6332    1.9139 H   0  0  0  1  0  0  0  0  0  0  0  0
   -1.0156    4.6459    2.7074 H   0  0  0  1  0  0  0  0  0  0  0  0
   -2.9194    6.1042    2.5230 H   0  0  0  1  0  0  0  0  0  0  0  0
   -5.4563    3.1017    3.6247 H   0  0  0  1  0  0  0  0  0  0  0  0
   -3.6255    1.5501    3.8299 H   0  0  0  1  0  0  0  0  0  0  0  0
  1  3  4  0  0  0  0
  1 14  4  0  0  0  0
  1 21  1  0  0  0  0
  2 14  4  0  0  0  0
  2 15  4  0  0  0  0
  2 30  1  0  0  0  0
  3 16  4  0  0  0  0
  4  5  4  0  0  0  0
  4  7  4  0  0  0  0
  4 17  1  0  0  0  0
  5  9  4  0  0  0  0
  5 31  1  0  0  0  0
  6  7  4  0  0  0  0
  6  8  4  0  0  0  0
  6 32  1  0  0  0  0
  7 33  1  0  0  0  0
  8  9  4  0  0  0  0
  8 20  1  0  0  0  0
  9 34  1  0  0  0  0
 10 11  1  0  0  0  0
 10 21  1  0  0  0  0
 10 24  1  0  0  0  0
 10 35  1  0  0  0  0
 11 12  1  0  0  0  0
 11 36  1  0  0  0  0
 11 37  1  0  0  0  0
 12 23  1  0  0  0  0
 12 38  1  0  0  0  0
 12 39  1  0  0  0  0
 13 23  1  0  0  0  0
 13 25  4  0  0  0  0
 13 29  4  0  0  0  0
 15 16  4  0  0  0  0
 15 18  4  0  0  0  0
 16 17  4  0  0  0  0
 17 19  4  0  0  0  0
 18 19  4  0  0  0  0
 20 22  1  0  0  0  0
 21 40  1  0  0  0  0
 22 41  1  0  0  0  0
 22 42  1  0  0  0  0
 22 43  1  0  0  0  0
 23 24  1  0  0  0  0
 24 44  1  0  0  0  0
 24 45  1  0  0  0  0
 25 26  4  0  0  0  0
 25 46  1  0  0  0  0
 26 27  4  0  0  0  0
 26 47  1  0  0  0  0
 27 28  4  0  0  0  0
 28 29  4  0  0  0  0
 28 48  1  0  0  0  0
 29 49  1  0  0  0  0
M  END
> <ConfClashScore>
0 

> <ConfOneFourInteractionScore>
-0.986948 

> <ConfScore>
-0.0170758 

> <ConfScorePBest>
0.00447289 

> <ConfTolerance>
0.594735 

> <HETNAM>
     OWQ A 303  OWQ                                                       

> <pdb_OW>
Q_303 -16.5129 3.80749 7.62812 0.15963 1.39178 -0.28144 -3.20151 0 0 0 -1.30514 0 0 0 0 0 0 0 0 -8.31393

$$$$
6yky_lig_1.pdb
 OpenBabel04162415593D

 49 53  0  0  0  0  0  0  0  0999 V2000
    0.8348   -0.7368    1.2416 C   0  0  0  1  0  0  0  0  0  0  0  0
    2.2312   -1.9471    2.6181 C   0  0  0  1  0  0  0  0  0  0  0  0
    1.4561   -1.1271    0.1495 N   0  0  0  1  0  0  0  0  0  0  0  0
    3.3969   -2.4455   -2.1084 C   0  0  0  1  0  0  0  0  0  0  0  0
    3.7419   -1.2312   -2.6710 C   0  0  0  1  0  0  0  0  0  0  0  0
    3.0207   -3.3541   -4.2948 C   0  0  0  1  0  0  0  0  0  0  0  0
    3.0331   -3.5078   -2.9213 C   0  0  0  1  0  0  0  0  0  0  0  0
    3.3667   -2.1361   -4.8592 C   0  0  0  1  0  0  0  0  0  0  0  0
    3.7294   -1.0771   -4.0485 C   0  0  0  1  0  0  0  0  0  0  0  0
   -1.0453    0.6275    2.0922 C   0  0  0  1  0  0  0  0  0  0  0  0
   -2.0843   -0.3849    2.5121 C   0  0  0  1  0  0  0  0  0  0  0  0
   -3.1850    0.4659    3.1424 C   0  0  0  1  0  0  0  0  0  0  0  0
   -4.0279    2.7480    2.4779 C   0  0  0  1  0  0  0  0  0  0  0  0
    1.2065   -1.1319    2.4467 N   0  0  0  1  0  0  0  0  0  0  0  0
    2.9287   -2.3937    1.4900 C   0  0  0  1  0  0  0  0  0  0  0  0
    2.4974   -1.9468    0.2241 C   0  0  0  1  0  0  0  0  0  0  0  0
    3.3384   -2.5237   -0.6869 N   0  0  0  1  0  0  0  0  0  0  0  0
    3.9909   -3.2060    1.2982 N   0  0  0  1  0  0  0  0  0  0  0  0
    4.2523   -3.3004    0.0410 N   0  0  0  1  0  0  0  0  0  0  0  0
    3.3863   -1.8692   -6.1702 O   0  0  0  1  0  0  0  0  0  0  0  0
   -0.2075    0.0954    1.0315 N   0  0  0  1  0  0  0  0  0  0  0  0
    3.5630   -0.5033   -6.6763 C   0  0  0  1  0  0  0  0  0  0  0  0
   -3.0814    1.7355    2.4104 N   0  0  0  1  0  0  0  0  0  0  0  0
   -1.8546    1.8087    1.5957 C   0  0  0  1  0  0  0  0  0  0  0  0
   -5.0942    2.6588    3.3536 C   0  0  0  1  0  0  0  0  0  0  0  0
   -6.0116    3.6916    3.3912 C   0  0  0  1  0  0  0  0  0  0  0  0
   -5.9257    4.7792    2.6193 N   0  0  0  1  0  0  0  0  0  0  0  0
   -4.8893    4.8505    1.7719 C   0  0  0  1  0  0  0  0  0  0  0  0
   -3.9233    3.8646    1.6716 C   0  0  0  1  0  0  0  0  0  0  0  0
    2.5141   -2.2509    3.5717 H   0  0  0  1  0  0  0  0  0  0  0  0
    4.0109   -0.4331   -2.0608 H   0  0  0  1  0  0  0  0  0  0  0  0
    2.7517   -4.1522   -4.9049 H   0  0  0  1  0  0  0  0  0  0  0  0
    2.7696   -4.4203   -2.4977 H   0  0  0  1  0  0  0  0  0  0  0  0
    3.9929   -0.1646   -4.4720 H   0  0  0  1  0  0  0  0  0  0  0  0
   -0.4332    0.9097    2.9232 H   0  0  0  1  0  0  0  0  0  0  0  0
   -2.4561   -0.9234    1.6656 H   0  0  0  1  0  0  0  0  0  0  0  0
   -1.6798   -1.0736    3.2241 H   0  0  0  1  0  0  0  0  0  0  0  0
   -4.1462    0.0176    3.0005 H   0  0  0  1  0  0  0  0  0  0  0  0
   -3.0088    0.6095    4.1880 H   0  0  0  1  0  0  0  0  0  0  0  0
   -0.4107    0.3558    0.1089 H   0  0  0  1  0  0  0  0  0  0  0  0
    3.5566   -0.5152   -7.7462 H   0  0  0  1  0  0  0  0  0  0  0  0
    4.4970   -0.1129   -6.3298 H   0  0  0  1  0  0  0  0  0  0  0  0
    2.7642    0.1142   -6.3219 H   0  0  0  1  0  0  0  0  0  0  0  0
   -1.3353    2.7288    1.7645 H   0  0  0  1  0  0  0  0  0  0  0  0
   -2.0785    1.7108    0.5539 H   0  0  0  1  0  0  0  0  0  0  0  0
   -5.2038    1.8300    3.9722 H   0  0  0  1  0  0  0  0  0  0  0  0
   -6.8096    3.6187    4.0540 H   0  0  0  1  0  0  0  0  0  0  0  0
   -4.8072    5.6875    1.1600 H   0  0  0  1  0  0  0  0  0  0  0  0
   -3.1336    3.9625    1.0020 H   0  0  0  1  0  0  0  0  0  0  0  0
  1  3  4  0  0  0  0
  1 14  4  0  0  0  0
  1 21  1  0  0  0  0
  2 14  4  0  0  0  0
  2 15  4  0  0  0  0
  2 30  1  0  0  0  0
  3 16  4  0  0  0  0
  4  5  4  0  0  0  0
  4  7  4  0  0  0  0
  4 17  1  0  0  0  0
  5  9  4  0  0  0  0
  5 31  1  0  0  0  0
  6  7  4  0  0  0  0
  6  8  4  0  0  0  0
  6 32  1  0  0  0  0
  7 33  1  0  0  0  0
  8  9  4  0  0  0  0
  8 20  1  0  0  0  0
  9 34  1  0  0  0  0
 10 11  1  0  0  0  0
 10 21  1  0  0  0  0
 10 24  1  0  0  0  0
 10 35  1  0  0  0  0
 11 12  1  0  0  0  0
 11 36  1  0  0  0  0
 11 37  1  0  0  0  0
 12 23  1  0  0  0  0
 12 38  1  0  0  0  0
 12 39  1  0  0  0  0
 13 23  1  0  0  0  0
 13 25  4  0  0  0  0
 13 29  4  0  0  0  0
 15 16  4  0  0  0  0
 15 18  4  0  0  0  0
 16 17  4  0  0  0  0
 17 19  4  0  0  0  0
 18 19  4  0  0  0  0
 20 22  1  0  0  0  0
 21 40  1  0  0  0  0
 22 41  1  0  0  0  0
 22 42  1  0  0  0  0
 22 43  1  0  0  0  0
 23 24  1  0  0  0  0
 24 44  1  0  0  0  0
 24 45  1  0  0  0  0
 25 26  4  0  0  0  0
 25 46  1  0  0  0  0
 26 27  4  0  0  0  0
 26 47  1  0  0  0  0
 27 28  4  0  0  0  0
 28 29  4  0  0  0  0
 28 48  1  0  0  0  0
 29 49  1  0  0  0  0
M  END
> <ConfClashScore>
0 

> <ConfOneFourInteractionScore>
-0.986948 

> <ConfScore>
-0.0162509 

> <ConfScorePBest>
0.00445956 

> <ConfTolerance>
0.464379 

> <HETNAM>
     OWQ A 303  OWQ                                                       

> <pdb_OW>
Q_303 -16.5129 3.80749 7.62812 0.15963 1.39178 -0.28144 -3.20151 0 0 0 -1.30514 0 0 0 0 0 0 0 0 -8.31393

$$$$
6yky_lig_1.pdb
 OpenBabel04162415593D

 49 53  0  0  0  0  0  0  0  0999 V2000
    1.5932   -0.3694    0.9237 C   0  0  0  1  0  0  0  0  0  0  0  0
    3.2472   -1.8546    1.5300 C   0  0  0  1  0  0  0  0  0  0  0  0
    1.4110   -0.9403   -0.2475 N   0  0  0  1  0  0  0  0  0  0  0  0
    1.4634   -2.7837   -2.9312 C   0  0  0  1  0  0  0  0  0  0  0  0
    0.1462   -3.2012   -2.9594 C   0  0  0  1  0  0  0  0  0  0  0  0
    1.4281   -2.5040   -5.3119 C   0  0  0  1  0  0  0  0  0  0  0  0
    2.1062   -2.4371   -4.1094 C   0  0  0  1  0  0  0  0  0  0  0  0
    0.1070   -2.9228   -5.3404 C   0  0  0  1  0  0  0  0  0  0  0  0
   -0.5338   -3.2683   -4.1655 C   0  0  0  1  0  0  0  0  0  0  0  0
    1.0801    1.3590    2.6011 C   0  0  0  1  0  0  0  0  0  0  0  0
    0.3642    0.6048    3.6830 C   0  0  0  1  0  0  0  0  0  0  0  0
   -1.0855    1.1453    3.5352 C   0  0  0  1  0  0  0  0  0  0  0  0
   -1.8542    3.4935    3.1161 C   0  0  0  1  0  0  0  0  0  0  0  0
    2.4852   -0.8089    1.7941 N   0  0  0  1  0  0  0  0  0  0  0  0
    3.0954   -2.5007    0.2978 C   0  0  0  1  0  0  0  0  0  0  0  0
    2.1317   -1.9977   -0.6001 C   0  0  0  1  0  0  0  0  0  0  0  0
    2.1908   -2.7998   -1.7061 N   0  0  0  1  0  0  0  0  0  0  0  0
    3.6864   -3.5647   -0.2884 N   0  0  0  1  0  0  0  0  0  0  0  0
    3.1802   -3.7624   -1.4556 N   0  0  0  1  0  0  0  0  0  0  0  0
   -0.4508   -2.9532   -6.5741 O   0  0  0  1  0  0  0  0  0  0  0  0
    0.8662    0.7204    1.3144 N   0  0  0  1  0  0  0  0  0  0  0  0
   -1.8717   -3.1484   -6.6472 C   0  0  0  1  0  0  0  0  0  0  0  0
   -0.8541    2.4937    3.0868 N   0  0  0  1  0  0  0  0  0  0  0  0
    0.4912    2.7410    2.6024 C   0  0  0  1  0  0  0  0  0  0  0  0
   -2.7334    3.6422    2.0594 C   0  0  0  1  0  0  0  0  0  0  0  0
   -3.6977    4.6293    2.1309 C   0  0  0  1  0  0  0  0  0  0  0  0
   -3.8264    5.4568    3.1725 N   0  0  0  1  0  0  0  0  0  0  0  0
   -2.9647    5.3043    4.1881 C   0  0  0  1  0  0  0  0  0  0  0  0
   -1.9716    4.3404    4.2009 C   0  0  0  1  0  0  0  0  0  0  0  0
    3.9457   -2.1911    2.2232 H   0  0  0  1  0  0  0  0  0  0  0  0
   -0.3348   -3.4650   -2.0759 H   0  0  0  1  0  0  0  0  0  0  0  0
    1.9091   -2.2402   -6.1955 H   0  0  0  1  0  0  0  0  0  0  0  0
    3.0986   -2.1268   -4.0886 H   0  0  0  1  0  0  0  0  0  0  0  0
   -1.5262   -3.5786   -4.1863 H   0  0  0  1  0  0  0  0  0  0  0  0
    2.1289    1.4014    2.8089 H   0  0  0  1  0  0  0  0  0  0  0  0
    0.7679    0.8297    4.6481 H   0  0  0  1  0  0  0  0  0  0  0  0
    0.4058   -0.4512    3.5156 H   0  0  0  1  0  0  0  0  0  0  0  0
   -1.6384    0.5839    2.8113 H   0  0  0  1  0  0  0  0  0  0  0  0
   -1.6040    1.1299    4.4710 H   0  0  0  1  0  0  0  0  0  0  0  0
    0.1832    1.0800    0.7106 H   0  0  0  1  0  0  0  0  0  0  0  0
   -2.3213   -2.8491   -5.7235 H   0  0  0  1  0  0  0  0  0  0  0  0
   -2.0806   -4.1823   -6.8268 H   0  0  0  1  0  0  0  0  0  0  0  0
   -2.2718   -2.5591   -7.4457 H   0  0  0  1  0  0  0  0  0  0  0  0
    0.4791    3.1595    1.6177 H   0  0  0  1  0  0  0  0  0  0  0  0
    1.0280    3.3918    3.2606 H   0  0  0  1  0  0  0  0  0  0  0  0
   -2.6700    3.0228    1.2264 H   0  0  0  1  0  0  0  0  0  0  0  0
   -4.3571    4.7337    1.3335 H   0  0  0  1  0  0  0  0  0  0  0  0
   -3.0463    5.9413    5.0061 H   0  0  0  1  0  0  0  0  0  0  0  0
   -1.3261    4.2554    5.0119 H   0  0  0  1  0  0  0  0  0  0  0  0
  1  3  4  0  0  0  0
  1 14  4  0  0  0  0
  1 21  1  0  0  0  0
  2 14  4  0  0  0  0
  2 15  4  0  0  0  0
  2 30  1  0  0  0  0
  3 16  4  0  0  0  0
  4  5  4  0  0  0  0
  4  7  4  0  0  0  0
  4 17  1  0  0  0  0
  5  9  4  0  0  0  0
  5 31  1  0  0  0  0
  6  7  4  0  0  0  0
  6  8  4  0  0  0  0
  6 32  1  0  0  0  0
  7 33  1  0  0  0  0
  8  9  4  0  0  0  0
  8 20  1  0  0  0  0
  9 34  1  0  0  0  0
 10 11  1  0  0  0  0
 10 21  1  0  0  0  0
 10 24  1  0  0  0  0
 10 35  1  0  0  0  0
 11 12  1  0  0  0  0
 11 36  1  0  0  0  0
 11 37  1  0  0  0  0
 12 23  1  0  0  0  0
 12 38  1  0  0  0  0
 12 39  1  0  0  0  0
 13 23  1  0  0  0  0
 13 25  4  0  0  0  0
 13 29  4  0  0  0  0
 15 16  4  0  0  0  0
 15 18  4  0  0  0  0
 16 17  4  0  0  0  0
 17 19  4  0  0  0  0
 18 19  4  0  0  0  0
 20 22  1  0  0  0  0
 21 40  1  0  0  0  0
 22 41  1  0  0  0  0
 22 42  1  0  0  0  0
 22 43  1  0  0  0  0
 23 24  1  0  0  0  0
 24 44  1  0  0  0  0
 24 45  1  0  0  0  0
 25 26  4  0  0  0  0
 25 46  1  0  0  0  0
 26 27  4  0  0  0  0
 26 47  1  0  0  0  0
 27 28  4  0  0  0  0
 28 29  4  0  0  0  0
 28 48  1  0  0  0  0
 29 49  1  0  0  0  0
M  END
> <ConfClashScore>
0 

> <ConfOneFourInteractionScore>
-0.983869 

> <ConfScore>
-0.0158101 

> <ConfScorePBest>
0.00444624 

> <ConfTolerance>
0.556629 

> <HETNAM>
     OWQ A 303  OWQ                                                       

> <pdb_OW>
Q_303 -16.5129 3.80749 7.62812 0.15963 1.39178 -0.28144 -3.20151 0 0 0 -1.30514 0 0 0 0 0 0 0 0 -8.31393

$$$$
6yky_lig_1.pdb
 OpenBabel04162415593D

 49 53  0  0  0  0  0  0  0  0999 V2000
    1.3567   -2.8959   -1.3899 C   0  0  0  1  0  0  0  0  0  0  0  0
    3.0376   -2.8976   -2.9660 C   0  0  0  1  0  0  0  0  0  0  0  0
    1.5675   -1.6391   -1.0629 N   0  0  0  1  0  0  0  0  0  0  0  0
    2.5256    1.4925   -0.8553 C   0  0  0  1  0  0  0  0  0  0  0  0
    3.0597    2.7365   -1.1337 C   0  0  0  1  0  0  0  0  0  0  0  0
    1.2280    2.4448    0.9214 C   0  0  0  1  0  0  0  0  0  0  0  0
    1.6105    1.3459    0.1755 C   0  0  0  1  0  0  0  0  0  0  0  0
    1.7636    3.6926    0.6422 C   0  0  0  1  0  0  0  0  0  0  0  0
    2.6761    3.8385   -0.3856 C   0  0  0  1  0  0  0  0  0  0  0  0
   -0.4802   -2.9657    0.3105 C   0  0  0  1  0  0  0  0  0  0  0  0
   -1.5369   -3.9904    0.8081 C   0  0  0  1  0  0  0  0  0  0  0  0
   -2.7559   -3.1910    1.3139 C   0  0  0  1  0  0  0  0  0  0  0  0
   -3.3244   -0.7036    0.9917 C   0  0  0  1  0  0  0  0  0  0  0  0
    2.0683   -3.5152   -2.3154 N   0  0  0  1  0  0  0  0  0  0  0  0
    3.3050   -1.5589   -2.6579 C   0  0  0  1  0  0  0  0  0  0  0  0
    2.5210   -0.9381   -1.6639 C   0  0  0  1  0  0  0  0  0  0  0  0
    2.9851    0.3442   -1.5629 N   0  0  0  1  0  0  0  0  0  0  0  0
    4.1934   -0.6465   -3.1089 N   0  0  0  1  0  0  0  0  0  0  0  0
    4.0307    0.4705   -2.4897 N   0  0  0  1  0  0  0  0  0  0  0  0
    1.4734    4.8227    1.2972 O   0  0  0  1  0  0  0  0  0  0  0  0
    0.3769   -3.5306   -0.7368 N   0  0  0  1  0  0  0  0  0  0  0  0
    2.2314    6.0591    1.0747 C   0  0  0  1  0  0  0  0  0  0  0  0
   -2.5452   -1.8482    0.7028 N   0  0  0  1  0  0  0  0  0  0  0  0
   -1.4167   -1.8738   -0.2422 C   0  0  0  1  0  0  0  0  0  0  0  0
   -4.4295   -0.3906    0.2220 C   0  0  0  1  0  0  0  0  0  0  0  0
   -5.1650    0.7347    0.5417 C   0  0  0  1  0  0  0  0  0  0  0  0
   -4.8626    1.5454    1.5603 N   0  0  0  1  0  0  0  0  0  0  0  0
   -3.7861    1.2325    2.2954 C   0  0  0  1  0  0  0  0  0  0  0  0
   -2.9961    0.1234    2.0481 C   0  0  0  1  0  0  0  0  0  0  0  0
    3.5907   -3.3958   -3.6923 H   0  0  0  1  0  0  0  0  0  0  0  0
    3.7493    2.8456   -1.9045 H   0  0  0  1  0  0  0  0  0  0  0  0
    0.5384    2.3356    1.6921 H   0  0  0  1  0  0  0  0  0  0  0  0
    1.2117    0.4091    0.3876 H   0  0  0  1  0  0  0  0  0  0  0  0
    3.0749    4.7753   -0.5977 H   0  0  0  1  0  0  0  0  0  0  0  0
    0.1281   -2.6004    1.1114 H   0  0  0  1  0  0  0  0  0  0  0  0
   -1.1294   -4.5777    1.6042 H   0  0  0  1  0  0  0  0  0  0  0  0
   -1.8295   -4.6328    0.0039 H   0  0  0  1  0  0  0  0  0  0  0  0
   -2.7617   -3.1317    2.3823 H   0  0  0  1  0  0  0  0  0  0  0  0
   -3.6716   -3.6291    0.9756 H   0  0  0  1  0  0  0  0  0  0  0  0
    0.2161   -4.4656   -0.9824 H   0  0  0  1  0  0  0  0  0  0  0  0
    1.7488    6.8697    1.5795 H   0  0  0  1  0  0  0  0  0  0  0  0
    2.2741    6.2671    0.0259 H   0  0  0  1  0  0  0  0  0  0  0  0
    3.2242    5.9421    1.4562 H   0  0  0  1  0  0  0  0  0  0  0  0
   -0.9208   -0.9260   -0.2656 H   0  0  0  1  0  0  0  0  0  0  0  0
   -1.7525   -2.1257   -1.2264 H   0  0  0  1  0  0  0  0  0  0  0  0
   -4.7021   -0.9909   -0.5824 H   0  0  0  1  0  0  0  0  0  0  0  0
   -5.9964    0.9625   -0.0402 H   0  0  0  1  0  0  0  0  0  0  0  0
   -3.5322    1.8534    3.0902 H   0  0  0  1  0  0  0  0  0  0  0  0
   -2.1709   -0.0835    2.6464 H   0  0  0  1  0  0  0  0  0  0  0  0
  1  3  4  0  0  0  0
  1 14  4  0  0  0  0
  1 21  1  0  0  0  0
  2 14  4  0  0  0  0
  2 15  4  0  0  0  0
  2 30  1  0  0  0  0
  3 16  4  0  0  0  0
  4  5  4  0  0  0  0
  4  7  4  0  0  0  0
  4 17  1  0  0  0  0
  5  9  4  0  0  0  0
  5 31  1  0  0  0  0
  6  7  4  0  0  0  0
  6  8  4  0  0  0  0
  6 32  1  0  0  0  0
  7 33  1  0  0  0  0
  8  9  4  0  0  0  0
  8 20  1  0  0  0  0
  9 34  1  0  0  0  0
 10 11  1  0  0  0  0
 10 21  1  0  0  0  0
 10 24  1  0  0  0  0
 10 35  1  0  0  0  0
 11 12  1  0  0  0  0
 11 36  1  0  0  0  0
 11 37  1  0  0  0  0
 12 23  1  0  0  0  0
 12 38  1  0  0  0  0
 12 39  1  0  0  0  0
 13 23  1  0  0  0  0
 13 25  4  0  0  0  0
 13 29  4  0  0  0  0
 15 16  4  0  0  0  0
 15 18  4  0  0  0  0
 16 17  4  0  0  0  0
 17 19  4  0  0  0  0
 18 19  4  0  0  0  0
 20 22  1  0  0  0  0
 21 40  1  0  0  0  0
 22 41  1  0  0  0  0
 22 42  1  0  0  0  0
 22 43  1  0  0  0  0
 23 24  1  0  0  0  0
 24 44  1  0  0  0  0
 24 45  1  0  0  0  0
 25 26  4  0  0  0  0
 25 46  1  0  0  0  0
 26 27  4  0  0  0  0
 26 47  1  0  0  0  0
 27 28  4  0  0  0  0
 28 29  4  0  0  0  0
 28 48  1  0  0  0  0
 29 49  1  0  0  0  0
M  END
> <ConfClashScore>
0 

> <ConfOneFourInteractionScore>
-0.986948 

> <ConfScore>
-0.0155806 

> <ConfScorePBest>
0.00443291 

> <ConfTolerance>
0.40232 

> <HETNAM>
     OWQ A 303  OWQ                                                       

> <pdb_OW>
Q_303 -16.5129 3.80749 7.62812 0.15963 1.39178 -0.28144 -3.20151 0 0 0 -1.30514 0 0 0 0 0 0 0 0 -8.31393

$$$$
6yky_lig_1.pdb
 OpenBabel04162415593D

 49 53  0  0  0  0  0  0  0  0999 V2000
    1.6753   -2.6551   -1.3901 C   0  0  0  1  0  0  0  0  0  0  0  0
    3.4218   -2.5592   -2.8901 C   0  0  0  1  0  0  0  0  0  0  0  0
    1.7787   -1.3809   -1.0793 N   0  0  0  1  0  0  0  0  0  0  0  0
    2.5904    1.7945   -0.7891 C   0  0  0  1  0  0  0  0  0  0  0  0
    3.4646    2.8376   -0.5486 C   0  0  0  1  0  0  0  0  0  0  0  0
    0.9439    2.8522    0.5956 C   0  0  0  1  0  0  0  0  0  0  0  0
    1.3291    1.8004   -0.2140 C   0  0  0  1  0  0  0  0  0  0  0  0
    1.8206    3.8985    0.8369 C   0  0  0  1  0  0  0  0  0  0  0  0
    3.0781    3.8924    0.2634 C   0  0  0  1  0  0  0  0  0  0  0  0
   -0.1556   -2.8928    0.2566 C   0  0  0  1  0  0  0  0  0  0  0  0
   -1.1980   -3.9237    0.6191 C   0  0  0  1  0  0  0  0  0  0  0  0
   -2.3273   -3.0973    1.2312 C   0  0  0  1  0  0  0  0  0  0  0  0
   -3.1699   -0.8085    0.5899 C   0  0  0  1  0  0  0  0  0  0  0  0
    2.4716   -3.2356   -2.2707 N   0  0  0  1  0  0  0  0  0  0  0  0
    3.5766   -1.1994   -2.5973 C   0  0  0  1  0  0  0  0  0  0  0  0
    2.7049   -0.6216   -1.6515 C   0  0  0  1  0  0  0  0  0  0  0  0
    3.0691    0.6930   -1.5558 N   0  0  0  1  0  0  0  0  0  0  0  0
    4.4155   -0.2316   -3.0268 N   0  0  0  1  0  0  0  0  0  0  0  0
    4.1438    0.8806   -2.4379 N   0  0  0  1  0  0  0  0  0  0  0  0
    1.5579    4.9763    1.6136 O   0  0  0  1  0  0  0  0  0  0  0  0
    0.7251   -3.3950   -0.7907 N   0  0  0  1  0  0  0  0  0  0  0  0
    0.3965    4.9107    2.4558 C   0  0  0  1  0  0  0  0  0  0  0  0
   -2.2118   -1.8106    0.5314 N   0  0  0  1  0  0  0  0  0  0  0  0
   -0.9596   -1.7080   -0.2401 C   0  0  0  1  0  0  0  0  0  0  0  0
   -4.2112   -0.8423   -0.3191 C   0  0  0  1  0  0  0  0  0  0  0  0
   -5.1203    0.1984   -0.3274 C   0  0  0  1  0  0  0  0  0  0  0  0
   -5.0461    1.2456    0.4997 N   0  0  0  1  0  0  0  0  0  0  0  0
   -4.0291    1.2676    1.3729 C   0  0  0  1  0  0  0  0  0  0  0  0
   -3.0767    0.2666    1.4521 C   0  0  0  1  0  0  0  0  0  0  0  0
    4.0422   -3.0273   -3.5811 H   0  0  0  1  0  0  0  0  0  0  0  0
    4.4123    2.8311   -0.9769 H   0  0  0  1  0  0  0  0  0  0  0  0
   -0.0038    2.8587    1.0239 H   0  0  0  1  0  0  0  0  0  0  0  0
    0.6728    1.0135   -0.3918 H   0  0  0  1  0  0  0  0  0  0  0  0
    3.7345    4.6793    0.4412 H   0  0  0  1  0  0  0  0  0  0  0  0
    0.4258   -2.6239    1.1137 H   0  0  0  1  0  0  0  0  0  0  0  0
   -0.8106   -4.6246    1.3286 H   0  0  0  1  0  0  0  0  0  0  0  0
   -1.5363   -4.4463   -0.2511 H   0  0  0  1  0  0  0  0  0  0  0  0
   -3.2788   -3.5509    1.0473 H   0  0  0  1  0  0  0  0  0  0  0  0
   -2.1871   -2.9758    2.2850 H   0  0  0  1  0  0  0  0  0  0  0  0
    0.6186   -4.3267   -1.0751 H   0  0  0  1  0  0  0  0  0  0  0  0
   -0.4725    4.7461    1.8537 H   0  0  0  1  0  0  0  0  0  0  0  0
    0.2909    5.8320    2.9897 H   0  0  0  1  0  0  0  0  0  0  0  0
    0.5058    4.1053    3.1516 H   0  0  0  1  0  0  0  0  0  0  0  0
   -1.1479   -1.7844   -1.2907 H   0  0  0  1  0  0  0  0  0  0  0  0
   -0.4551   -0.7873   -0.0337 H   0  0  0  1  0  0  0  0  0  0  0  0
   -4.3083   -1.6359   -0.9841 H   0  0  0  1  0  0  0  0  0  0  0  0
   -5.9023    0.1650   -1.0122 H   0  0  0  1  0  0  0  0  0  0  0  0
   -3.9520    2.0762    2.0224 H   0  0  0  1  0  0  0  0  0  0  0  0
   -2.3055    0.3227    2.1476 H   0  0  0  1  0  0  0  0  0  0  0  0
  1  3  4  0  0  0  0
  1 14  4  0  0  0  0
  1 21  1  0  0  0  0
  2 14  4  0  0  0  0
  2 15  4  0  0  0  0
  2 30  1  0  0  0  0
  3 16  4  0  0  0  0
  4  5  4  0  0  0  0
  4  7  4  0  0  0  0
  4 17  1  0  0  0  0
  5  9  4  0  0  0  0
  5 31  1  0  0  0  0
  6  7  4  0  0  0  0
  6  8  4  0  0  0  0
  6 32  1  0  0  0  0
  7 33  1  0  0  0  0
  8  9  4  0  0  0  0
  8 20  1  0  0  0  0
  9 34  1  0  0  0  0
 10 11  1  0  0  0  0
 10 21  1  0  0  0  0
 10 24  1  0  0  0  0
 10 35  1  0  0  0  0
 11 12  1  0  0  0  0
 11 36  1  0  0  0  0
 11 37  1  0  0  0  0
 12 23  1  0  0  0  0
 12 38  1  0  0  0  0
 12 39  1  0  0  0  0
 13 23  1  0  0  0  0
 13 25  4  0  0  0  0
 13 29  4  0  0  0  0
 15 16  4  0  0  0  0
 15 18  4  0  0  0  0
 16 17  4  0  0  0  0
 17 19  4  0  0  0  0
 18 19  4  0  0  0  0
 20 22  1  0  0  0  0
 21 40  1  0  0  0  0
 22 41  1  0  0  0  0
 22 42  1  0  0  0  0
 22 43  1  0  0  0  0
 23 24  1  0  0  0  0
 24 44  1  0  0  0  0
 24 45  1  0  0  0  0
 25 26  4  0  0  0  0
 25 46  1  0  0  0  0
 26 27  4  0  0  0  0
 26 47  1  0  0  0  0
 27 28  4  0  0  0  0
 28 29  4  0  0  0  0
 28 48  1  0  0  0  0
 29 49  1  0  0  0  0
M  END
> <ConfClashScore>
0 

> <ConfOneFourInteractionScore>
-0.987833 

> <ConfScore>
-0.0134156 

> <ConfScorePBest>
0.00441958 

> <ConfTolerance>
0.408358 

> <HETNAM>
     OWQ A 303  OWQ                                                       

> <pdb_OW>
Q_303 -16.5129 3.80749 7.62812 0.15963 1.39178 -0.28144 -3.20151 0 0 0 -1.30514 0 0 0 0 0 0 0 0 -8.31393

$$$$
6yky_lig_1.pdb
 OpenBabel04162415593D

 49 53  0  0  0  0  0  0  0  0999 V2000
    1.1916    0.2222    0.8971 C   0  0  0  1  0  0  0  0  0  0  0  0
    2.5219    2.0835    0.6218 C   0  0  0  1  0  0  0  0  0  0  0  0
    1.5947   -0.3205   -0.2315 N   0  0  0  1  0  0  0  0  0  0  0  0
    2.8878   -0.9975   -3.1651 C   0  0  0  1  0  0  0  0  0  0  0  0
    3.0117   -0.7051   -4.5102 C   0  0  0  1  0  0  0  0  0  0  0  0
    2.1965   -3.2271   -3.7113 C   0  0  0  1  0  0  0  0  0  0  0  0
    2.4770   -2.2595   -2.7650 C   0  0  0  1  0  0  0  0  0  0  0  0
    2.3207   -2.9340   -5.0604 C   0  0  0  1  0  0  0  0  0  0  0  0
    2.7304   -1.6756   -5.4591 C   0  0  0  1  0  0  0  0  0  0  0  0
   -0.3238    0.1117    2.8492 C   0  0  0  1  0  0  0  0  0  0  0  0
   -1.3295   -0.8842    3.4685 C   0  0  0  1  0  0  0  0  0  0  0  0
   -2.5311   -0.0936    3.9212 C   0  0  0  1  0  0  0  0  0  0  0  0
   -3.2192    2.2842    3.2182 C   0  0  0  1  0  0  0  0  0  0  0  0
    1.6386    1.3922    1.3190 N   0  0  0  1  0  0  0  0  0  0  0  0
    2.9853    1.5528   -0.5874 C   0  0  0  1  0  0  0  0  0  0  0  0
    2.4813    0.3018   -0.9987 C   0  0  0  1  0  0  0  0  0  0  0  0
    3.0892    0.0233   -2.1916 N   0  0  0  1  0  0  0  0  0  0  0  0
    3.8594    1.9722   -1.5281 N   0  0  0  1  0  0  0  0  0  0  0  0
    3.9403    1.1022   -2.4738 N   0  0  0  1  0  0  0  0  0  0  0  0
    2.0699   -3.7954   -6.0747 O   0  0  0  1  0  0  0  0  0  0  0  0
    0.2888   -0.4388    1.6527 N   0  0  0  1  0  0  0  0  0  0  0  0
    1.4131   -5.0283   -5.7413 C   0  0  0  1  0  0  0  0  0  0  0  0
   -2.3084    1.2421    3.1787 N   0  0  0  1  0  0  0  0  0  0  0  0
   -1.1980    1.3047    2.5162 C   0  0  0  1  0  0  0  0  0  0  0  0
   -4.2309    2.2428    2.2768 C   0  0  0  1  0  0  0  0  0  0  0  0
   -5.1731    3.2537    2.2688 C   0  0  0  1  0  0  0  0  0  0  0  0
   -5.1581    4.2790    3.1260 N   0  0  0  1  0  0  0  0  0  0  0  0
   -4.1691    4.3088    4.0305 C   0  0  0  1  0  0  0  0  0  0  0  0
   -3.1872    3.3369    4.1119 C   0  0  0  1  0  0  0  0  0  0  0  0
    2.8661    3.0031    0.9644 H   0  0  0  1  0  0  0  0  0  0  0  0
    3.3161    0.2430   -4.8104 H   0  0  0  1  0  0  0  0  0  0  0  0
    1.8921   -4.1752   -3.4111 H   0  0  0  1  0  0  0  0  0  0  0  0
    2.3798   -2.4783   -1.7529 H   0  0  0  1  0  0  0  0  0  0  0  0
    2.8275   -1.4568   -6.4712 H   0  0  0  1  0  0  0  0  0  0  0  0
    0.4389    0.3765    3.5514 H   0  0  0  1  0  0  0  0  0  0  0  0
   -0.8833   -1.3811    4.3045 H   0  0  0  1  0  0  0  0  0  0  0  0
   -1.6232   -1.6084    2.7376 H   0  0  0  1  0  0  0  0  0  0  0  0
   -3.4447   -0.5620    3.6198 H   0  0  0  1  0  0  0  0  0  0  0  0
   -2.5330    0.0434    4.9824 H   0  0  0  1  0  0  0  0  0  0  0  0
    0.0315   -1.3435    1.3775 H   0  0  0  1  0  0  0  0  0  0  0  0
    0.4020   -4.8280   -5.4541 H   0  0  0  1  0  0  0  0  0  0  0  0
    1.9278   -5.4981   -4.9295 H   0  0  0  1  0  0  0  0  0  0  0  0
    1.4200   -5.6772   -6.5921 H   0  0  0  1  0  0  0  0  0  0  0  0
   -0.6815    2.2050    2.7759 H   0  0  0  1  0  0  0  0  0  0  0  0
   -1.4113    1.3050    1.4677 H   0  0  0  1  0  0  0  0  0  0  0  0
   -4.2820    1.4656    1.5877 H   0  0  0  1  0  0  0  0  0  0  0  0
   -5.9327    3.2147    1.5595 H   0  0  0  1  0  0  0  0  0  0  0  0
   -4.1382    5.1009    4.7038 H   0  0  0  1  0  0  0  0  0  0  0  0
   -2.4395    3.3980    4.8322 H   0  0  0  1  0  0  0  0  0  0  0  0
  1  3  4  0  0  0  0
  1 14  4  0  0  0  0
  1 21  1  0  0  0  0
  2 14  4  0  0  0  0
  2 15  4  0  0  0  0
  2 30  1  0  0  0  0
  3 16  4  0  0  0  0
  4  5  4  0  0  0  0
  4  7  4  0  0  0  0
  4 17  1  0  0  0  0
  5  9  4  0  0  0  0
  5 31  1  0  0  0  0
  6  7  4  0  0  0  0
  6  8  4  0  0  0  0
  6 32  1  0  0  0  0
  7 33  1  0  0  0  0
  8  9  4  0  0  0  0
  8 20  1  0  0  0  0
  9 34  1  0  0  0  0
 10 11  1  0  0  0  0
 10 21  1  0  0  0  0
 10 24  1  0  0  0  0
 10 35  1  0  0  0  0
 11 12  1  0  0  0  0
 11 36  1  0  0  0  0
 11 37  1  0  0  0  0
 12 23  1  0  0  0  0
 12 38  1  0  0  0  0
 12 39  1  0  0  0  0
 13 23  1  0  0  0  0
 13 25  4  0  0  0  0
 13 29  4  0  0  0  0
 15 16  4  0  0  0  0
 15 18  4  0  0  0  0
 16 17  4  0  0  0  0
 17 19  4  0  0  0  0
 18 19  4  0  0  0  0
 20 22  1  0  0  0  0
 21 40  1  0  0  0  0
 22 41  1  0  0  0  0
 22 42  1  0  0  0  0
 22 43  1  0  0  0  0
 23 24  1  0  0  0  0
 24 44  1  0  0  0  0
 24 45  1  0  0  0  0
 25 26  4  0  0  0  0
 25 46  1  0  0  0  0
 26 27  4  0  0  0  0
 26 47  1  0  0  0  0
 27 28  4  0  0  0  0
 28 29  4  0  0  0  0
 28 48  1  0  0  0  0
 29 49  1  0  0  0  0
M  END
> <ConfClashScore>
0 

> <ConfOneFourInteractionScore>
-0.984874 

> <ConfScore>
-0.0134156 

> <ConfScorePBest>
0.00440625 

> <ConfTolerance>
0.544499 

> <HETNAM>
     OWQ A 303  OWQ                                                       

> <pdb_OW>
Q_303 -16.5129 3.80749 7.62812 0.15963 1.39178 -0.28144 -3.20151 0 0 0 -1.30514 0 0 0 0 0 0 0 0 -8.31393

$$$$
6yky_lig_1.pdb
 OpenBabel04162415593D

 49 53  0  0  0  0  0  0  0  0999 V2000
    0.9866   -2.0694   -2.2961 C   0  0  0  1  0  0  0  0  0  0  0  0
    2.9720   -2.6132   -3.3313 C   0  0  0  1  0  0  0  0  0  0  0  0
    1.5911   -1.4612   -1.2984 N   0  0  0  1  0  0  0  0  0  0  0  0
    3.7020   -0.0159    0.7567 C   0  0  0  1  0  0  0  0  0  0  0  0
    2.4560    0.2299    1.3017 C   0  0  0  1  0  0  0  0  0  0  0  0
    4.6906    1.5031    2.3260 C   0  0  0  1  0  0  0  0  0  0  0  0
    4.8207    0.6236    1.2678 C   0  0  0  1  0  0  0  0  0  0  0  0
    3.4409    1.7498    2.8727 C   0  0  0  1  0  0  0  0  0  0  0  0
    2.3256    1.1120    2.3630 C   0  0  0  1  0  0  0  0  0  0  0  0
   -1.2023   -1.5771   -1.2539 C   0  0  0  1  0  0  0  0  0  0  0  0
   -2.2745   -2.5987   -0.7839 C   0  0  0  1  0  0  0  0  0  0  0  0
   -3.4808   -1.7948   -0.2550 C   0  0  0  1  0  0  0  0  0  0  0  0
   -3.9989    0.6914   -0.5129 C   0  0  0  1  0  0  0  0  0  0  0  0
    1.6522   -2.6326   -3.2893 N   0  0  0  1  0  0  0  0  0  0  0  0
    3.6667   -1.9792   -2.2950 C   0  0  0  1  0  0  0  0  0  0  0  0
    2.9159   -1.3919   -1.2559 C   0  0  0  1  0  0  0  0  0  0  0  0
    3.8266   -0.8519   -0.3905 N   0  0  0  1  0  0  0  0  0  0  0  0
    4.9740   -1.7752   -2.0222 N   0  0  0  1  0  0  0  0  0  0  0  0
    5.0975   -1.1217   -0.9199 N   0  0  0  1  0  0  0  0  0  0  0  0
    3.4366    2.6323    3.8999 O   0  0  0  1  0  0  0  0  0  0  0  0
   -0.3626   -2.1210   -2.3071 N   0  0  0  1  0  0  0  0  0  0  0  0
    2.1584    3.1020    4.3561 C   0  0  0  1  0  0  0  0  0  0  0  0
   -3.2495   -0.4390   -0.8290 N   0  0  0  1  0  0  0  0  0  0  0  0
   -2.1220   -0.4561   -1.7753 C   0  0  0  1  0  0  0  0  0  0  0  0
   -4.9982    0.6304    0.4406 C   0  0  0  1  0  0  0  0  0  0  0  0
   -5.7149    1.7769    0.7265 C   0  0  0  1  0  0  0  0  0  0  0  0
   -5.4953    2.9499    0.1249 N   0  0  0  1  0  0  0  0  0  0  0  0
   -4.5264    2.9935   -0.8006 C   0  0  0  1  0  0  0  0  0  0  0  0
   -3.7583    1.8953   -1.1457 C   0  0  0  1  0  0  0  0  0  0  0  0
    3.4846   -3.0600   -4.1183 H   0  0  0  1  0  0  0  0  0  0  0  0
    1.6162   -0.2468    0.9156 H   0  0  0  1  0  0  0  0  0  0  0  0
    5.5304    1.9798    2.7121 H   0  0  0  1  0  0  0  0  0  0  0  0
    5.7577    0.4416    0.8550 H   0  0  0  1  0  0  0  0  0  0  0  0
    1.3885    1.2940    2.7757 H   0  0  0  1  0  0  0  0  0  0  0  0
   -0.5880   -1.2436   -0.4438 H   0  0  0  1  0  0  0  0  0  0  0  0
   -2.5775   -3.2140   -1.6052 H   0  0  0  1  0  0  0  0  0  0  0  0
   -1.8759   -3.2141   -0.0047 H   0  0  0  1  0  0  0  0  0  0  0  0
   -4.4033   -2.2091   -0.6045 H   0  0  0  1  0  0  0  0  0  0  0  0
   -3.4851   -1.7650    0.8145 H   0  0  0  1  0  0  0  0  0  0  0  0
   -0.8013   -2.5507   -3.0708 H   0  0  0  1  0  0  0  0  0  0  0  0
    1.6548    3.6017    3.5551 H   0  0  0  1  0  0  0  0  0  0  0  0
    2.2985    3.7832    5.1692 H   0  0  0  1  0  0  0  0  0  0  0  0
    1.5695    2.2709    4.6839 H   0  0  0  1  0  0  0  0  0  0  0  0
   -1.6115    0.4843   -1.7730 H   0  0  0  1  0  0  0  0  0  0  0  0
   -2.4622   -0.6753   -2.7658 H   0  0  0  1  0  0  0  0  0  0  0  0
   -5.2067   -0.2614    0.9334 H   0  0  0  1  0  0  0  0  0  0  0  0
   -6.4635    1.7241    1.4466 H   0  0  0  1  0  0  0  0  0  0  0  0
   -4.3430    3.8966   -1.2827 H   0  0  0  1  0  0  0  0  0  0  0  0
   -3.0141    1.9749   -1.8678 H   0  0  0  1  0  0  0  0  0  0  0  0
  1  3  4  0  0  0  0
  1 14  4  0  0  0  0
  1 21  1  0  0  0  0
  2 14  4  0  0  0  0
  2 15  4  0  0  0  0
  2 30  1  0  0  0  0
  3 16  4  0  0  0  0
  4  5  4  0  0  0  0
  4  7  4  0  0  0  0
  4 17  1  0  0  0  0
  5  9  4  0  0  0  0
  5 31  1  0  0  0  0
  6  7  4  0  0  0  0
  6  8  4  0  0  0  0
  6 32  1  0  0  0  0
  7 33  1  0  0  0  0
  8  9  4  0  0  0  0
  8 20  1  0  0  0  0
  9 34  1  0  0  0  0
 10 11  1  0  0  0  0
 10 21  1  0  0  0  0
 10 24  1  0  0  0  0
 10 35  1  0  0  0  0
 11 12  1  0  0  0  0
 11 36  1  0  0  0  0
 11 37  1  0  0  0  0
 12 23  1  0  0  0  0
 12 38  1  0  0  0  0
 12 39  1  0  0  0  0
 13 23  1  0  0  0  0
 13 25  4  0  0  0  0
 13 29  4  0  0  0  0
 15 16  4  0  0  0  0
 15 18  4  0  0  0  0
 16 17  4  0  0  0  0
 17 19  4  0  0  0  0
 18 19  4  0  0  0  0
 20 22  1  0  0  0  0
 21 40  1  0  0  0  0
 22 41  1  0  0  0  0
 22 42  1  0  0  0  0
 22 43  1  0  0  0  0
 23 24  1  0  0  0  0
 24 44  1  0  0  0  0
 24 45  1  0  0  0  0
 25 26  4  0  0  0  0
 25 46  1  0  0  0  0
 26 27  4  0  0  0  0
 26 47  1  0  0  0  0
 27 28  4  0  0  0  0
 28 29  4  0  0  0  0
 28 48  1  0  0  0  0
 29 49  1  0  0  0  0
M  END
> <ConfClashScore>
0 

> <ConfOneFourInteractionScore>
-0.986948 

> <ConfScore>
-0.0131501 

> <ConfScorePBest>
0.00439292 

> <ConfTolerance>
0.423568 

> <HETNAM>
     OWQ A 303  OWQ                                                       

> <pdb_OW>
Q_303 -16.5129 3.80749 7.62812 0.15963 1.39178 -0.28144 -3.20151 0 0 0 -1.30514 0 0 0 0 0 0 0 0 -8.31393

$$$$
6yky_lig_1.pdb
 OpenBabel04162415593D

 49 53  0  0  0  0  0  0  0  0999 V2000
    0.5345    0.2158    0.7364 C   0  0  0  1  0  0  0  0  0  0  0  0
    2.0576    1.9209    1.0230 C   0  0  0  1  0  0  0  0  0  0  0  0
    1.2680   -0.3817   -0.1778 N   0  0  0  1  0  0  0  0  0  0  0  0
    3.5632   -1.3133   -2.3435 C   0  0  0  1  0  0  0  0  0  0  0  0
    4.7504   -1.4775   -3.0319 C   0  0  0  1  0  0  0  0  0  0  0  0
    2.6087   -3.1546   -3.5459 C   0  0  0  1  0  0  0  0  0  0  0  0
    2.4899   -2.1513   -2.6027 C   0  0  0  1  0  0  0  0  0  0  0  0
    3.7994   -3.3194   -4.2364 C   0  0  0  1  0  0  0  0  0  0  0  0
    4.8694   -2.4837   -3.9778 C   0  0  0  1  0  0  0  0  0  0  0  0
   -1.5189    0.2042    2.1160 C   0  0  0  1  0  0  0  0  0  0  0  0
   -2.5726   -0.8369    2.5851 C   0  0  0  1  0  0  0  0  0  0  0  0
   -3.8081   -0.0558    3.0796 C   0  0  0  1  0  0  0  0  0  0  0  0
   -4.3812    2.4057    2.7691 C   0  0  0  1  0  0  0  0  0  0  0  0
    0.9123    1.3370    1.3253 N   0  0  0  1  0  0  0  0  0  0  0  0
    2.8780    1.3280    0.0565 C   0  0  0  1  0  0  0  0  0  0  0  0
    2.4351    0.1325   -0.5458 C   0  0  0  1  0  0  0  0  0  0  0  0
    3.4089   -0.2249   -1.4369 N   0  0  0  1  0  0  0  0  0  0  0  0
    4.0767    1.6394   -0.4829 N   0  0  0  1  0  0  0  0  0  0  0  0
    4.4111    0.7534   -1.3552 N   0  0  0  1  0  0  0  0  0  0  0  0
    3.9069   -4.3744   -5.0786 O   0  0  0  1  0  0  0  0  0  0  0  0
   -0.6474   -0.3352    1.0867 N   0  0  0  1  0  0  0  0  0  0  0  0
    5.1327   -4.5034   -5.8157 C   0  0  0  1  0  0  0  0  0  0  0  0
   -3.6017    1.2957    2.4865 N   0  0  0  1  0  0  0  0  0  0  0  0
   -2.4578    1.2922    1.5599 C   0  0  0  1  0  0  0  0  0  0  0  0
   -5.5085    2.6848    2.0187 C   0  0  0  1  0  0  0  0  0  0  0  0
   -6.2596    3.8001    2.3373 C   0  0  0  1  0  0  0  0  0  0  0  0
   -5.9521    4.6321    3.3370 N   0  0  0  1  0  0  0  0  0  0  0  0
   -4.8542    4.3519    4.0534 C   0  0  0  1  0  0  0  0  0  0  0  0
   -4.0473    3.2551    3.8058 C   0  0  0  1  0  0  0  0  0  0  0  0
    2.3440    2.8031    1.4934 H   0  0  0  1  0  0  0  0  0  0  0  0
    5.5543   -0.8461   -2.8402 H   0  0  0  1  0  0  0  0  0  0  0  0
    1.8048   -3.7859   -3.7375 H   0  0  0  1  0  0  0  0  0  0  0  0
    1.5953   -2.0251   -2.0875 H   0  0  0  1  0  0  0  0  0  0  0  0
    5.7640   -2.6099   -4.4929 H   0  0  0  1  0  0  0  0  0  0  0  0
   -0.9276    0.5670    2.9306 H   0  0  0  1  0  0  0  0  0  0  0  0
   -2.8454   -1.4735    1.7695 H   0  0  0  1  0  0  0  0  0  0  0  0
   -2.1719   -1.4287    3.3815 H   0  0  0  1  0  0  0  0  0  0  0  0
   -3.8317   -0.0083    4.1483 H   0  0  0  1  0  0  0  0  0  0  0  0
   -4.7135   -0.4997    2.7217 H   0  0  0  1  0  0  0  0  0  0  0  0
   -0.9341   -1.1471    0.6187 H   0  0  0  1  0  0  0  0  0  0  0  0
    5.3004   -5.5333   -6.0525 H   0  0  0  1  0  0  0  0  0  0  0  0
    5.9450   -4.1370   -5.2233 H   0  0  0  1  0  0  0  0  0  0  0  0
    5.0660   -3.9360   -6.7204 H   0  0  0  1  0  0  0  0  0  0  0  0
   -2.7750    1.0476    0.5677 H   0  0  0  1  0  0  0  0  0  0  0  0
   -1.9717    2.2453    1.5548 H   0  0  0  1  0  0  0  0  0  0  0  0
   -5.7859    2.0670    1.2294 H   0  0  0  1  0  0  0  0  0  0  0  0
   -7.1076    4.0023    1.7702 H   0  0  0  1  0  0  0  0  0  0  0  0
   -4.5962    4.9898    4.8332 H   0  0  0  1  0  0  0  0  0  0  0  0
   -3.2057    3.0738    4.3893 H   0  0  0  1  0  0  0  0  0  0  0  0
  1  3  4  0  0  0  0
  1 14  4  0  0  0  0
  1 21  1  0  0  0  0
  2 14  4  0  0  0  0
  2 15  4  0  0  0  0
  2 30  1  0  0  0  0
  3 16  4  0  0  0  0
  4  5  4  0  0  0  0
  4  7  4  0  0  0  0
  4 17  1  0  0  0  0
  5  9  4  0  0  0  0
  5 31  1  0  0  0  0
  6  7  4  0  0  0  0
  6  8  4  0  0  0  0
  6 32  1  0  0  0  0
  7 33  1  0  0  0  0
  8  9  4  0  0  0  0
  8 20  1  0  0  0  0
  9 34  1  0  0  0  0
 10 11  1  0  0  0  0
 10 21  1  0  0  0  0
 10 24  1  0  0  0  0
 10 35  1  0  0  0  0
 11 12  1  0  0  0  0
 11 36  1  0  0  0  0
 11 37  1  0  0  0  0
 12 23  1  0  0  0  0
 12 38  1  0  0  0  0
 12 39  1  0  0  0  0
 13 23  1  0  0  0  0
 13 25  4  0  0  0  0
 13 29  4  0  0  0  0
 15 16  4  0  0  0  0
 15 18  4  0  0  0  0
 16 17  4  0  0  0  0
 17 19  4  0  0  0  0
 18 19  4  0  0  0  0
 20 22  1  0  0  0  0
 21 40  1  0  0  0  0
 22 41  1  0  0  0  0
 22 42  1  0  0  0  0
 22 43  1  0  0  0  0
 23 24  1  0  0  0  0
 24 44  1  0  0  0  0
 24 45  1  0  0  0  0
 25 26  4  0  0  0  0
 25 46  1  0  0  0  0
 26 27  4  0  0  0  0
 26 47  1  0  0  0  0
 27 28  4  0  0  0  0
 28 29  4  0  0  0  0
 28 48  1  0  0  0  0
 29 49  1  0  0  0  0
M  END
> <ConfClashScore>
0 

> <ConfOneFourInteractionScore>
-0.986948 

> <ConfScore>
-0.0120245 

> <ConfScorePBest>
0.0043796 

> <ConfTolerance>
0.378764 

> <HETNAM>
     OWQ A 303  OWQ                                                       

> <pdb_OW>
Q_303 -16.5129 3.80749 7.62812 0.15963 1.39178 -0.28144 -3.20151 0 0 0 -1.30514 0 0 0 0 0 0 0 0 -8.31393

$$$$
6yky_lig_1.pdb
 OpenBabel04162415593D

 49 53  0  0  0  0  0  0  0  0999 V2000
    1.1380   -2.4286   -1.9889 C   0  0  0  1  0  0  0  0  0  0  0  0
    3.1034   -2.5135   -3.1887 C   0  0  0  1  0  0  0  0  0  0  0  0
    1.5496   -1.4210   -1.2498 N   0  0  0  1  0  0  0  0  0  0  0  0
    3.0996    0.9946    0.2024 C   0  0  0  1  0  0  0  0  0  0  0  0
    3.9254    2.0485    0.5453 C   0  0  0  1  0  0  0  0  0  0  0  0
    1.6457    1.5363    2.0300 C   0  0  0  1  0  0  0  0  0  0  0  0
    1.9595    0.7364    0.9474 C   0  0  0  1  0  0  0  0  0  0  0  0
    2.4739    2.5934    2.3740 C   0  0  0  1  0  0  0  0  0  0  0  0
    3.6106    2.8506    1.6310 C   0  0  0  1  0  0  0  0  0  0  0  0
   -0.9824   -2.4060   -0.7416 C   0  0  0  1  0  0  0  0  0  0  0  0
   -2.0468   -3.4450   -0.2926 C   0  0  0  1  0  0  0  0  0  0  0  0
   -3.2795   -2.6610    0.2044 C   0  0  0  1  0  0  0  0  0  0  0  0
   -3.8345   -0.1880   -0.0768 C   0  0  0  1  0  0  0  0  0  0  0  0
    1.8888   -2.9657   -2.9346 N   0  0  0  1  0  0  0  0  0  0  0  0
    3.5920   -1.4423   -2.4321 C   0  0  0  1  0  0  0  0  0  0  0  0
    2.7567   -0.9005   -1.4337 C   0  0  0  1  0  0  0  0  0  0  0  0
    3.4677    0.1151   -0.8566 N   0  0  0  1  0  0  0  0  0  0  0  0
    4.7504   -0.7475   -2.4193 N   0  0  0  1  0  0  0  0  0  0  0  0
    4.7068    0.1654   -1.5124 N   0  0  0  1  0  0  0  0  0  0  0  0
    2.2264    3.4108    3.4249 O   0  0  0  1  0  0  0  0  0  0  0  0
   -0.1086   -2.9385   -1.7723 N   0  0  0  1  0  0  0  0  0  0  0  0
    2.9644    4.6413    3.4871 C   0  0  0  1  0  0  0  0  0  0  0  0
   -3.0592   -1.3035   -0.3698 N   0  0  0  1  0  0  0  0  0  0  0  0
   -1.9096   -1.3038   -1.2893 C   0  0  0  1  0  0  0  0  0  0  0  0
   -4.8111    0.1881   -0.9804 C   0  0  0  1  0  0  0  0  0  0  0  0
   -5.5266    1.3461   -0.7421 C   0  0  0  1  0  0  0  0  0  0  0  0
   -5.3228    2.1303    0.3208 N   0  0  0  1  0  0  0  0  0  0  0  0
   -4.3699    1.7560    1.1863 C   0  0  0  1  0  0  0  0  0  0  0  0
   -3.6093    0.6108    1.0273 C   0  0  0  1  0  0  0  0  0  0  0  0
    3.6847   -2.9446   -3.9356 H   0  0  0  1  0  0  0  0  0  0  0  0
    4.7829    2.2396   -0.0113 H   0  0  0  1  0  0  0  0  0  0  0  0
    0.7882    1.3451    2.5866 H   0  0  0  1  0  0  0  0  0  0  0  0
    1.3403   -0.0591    0.6918 H   0  0  0  1  0  0  0  0  0  0  0  0
    4.2298    3.6461    1.8866 H   0  0  0  1  0  0  0  0  0  0  0  0
   -0.3935   -2.0583    0.0813 H   0  0  0  1  0  0  0  0  0  0  0  0
   -1.6556   -4.0501    0.4985 H   0  0  0  1  0  0  0  0  0  0  0  0
   -2.3193   -4.0688   -1.1181 H   0  0  0  1  0  0  0  0  0  0  0  0
   -4.1859   -3.0934   -0.1649 H   0  0  0  1  0  0  0  0  0  0  0  0
   -3.3095   -2.6272    1.2734 H   0  0  0  1  0  0  0  0  0  0  0  0
   -0.4227   -3.6833   -2.3264 H   0  0  0  1  0  0  0  0  0  0  0  0
    3.1645    4.9883    2.4949 H   0  0  0  1  0  0  0  0  0  0  0  0
    3.8887    4.4769    4.0004 H   0  0  0  1  0  0  0  0  0  0  0  0
    2.3898    5.3753    4.0124 H   0  0  0  1  0  0  0  0  0  0  0  0
   -2.2224   -1.5330   -2.2865 H   0  0  0  1  0  0  0  0  0  0  0  0
   -1.4163   -0.3543   -1.2790 H   0  0  0  1  0  0  0  0  0  0  0  0
   -5.0036   -0.3896   -1.8235 H   0  0  0  1  0  0  0  0  0  0  0  0
   -6.2613    1.6214   -1.4247 H   0  0  0  1  0  0  0  0  0  0  0  0
   -4.1937    2.3554    2.0178 H   0  0  0  1  0  0  0  0  0  0  0  0
   -2.8819    0.3565    1.7258 H   0  0  0  1  0  0  0  0  0  0  0  0
  1  3  4  0  0  0  0
  1 14  4  0  0  0  0
  1 21  1  0  0  0  0
  2 14  4  0  0  0  0
  2 15  4  0  0  0  0
  2 30  1  0  0  0  0
  3 16  4  0  0  0  0
  4  5  4  0  0  0  0
  4  7  4  0  0  0  0
  4 17  1  0  0  0  0
  5  9  4  0  0  0  0
  5 31  1  0  0  0  0
  6  7  4  0  0  0  0
  6  8  4  0  0  0  0
  6 32  1  0  0  0  0
  7 33  1  0  0  0  0
  8  9  4  0  0  0  0
  8 20  1  0  0  0  0
  9 34  1  0  0  0  0
 10 11  1  0  0  0  0
 10 21  1  0  0  0  0
 10 24  1  0  0  0  0
 10 35  1  0  0  0  0
 11 12  1  0  0  0  0
 11 36  1  0  0  0  0
 11 37  1  0  0  0  0
 12 23  1  0  0  0  0
 12 38  1  0  0  0  0
 12 39  1  0  0  0  0
 13 23  1  0  0  0  0
 13 25  4  0  0  0  0
 13 29  4  0  0  0  0
 15 16  4  0  0  0  0
 15 18  4  0  0  0  0
 16 17  4  0  0  0  0
 17 19  4  0  0  0  0
 18 19  4  0  0  0  0
 20 22  1  0  0  0  0
 21 40  1  0  0  0  0
 22 41  1  0  0  0  0
 22 42  1  0  0  0  0
 22 43  1  0  0  0  0
 23 24  1  0  0  0  0
 24 44  1  0  0  0  0
 24 45  1  0  0  0  0
 25 26  4  0  0  0  0
 25 46  1  0  0  0  0
 26 27  4  0  0  0  0
 26 47  1  0  0  0  0
 27 28  4  0  0  0  0
 28 29  4  0  0  0  0
 28 48  1  0  0  0  0
 29 49  1  0  0  0  0
M  END
> <ConfClashScore>
0 

> <ConfOneFourInteractionScore>
-0.986948 

> <ConfScore>
-0.0120245 

> <ConfScorePBest>
0.00436627 

> <ConfTolerance>
0.411833 

> <HETNAM>
     OWQ A 303  OWQ                                                       

> <pdb_OW>
Q_303 -16.5129 3.80749 7.62812 0.15963 1.39178 -0.28144 -3.20151 0 0 0 -1.30514 0 0 0 0 0 0 0 0 -8.31393

$$$$
6yky_lig_1.pdb
 OpenBabel04162415593D

 49 53  0  0  0  0  0  0  0  0999 V2000
   -0.5040   -1.7223   -1.8975 C   0  0  0  1  0  0  0  0  0  0  0  0
    0.2771   -1.8969   -4.0582 C   0  0  0  1  0  0  0  0  0  0  0  0
    0.5792   -1.1029   -1.4803 N   0  0  0  1  0  0  0  0  0  0  0  0
    3.4649    0.3594   -1.1096 C   0  0  0  1  0  0  0  0  0  0  0  0
    3.3205    1.7112   -0.8606 C   0  0  0  1  0  0  0  0  0  0  0  0
    5.0537    0.1975    0.6783 C   0  0  0  1  0  0  0  0  0  0  0  0
    4.3347   -0.3981   -0.3408 C   0  0  0  1  0  0  0  0  0  0  0  0
    4.9090    1.5533    0.9282 C   0  0  0  1  0  0  0  0  0  0  0  0
    4.0417    2.3084    0.1615 C   0  0  0  1  0  0  0  0  0  0  0  0
   -1.3706   -1.4507    0.3673 C   0  0  0  1  0  0  0  0  0  0  0  0
   -2.1663   -2.2768    1.3349 C   0  0  0  1  0  0  0  0  0  0  0  0
   -3.5933   -1.6896    1.1488 C   0  0  0  1  0  0  0  0  0  0  0  0
   -4.2884    0.7043    0.8911 C   0  0  0  1  0  0  0  0  0  0  0  0
   -0.6581   -2.1118   -3.1509 N   0  0  0  1  0  0  0  0  0  0  0  0
    1.4509   -1.2416   -3.6691 C   0  0  0  1  0  0  0  0  0  0  0  0
    1.5725   -0.8438   -2.3218 C   0  0  0  1  0  0  0  0  0  0  0  0
    2.7938   -0.2379   -2.2156 N   0  0  0  1  0  0  0  0  0  0  0  0
    2.5797   -0.8682   -4.3105 N   0  0  0  1  0  0  0  0  0  0  0  0
    3.3796   -0.2817   -3.4896 N   0  0  0  1  0  0  0  0  0  0  0  0
    5.6458    2.0761    1.9370 O   0  0  0  1  0  0  0  0  0  0  0  0
   -1.5189   -1.9756   -0.9926 N   0  0  0  1  0  0  0  0  0  0  0  0
    6.2617    1.1516    2.8472 C   0  0  0  1  0  0  0  0  0  0  0  0
   -3.3083   -0.3140    0.8343 N   0  0  0  1  0  0  0  0  0  0  0  0
   -1.9312   -0.0596    0.4541 C   0  0  0  1  0  0  0  0  0  0  0  0
   -4.6385    1.2790    2.0989 C   0  0  0  1  0  0  0  0  0  0  0  0
   -5.5980    2.2734    2.1084 C   0  0  0  1  0  0  0  0  0  0  0  0
   -6.2133    2.7116    1.0058 N   0  0  0  1  0  0  0  0  0  0  0  0
   -5.8673    2.1425   -0.1577 C   0  0  0  1  0  0  0  0  0  0  0  0
   -4.9145    1.1439   -0.2590 C   0  0  0  1  0  0  0  0  0  0  0  0
    0.1441   -2.2082   -5.0416 H   0  0  0  1  0  0  0  0  0  0  0  0
    2.6709    2.2803   -1.4401 H   0  0  0  1  0  0  0  0  0  0  0  0
    5.7033   -0.3716    1.2578 H   0  0  0  1  0  0  0  0  0  0  0  0
    4.4463   -1.4145   -0.5308 H   0  0  0  1  0  0  0  0  0  0  0  0
    3.9301    3.3248    0.3515 H   0  0  0  1  0  0  0  0  0  0  0  0
   -0.3359   -1.4524    0.6400 H   0  0  0  1  0  0  0  0  0  0  0  0
   -2.1352   -3.3153    1.0788 H   0  0  0  1  0  0  0  0  0  0  0  0
   -1.8182   -2.1457    2.3381 H   0  0  0  1  0  0  0  0  0  0  0  0
   -4.1685   -1.7724    2.0472 H   0  0  0  1  0  0  0  0  0  0  0  0
   -4.1116   -2.1729    0.3471 H   0  0  0  1  0  0  0  0  0  0  0  0
   -2.3117   -2.4896   -1.2527 H   0  0  0  1  0  0  0  0  0  0  0  0
    6.9333    1.6789    3.4920 H   0  0  0  1  0  0  0  0  0  0  0  0
    6.8045    0.4143    2.2933 H   0  0  0  1  0  0  0  0  0  0  0  0
    5.5062    0.6726    3.4343 H   0  0  0  1  0  0  0  0  0  0  0  0
   -1.8745    0.4421   -0.4893 H   0  0  0  1  0  0  0  0  0  0  0  0
   -1.4231    0.5188    1.1972 H   0  0  0  1  0  0  0  0  0  0  0  0
   -4.1882    0.9688    2.9835 H   0  0  0  1  0  0  0  0  0  0  0  0
   -5.8545    2.7029    3.0202 H   0  0  0  1  0  0  0  0  0  0  0  0
   -6.3378    2.4673   -1.0265 H   0  0  0  1  0  0  0  0  0  0  0  0
   -4.6744    0.7323   -1.1834 H   0  0  0  1  0  0  0  0  0  0  0  0
  1  3  4  0  0  0  0
  1 14  4  0  0  0  0
  1 21  1  0  0  0  0
  2 14  4  0  0  0  0
  2 15  4  0  0  0  0
  2 30  1  0  0  0  0
  3 16  4  0  0  0  0
  4  5  4  0  0  0  0
  4  7  4  0  0  0  0
  4 17  1  0  0  0  0
  5  9  4  0  0  0  0
  5 31  1  0  0  0  0
  6  7  4  0  0  0  0
  6  8  4  0  0  0  0
  6 32  1  0  0  0  0
  7 33  1  0  0  0  0
  8  9  4  0  0  0  0
  8 20  1  0  0  0  0
  9 34  1  0  0  0  0
 10 11  1  0  0  0  0
 10 21  1  0  0  0  0
 10 24  1  0  0  0  0
 10 35  1  0  0  0  0
 11 12  1  0  0  0  0
 11 36  1  0  0  0  0
 11 37  1  0  0  0  0
 12 23  1  0  0  0  0
 12 38  1  0  0  0  0
 12 39  1  0  0  0  0
 13 23  1  0  0  0  0
 13 25  4  0  0  0  0
 13 29  4  0  0  0  0
 15 16  4  0  0  0  0
 15 18  4  0  0  0  0
 16 17  4  0  0  0  0
 17 19  4  0  0  0  0
 18 19  4  0  0  0  0
 20 22  1  0  0  0  0
 21 40  1  0  0  0  0
 22 41  1  0  0  0  0
 22 42  1  0  0  0  0
 22 43  1  0  0  0  0
 23 24  1  0  0  0  0
 24 44  1  0  0  0  0
 24 45  1  0  0  0  0
 25 26  4  0  0  0  0
 25 46  1  0  0  0  0
 26 27  4  0  0  0  0
 26 47  1  0  0  0  0
 27 28  4  0  0  0  0
 28 29  4  0  0  0  0
 28 48  1  0  0  0  0
 29 49  1  0  0  0  0
M  END
> <ConfClashScore>
0 

> <ConfOneFourInteractionScore>
-0.991755 

> <ConfScore>
-0.0108404 

> <ConfScorePBest>
0.00435294 

> <ConfTolerance>
0.684985 

> <HETNAM>
     OWQ A 303  OWQ                                                       

> <pdb_OW>
Q_303 -16.5129 3.80749 7.62812 0.15963 1.39178 -0.28144 -3.20151 0 0 0 -1.30514 0 0 0 0 0 0 0 0 -8.31393

$$$$
6yky_lig_1.pdb
 OpenBabel04162415593D

 49 53  0  0  0  0  0  0  0  0999 V2000
   -0.8186   -0.8054   -1.8393 C   0  0  0  1  0  0  0  0  0  0  0  0
   -0.6584   -2.4400   -3.4554 C   0  0  0  1  0  0  0  0  0  0  0  0
    0.3323   -1.1332   -1.2926 N   0  0  0  1  0  0  0  0  0  0  0  0
    3.2165   -2.3318   -0.4909 C   0  0  0  1  0  0  0  0  0  0  0  0
    4.5654   -2.4701   -0.7584 C   0  0  0  1  0  0  0  0  0  0  0  0
    3.7288   -1.6372    1.7456 C   0  0  0  1  0  0  0  0  0  0  0  0
    2.7974   -1.9174    0.7637 C   0  0  0  1  0  0  0  0  0  0  0  0
    5.0818   -1.7758    1.4776 C   0  0  0  1  0  0  0  0  0  0  0  0
    5.4995   -2.1891    0.2266 C   0  0  0  1  0  0  0  0  0  0  0  0
   -1.2861    0.8391   -0.0207 C   0  0  0  1  0  0  0  0  0  0  0  0
   -1.9949    0.0871    1.0674 C   0  0  0  1  0  0  0  0  0  0  0  0
   -3.4422    0.6388    0.9380 C   0  0  0  1  0  0  0  0  0  0  0  0
   -4.1982    2.9939    0.5346 C   0  0  0  1  0  0  0  0  0  0  0  0
   -1.3073   -1.4370   -2.8923 N   0  0  0  1  0  0  0  0  0  0  0  0
    0.5716   -2.8309   -2.9143 C   0  0  0  1  0  0  0  0  0  0  0  0
    1.0547   -2.1291   -1.7909 C   0  0  0  1  0  0  0  0  0  0  0  0
    2.2528   -2.7057   -1.4717 N   0  0  0  1  0  0  0  0  0  0  0  0
    1.4778   -3.7841   -3.2233 N   0  0  0  1  0  0  0  0  0  0  0  0
    2.4669   -3.7350   -2.4006 N   0  0  0  1  0  0  0  0  0  0  0  0
    5.9858   -1.5980    2.4700 O   0  0  0  1  0  0  0  0  0  0  0  0
   -1.5205    0.2036   -1.3113 N   0  0  0  1  0  0  0  0  0  0  0  0
    7.3749   -1.6851    2.1157 C   0  0  0  1  0  0  0  0  0  0  0  0
   -3.2060    1.9868    0.4908 N   0  0  0  1  0  0  0  0  0  0  0  0
   -1.8646    2.2255   -0.0086 C   0  0  0  1  0  0  0  0  0  0  0  0
   -5.4944    2.6905    0.9079 C   0  0  0  1  0  0  0  0  0  0  0  0
   -6.4315    3.7057    0.9409 C   0  0  0  1  0  0  0  0  0  0  0  0
   -6.1520    4.9742    0.6264 N   0  0  0  1  0  0  0  0  0  0  0  0
   -4.8924    5.2533    0.2621 C   0  0  0  1  0  0  0  0  0  0  0  0
   -3.8911    4.2997    0.2052 C   0  0  0  1  0  0  0  0  0  0  0  0
   -1.0534   -2.9293   -4.2838 H   0  0  0  1  0  0  0  0  0  0  0  0
    4.8796   -2.7849   -1.6985 H   0  0  0  1  0  0  0  0  0  0  0  0
    3.4146   -1.3224    2.6857 H   0  0  0  1  0  0  0  0  0  0  0  0
    1.7822   -1.8172    0.9660 H   0  0  0  1  0  0  0  0  0  0  0  0
    6.5146   -2.2893    0.0241 H   0  0  0  1  0  0  0  0  0  0  0  0
   -0.2347    0.8731    0.1750 H   0  0  0  1  0  0  0  0  0  0  0  0
   -1.9631   -0.9687    0.8965 H   0  0  0  1  0  0  0  0  0  0  0  0
   -1.5783    0.3062    2.0283 H   0  0  0  1  0  0  0  0  0  0  0  0
   -3.9499    0.6245    1.8798 H   0  0  0  1  0  0  0  0  0  0  0  0
   -4.0076    0.0837    0.2190 H   0  0  0  1  0  0  0  0  0  0  0  0
   -2.2661    0.5496   -1.8450 H   0  0  0  1  0  0  0  0  0  0  0  0
    7.6187   -0.9000    1.4308 H   0  0  0  1  0  0  0  0  0  0  0  0
    7.5666   -2.6319    1.6556 H   0  0  0  1  0  0  0  0  0  0  0  0
    7.9742   -1.5883    2.9968 H   0  0  0  1  0  0  0  0  0  0  0  0
   -1.3154    2.8704    0.6451 H   0  0  0  1  0  0  0  0  0  0  0  0
   -1.8850    2.6470   -0.9918 H   0  0  0  1  0  0  0  0  0  0  0  0
   -5.7593    1.7167    1.1591 H   0  0  0  1  0  0  0  0  0  0  0  0
   -7.4039    3.4705    1.2250 H   0  0  0  1  0  0  0  0  0  0  0  0
   -4.6562    6.2343    0.0099 H   0  0  0  1  0  0  0  0  0  0  0  0
   -2.9258    4.5612   -0.0800 H   0  0  0  1  0  0  0  0  0  0  0  0
  1  3  4  0  0  0  0
  1 14  4  0  0  0  0
  1 21  1  0  0  0  0
  2 14  4  0  0  0  0
  2 15  4  0  0  0  0
  2 30  1  0  0  0  0
  3 16  4  0  0  0  0
  4  5  4  0  0  0  0
  4  7  4  0  0  0  0
  4 17  1  0  0  0  0
  5  9  4  0  0  0  0
  5 31  1  0  0  0  0
  6  7  4  0  0  0  0
  6  8  4  0  0  0  0
  6 32  1  0  0  0  0
  7 33  1  0  0  0  0
  8  9  4  0  0  0  0
  8 20  1  0  0  0  0
  9 34  1  0  0  0  0
 10 11  1  0  0  0  0
 10 21  1  0  0  0  0
 10 24  1  0  0  0  0
 10 35  1  0  0  0  0
 11 12  1  0  0  0  0
 11 36  1  0  0  0  0
 11 37  1  0  0  0  0
 12 23  1  0  0  0  0
 12 38  1  0  0  0  0
 12 39  1  0  0  0  0
 13 23  1  0  0  0  0
 13 25  4  0  0  0  0
 13 29  4  0  0  0  0
 15 16  4  0  0  0  0
 15 18  4  0  0  0  0
 16 17  4  0  0  0  0
 17 19  4  0  0  0  0
 18 19  4  0  0  0  0
 20 22  1  0  0  0  0
 21 40  1  0  0  0  0
 22 41  1  0  0  0  0
 22 42  1  0  0  0  0
 22 43  1  0  0  0  0
 23 24  1  0  0  0  0
 24 44  1  0  0  0  0
 24 45  1  0  0  0  0
 25 26  4  0  0  0  0
 25 46  1  0  0  0  0
 26 27  4  0  0  0  0
 26 47  1  0  0  0  0
 27 28  4  0  0  0  0
 28 29  4  0  0  0  0
 28 48  1  0  0  0  0
 29 49  1  0  0  0  0
M  END
> <ConfClashScore>
0 

> <ConfOneFourInteractionScore>
-0.986948 

> <ConfScore>
-0.00900503 

> <ConfScorePBest>
0.00433961 

> <ConfTolerance>
0.552705 

> <HETNAM>
     OWQ A 303  OWQ                                                       

> <pdb_OW>
Q_303 -16.5129 3.80749 7.62812 0.15963 1.39178 -0.28144 -3.20151 0 0 0 -1.30514 0 0 0 0 0 0 0 0 -8.31393

$$$$
6yky_lig_1.pdb
 OpenBabel04162415593D

 49 53  0  0  0  0  0  0  0  0999 V2000
    1.7245   -0.5886    0.8974 C   0  0  0  1  0  0  0  0  0  0  0  0
    3.5800   -1.9542    0.8547 C   0  0  0  1  0  0  0  0  0  0  0  0
    1.3784   -0.9006   -0.3329 N   0  0  0  1  0  0  0  0  0  0  0  0
    1.1153   -2.1052   -3.3835 C   0  0  0  1  0  0  0  0  0  0  0  0
    0.1305   -1.1381   -3.3117 C   0  0  0  1  0  0  0  0  0  0  0  0
    0.2181   -2.8670   -5.4720 C   0  0  0  1  0  0  0  0  0  0  0  0
    1.1576   -2.9727   -4.4638 C   0  0  0  1  0  0  0  0  0  0  0  0
   -0.7697   -1.8971   -5.4002 C   0  0  0  1  0  0  0  0  0  0  0  0
   -0.8117   -1.0322   -4.3229 C   0  0  0  1  0  0  0  0  0  0  0  0
    1.2209    0.7826    2.9364 C   0  0  0  1  0  0  0  0  0  0  0  0
    0.4777   -0.0375    3.9497 C   0  0  0  1  0  0  0  0  0  0  0  0
   -0.9445    0.5850    3.8745 C   0  0  0  1  0  0  0  0  0  0  0  0
   -1.6053    3.0051    3.6964 C   0  0  0  1  0  0  0  0  0  0  0  0
    2.7949   -1.0974    1.4822 N   0  0  0  1  0  0  0  0  0  0  0  0
    3.2587   -2.3215   -0.4569 C   0  0  0  1  0  0  0  0  0  0  0  0
    2.1078   -1.7540   -1.0412 C   0  0  0  1  0  0  0  0  0  0  0  0
    2.0293   -2.2742   -2.3035 N   0  0  0  1  0  0  0  0  0  0  0  0
    3.8186   -3.1450   -1.3698 N   0  0  0  1  0  0  0  0  0  0  0  0
    3.1247   -3.1376   -2.4543 N   0  0  0  1  0  0  0  0  0  0  0  0
   -1.7431   -1.7018   -6.3212 O   0  0  0  1  0  0  0  0  0  0  0  0
    0.9622    0.2797    1.5863 N   0  0  0  1  0  0  0  0  0  0  0  0
   -1.8201   -2.6420   -7.4040 C   0  0  0  1  0  0  0  0  0  0  0  0
   -0.6499    1.9577    3.5559 N   0  0  0  1  0  0  0  0  0  0  0  0
    0.7018    2.1851    3.0796 C   0  0  0  1  0  0  0  0  0  0  0  0
   -2.9064    2.7264    4.0722 C   0  0  0  1  0  0  0  0  0  0  0  0
   -3.7997    3.7729    4.2005 C   0  0  0  1  0  0  0  0  0  0  0  0
   -3.4733    5.0494    3.9765 N   0  0  0  1  0  0  0  0  0  0  0  0
   -2.2097    5.3047    3.6085 C   0  0  0  1  0  0  0  0  0  0  0  0
   -1.2500    4.3187    3.4598 C   0  0  0  1  0  0  0  0  0  0  0  0
    4.4196   -2.3477    1.3256 H   0  0  0  1  0  0  0  0  0  0  0  0
    0.0965   -0.4898   -2.4992 H   0  0  0  1  0  0  0  0  0  0  0  0
    0.2522   -3.5153   -6.2845 H   0  0  0  1  0  0  0  0  0  0  0  0
    1.8963   -3.7030   -4.5157 H   0  0  0  1  0  0  0  0  0  0  0  0
   -1.5503   -0.3019   -4.2709 H   0  0  0  1  0  0  0  0  0  0  0  0
    2.2722    0.7533    3.1331 H   0  0  0  1  0  0  0  0  0  0  0  0
    0.4651   -1.0729    3.6802 H   0  0  0  1  0  0  0  0  0  0  0  0
    0.9005    0.0723    4.9264 H   0  0  0  1  0  0  0  0  0  0  0  0
   -1.5310    0.1245    3.1072 H   0  0  0  1  0  0  0  0  0  0  0  0
   -1.4550    0.5038    4.8114 H   0  0  0  1  0  0  0  0  0  0  0  0
    0.1538    0.6081    1.1402 H   0  0  0  1  0  0  0  0  0  0  0  0
   -1.1138   -2.3730   -8.1615 H   0  0  0  1  0  0  0  0  0  0  0  0
   -2.8072   -2.6302   -7.8168 H   0  0  0  1  0  0  0  0  0  0  0  0
   -1.5966   -3.6233   -7.0406 H   0  0  0  1  0  0  0  0  0  0  0  0
    0.7021    2.6976    2.1403 H   0  0  0  1  0  0  0  0  0  0  0  0
    1.2761    2.7417    3.7904 H   0  0  0  1  0  0  0  0  0  0  0  0
   -3.2070    1.7478    4.2549 H   0  0  0  1  0  0  0  0  0  0  0  0
   -4.7760    3.5560    4.4859 H   0  0  0  1  0  0  0  0  0  0  0  0
   -1.9374    6.2916    3.4259 H   0  0  0  1  0  0  0  0  0  0  0  0
   -0.2797    4.5622    3.1754 H   0  0  0  1  0  0  0  0  0  0  0  0
  1  3  4  0  0  0  0
  1 14  4  0  0  0  0
  1 21  1  0  0  0  0
  2 14  4  0  0  0  0
  2 15  4  0  0  0  0
  2 30  1  0  0  0  0
  3 16  4  0  0  0  0
  4  5  4  0  0  0  0
  4  7  4  0  0  0  0
  4 17  1  0  0  0  0
  5  9  4  0  0  0  0
  5 31  1  0  0  0  0
  6  7  4  0  0  0  0
  6  8  4  0  0  0  0
  6 32  1  0  0  0  0
  7 33  1  0  0  0  0
  8  9  4  0  0  0  0
  8 20  1  0  0  0  0
  9 34  1  0  0  0  0
 10 11  1  0  0  0  0
 10 21  1  0  0  0  0
 10 24  1  0  0  0  0
 10 35  1  0  0  0  0
 11 12  1  0  0  0  0
 11 36  1  0  0  0  0
 11 37  1  0  0  0  0
 12 23  1  0  0  0  0
 12 38  1  0  0  0  0
 12 39  1  0  0  0  0
 13 23  1  0  0  0  0
 13 25  4  0  0  0  0
 13 29  4  0  0  0  0
 15 16  4  0  0  0  0
 15 18  4  0  0  0  0
 16 17  4  0  0  0  0
 17 19  4  0  0  0  0
 18 19  4  0  0  0  0
 20 22  1  0  0  0  0
 21 40  1  0  0  0  0
 22 41  1  0  0  0  0
 22 42  1  0  0  0  0
 22 43  1  0  0  0  0
 23 24  1  0  0  0  0
 24 44  1  0  0  0  0
 24 45  1  0  0  0  0
 25 26  4  0  0  0  0
 25 46  1  0  0  0  0
 26 27  4  0  0  0  0
 26 47  1  0  0  0  0
 27 28  4  0  0  0  0
 28 29  4  0  0  0  0
 28 48  1  0  0  0  0
 29 49  1  0  0  0  0
M  END
> <ConfClashScore>
0 

> <ConfOneFourInteractionScore>
-0.986948 

> <ConfScore>
-0.00824947 

> <ConfScorePBest>
0.00432628 

> <ConfTolerance>
0.549099 

> <HETNAM>
     OWQ A 303  OWQ                                                       

> <pdb_OW>
Q_303 -16.5129 3.80749 7.62812 0.15963 1.39178 -0.28144 -3.20151 0 0 0 -1.30514 0 0 0 0 0 0 0 0 -8.31393

$$$$
6yky_lig_1.pdb
 OpenBabel04162415593D

 49 53  0  0  0  0  0  0  0  0999 V2000
    0.6314   -0.3342    1.0431 C   0  0  0  1  0  0  0  0  0  0  0  0
    2.2178   -0.9856    2.5821 C   0  0  0  1  0  0  0  0  0  0  0  0
    1.3226   -0.8023    0.0263 N   0  0  0  1  0  0  0  0  0  0  0  0
    3.4546   -2.2286   -1.9861 C   0  0  0  1  0  0  0  0  0  0  0  0
    2.4882   -3.0422   -2.5467 C   0  0  0  1  0  0  0  0  0  0  0  0
    4.5608   -2.0770   -4.1076 C   0  0  0  1  0  0  0  0  0  0  0  0
    4.4940   -1.7475   -2.7670 C   0  0  0  1  0  0  0  0  0  0  0  0
    3.5915   -2.8930   -4.6700 C   0  0  0  1  0  0  0  0  0  0  0  0
    2.5553   -3.3726   -3.8912 C   0  0  0  1  0  0  0  0  0  0  0  0
   -1.4077    0.8148    1.8439 C   0  0  0  1  0  0  0  0  0  0  0  0
   -2.4647   -0.2095    2.3419 C   0  0  0  1  0  0  0  0  0  0  0  0
   -3.6828    0.5904    2.8491 C   0  0  0  1  0  0  0  0  0  0  0  0
   -4.2320    3.0520    2.5217 C   0  0  0  1  0  0  0  0  0  0  0  0
    1.0608   -0.4199    2.2901 N   0  0  0  1  0  0  0  0  0  0  0  0
    2.9947   -1.5008    1.5382 C   0  0  0  1  0  0  0  0  0  0  0  0
    2.4975   -1.3875    0.2236 C   0  0  0  1  0  0  0  0  0  0  0  0
    3.4379   -1.9612   -0.5866 N   0  0  0  1  0  0  0  0  0  0  0  0
    4.1908   -2.1253    1.4720 N   0  0  0  1  0  0  0  0  0  0  0  0
    4.4747   -2.4052    0.2478 N   0  0  0  1  0  0  0  0  0  0  0  0
    3.5553   -3.2842   -5.9586 O   0  0  0  1  0  0  0  0  0  0  0  0
   -0.5600    0.2551    0.8057 N   0  0  0  1  0  0  0  0  0  0  0  0
    4.5835   -2.7134   -6.8009 C   0  0  0  1  0  0  0  0  0  0  0  0
   -3.4717    1.9334    2.2384 N   0  0  0  1  0  0  0  0  0  0  0  0
   -2.3440    1.9074    1.2925 C   0  0  0  1  0  0  0  0  0  0  0  0
   -5.3358    3.3677    1.7512 C   0  0  0  1  0  0  0  0  0  0  0  0
   -6.0704    4.4934    2.0720 C   0  0  0  1  0  0  0  0  0  0  0  0
   -5.7684    5.3017    3.0926 N   0  0  0  1  0  0  0  0  0  0  0  0
   -4.6932    4.9861    3.8286 C   0  0  0  1  0  0  0  0  0  0  0  0
   -3.9042    3.8765    3.5803 C   0  0  0  1  0  0  0  0  0  0  0  0
    2.5450   -1.0469    3.5674 H   0  0  0  1  0  0  0  0  0  0  0  0
    1.7107   -3.4064   -1.9598 H   0  0  0  1  0  0  0  0  0  0  0  0
    5.3383   -1.7128   -4.6944 H   0  0  0  1  0  0  0  0  0  0  0  0
    5.2234   -1.1386   -2.3441 H   0  0  0  1  0  0  0  0  0  0  0  0
    1.8259   -3.9815   -4.3140 H   0  0  0  1  0  0  0  0  0  0  0  0
   -0.7986    1.1793    2.6445 H   0  0  0  1  0  0  0  0  0  0  0  0
   -2.0569   -0.7975    3.1374 H   0  0  0  1  0  0  0  0  0  0  0  0
   -2.7584   -0.8513    1.5377 H   0  0  0  1  0  0  0  0  0  0  0  0
   -3.6877    0.6493    3.9175 H   0  0  0  1  0  0  0  0  0  0  0  0
   -4.5990    0.1530    2.5113 H   0  0  0  1  0  0  0  0  0  0  0  0
   -0.8711    0.3084   -0.1221 H   0  0  0  1  0  0  0  0  0  0  0  0
    4.8509   -3.4148   -7.5633 H   0  0  0  1  0  0  0  0  0  0  0  0
    5.4446   -2.4862   -6.2078 H   0  0  0  1  0  0  0  0  0  0  0  0
    4.2156   -1.8168   -7.2545 H   0  0  0  1  0  0  0  0  0  0  0  0
   -1.8476    2.8550    1.2691 H   0  0  0  1  0  0  0  0  0  0  0  0
   -2.6808    1.6563    0.3085 H   0  0  0  1  0  0  0  0  0  0  0  0
   -5.6080    2.7694    0.9453 H   0  0  0  1  0  0  0  0  0  0  0  0
   -6.9007    4.7232    1.4895 H   0  0  0  1  0  0  0  0  0  0  0  0
   -4.4398    5.6051    4.6249 H   0  0  0  1  0  0  0  0  0  0  0  0
   -3.0801    3.6675    4.1793 H   0  0  0  1  0  0  0  0  0  0  0  0
  1  3  4  0  0  0  0
  1 14  4  0  0  0  0
  1 21  1  0  0  0  0
  2 14  4  0  0  0  0
  2 15  4  0  0  0  0
  2 30  1  0  0  0  0
  3 16  4  0  0  0  0
  4  5  4  0  0  0  0
  4  7  4  0  0  0  0
  4 17  1  0  0  0  0
  5  9  4  0  0  0  0
  5 31  1  0  0  0  0
  6  7  4  0  0  0  0
  6  8  4  0  0  0  0
  6 32  1  0  0  0  0
  7 33  1  0  0  0  0
  8  9  4  0  0  0  0
  8 20  1  0  0  0  0
  9 34  1  0  0  0  0
 10 11  1  0  0  0  0
 10 21  1  0  0  0  0
 10 24  1  0  0  0  0
 10 35  1  0  0  0  0
 11 12  1  0  0  0  0
 11 36  1  0  0  0  0
 11 37  1  0  0  0  0
 12 23  1  0  0  0  0
 12 38  1  0  0  0  0
 12 39  1  0  0  0  0
 13 23  1  0  0  0  0
 13 25  4  0  0  0  0
 13 29  4  0  0  0  0
 15 16  4  0  0  0  0
 15 18  4  0  0  0  0
 16 17  4  0  0  0  0
 17 19  4  0  0  0  0
 18 19  4  0  0  0  0
 20 22  1  0  0  0  0
 21 40  1  0  0  0  0
 22 41  1  0  0  0  0
 22 42  1  0  0  0  0
 22 43  1  0  0  0  0
 23 24  1  0  0  0  0
 24 44  1  0  0  0  0
 24 45  1  0  0  0  0
 25 26  4  0  0  0  0
 25 46  1  0  0  0  0
 26 27  4  0  0  0  0
 26 47  1  0  0  0  0
 27 28  4  0  0  0  0
 28 29  4  0  0  0  0
 28 48  1  0  0  0  0
 29 49  1  0  0  0  0
M  END
> <ConfClashScore>
0 

> <ConfOneFourInteractionScore>
-0.986948 

> <ConfScore>
-0.0079383 

> <ConfScorePBest>
0.00431295 

> <ConfTolerance>
0.408173 

> <HETNAM>
     OWQ A 303  OWQ                                                       

> <pdb_OW>
Q_303 -16.5129 3.80749 7.62812 0.15963 1.39178 -0.28144 -3.20151 0 0 0 -1.30514 0 0 0 0 0 0 0 0 -8.31393

$$$$
6yky_lig_1.pdb
 OpenBabel04162415593D

 49 53  0  0  0  0  0  0  0  0999 V2000
   -0.0553   -0.2287   -2.3315 C   0  0  0  1  0  0  0  0  0  0  0  0
    0.3762   -1.5730   -4.1525 C   0  0  0  1  0  0  0  0  0  0  0  0
    0.8348   -0.8399   -1.5797 N   0  0  0  1  0  0  0  0  0  0  0  0
    2.9916   -2.8576   -0.2361 C   0  0  0  1  0  0  0  0  0  0  0  0
    2.0929   -2.9975    0.8045 C   0  0  0  1  0  0  0  0  0  0  0  0
    4.8098   -2.8961    1.3259 C   0  0  0  1  0  0  0  0  0  0  0  0
    4.3519   -2.8041    0.0250 C   0  0  0  1  0  0  0  0  0  0  0  0
    3.9086   -3.0363    2.3698 C   0  0  0  1  0  0  0  0  0  0  0  0
    2.5523   -3.0897    2.1091 C   0  0  0  1  0  0  0  0  0  0  0  0
   -0.4790    1.3919   -0.5112 C   0  0  0  1  0  0  0  0  0  0  0  0
   -1.2089    0.6505    0.6032 C   0  0  0  1  0  0  0  0  0  0  0  0
   -2.6376    1.2069    0.5474 C   0  0  0  1  0  0  0  0  0  0  0  0
   -3.4799    3.4952   -0.1557 C   0  0  0  1  0  0  0  0  0  0  0  0
   -0.2840   -0.5801   -3.5848 N   0  0  0  1  0  0  0  0  0  0  0  0
    1.3353   -2.2584   -3.3983 C   0  0  0  1  0  0  0  0  0  0  0  0
    1.5464   -1.8497   -2.0654 C   0  0  0  1  0  0  0  0  0  0  0  0
    2.5184   -2.6726   -1.5673 N   0  0  0  1  0  0  0  0  0  0  0  0
    2.1704   -3.2905   -3.6479 N   0  0  0  1  0  0  0  0  0  0  0  0
    2.8713   -3.5537   -2.6005 N   0  0  0  1  0  0  0  0  0  0  0  0
    4.4728   -3.1107    3.5986 O   0  0  0  1  0  0  0  0  0  0  0  0
   -0.7613    0.7946   -1.8048 N   0  0  0  1  0  0  0  0  0  0  0  0
    3.6197   -3.4877    4.6906 C   0  0  0  1  0  0  0  0  0  0  0  0
   -2.4481    2.5546   -0.0186 N   0  0  0  1  0  0  0  0  0  0  0  0
   -1.0489    2.8042   -0.4257 C   0  0  0  1  0  0  0  0  0  0  0  0
   -4.1459    3.7827   -1.3328 C   0  0  0  1  0  0  0  0  0  0  0  0
   -5.1475    4.7345   -1.3144 C   0  0  0  1  0  0  0  0  0  0  0  0
   -5.5087    5.4000   -0.2131 N   0  0  0  1  0  0  0  0  0  0  0  0
   -4.8517    5.1145    0.9201 C   0  0  0  1  0  0  0  0  0  0  0  0
   -3.8392    4.1738    0.9925 C   0  0  0  1  0  0  0  0  0  0  0  0
    0.1872   -1.8402   -5.1397 H   0  0  0  1  0  0  0  0  0  0  0  0
    1.0721   -3.0336    0.6089 H   0  0  0  1  0  0  0  0  0  0  0  0
    5.8306   -2.8600    1.5215 H   0  0  0  1  0  0  0  0  0  0  0  0
    5.0278   -2.6949   -0.7578 H   0  0  0  1  0  0  0  0  0  0  0  0
    1.8763   -3.1990    2.8919 H   0  0  0  1  0  0  0  0  0  0  0  0
    0.5775    1.3942   -0.3417 H   0  0  0  1  0  0  0  0  0  0  0  0
   -1.2047   -0.4044    0.4240 H   0  0  0  1  0  0  0  0  0  0  0  0
   -0.7590    0.8532    1.5526 H   0  0  0  1  0  0  0  0  0  0  0  0
   -3.0685    1.2581    1.5255 H   0  0  0  1  0  0  0  0  0  0  0  0
   -3.2587    0.6082   -0.0856 H   0  0  0  1  0  0  0  0  0  0  0  0
   -1.5083    1.1558   -2.3262 H   0  0  0  1  0  0  0  0  0  0  0  0
    2.6047   -3.2502    4.4494 H   0  0  0  1  0  0  0  0  0  0  0  0
    3.9110   -2.9541    5.5711 H   0  0  0  1  0  0  0  0  0  0  0  0
    3.7079   -4.5397    4.8650 H   0  0  0  1  0  0  0  0  0  0  0  0
   -0.5305    3.3875    0.3063 H   0  0  0  1  0  0  0  0  0  0  0  0
   -1.0035    3.2983   -1.3737 H   0  0  0  1  0  0  0  0  0  0  0  0
   -3.8976    3.2918   -2.2154 H   0  0  0  1  0  0  0  0  0  0  0  0
   -5.6457    4.9438   -2.2030 H   0  0  0  1  0  0  0  0  0  0  0  0
   -5.1158    5.6247    1.7871 H   0  0  0  1  0  0  0  0  0  0  0  0
   -3.3580    3.9815    1.8942 H   0  0  0  1  0  0  0  0  0  0  0  0
  1  3  4  0  0  0  0
  1 14  4  0  0  0  0
  1 21  1  0  0  0  0
  2 14  4  0  0  0  0
  2 15  4  0  0  0  0
  2 30  1  0  0  0  0
  3 16  4  0  0  0  0
  4  5  4  0  0  0  0
  4  7  4  0  0  0  0
  4 17  1  0  0  0  0
  5  9  4  0  0  0  0
  5 31  1  0  0  0  0
  6  7  4  0  0  0  0
  6  8  4  0  0  0  0
  6 32  1  0  0  0  0
  7 33  1  0  0  0  0
  8  9  4  0  0  0  0
  8 20  1  0  0  0  0
  9 34  1  0  0  0  0
 10 11  1  0  0  0  0
 10 21  1  0  0  0  0
 10 24  1  0  0  0  0
 10 35  1  0  0  0  0
 11 12  1  0  0  0  0
 11 36  1  0  0  0  0
 11 37  1  0  0  0  0
 12 23  1  0  0  0  0
 12 38  1  0  0  0  0
 12 39  1  0  0  0  0
 13 23  1  0  0  0  0
 13 25  4  0  0  0  0
 13 29  4  0  0  0  0
 15 16  4  0  0  0  0
 15 18  4  0  0  0  0
 16 17  4  0  0  0  0
 17 19  4  0  0  0  0
 18 19  4  0  0  0  0
 20 22  1  0  0  0  0
 21 40  1  0  0  0  0
 22 41  1  0  0  0  0
 22 42  1  0  0  0  0
 22 43  1  0  0  0  0
 23 24  1  0  0  0  0
 24 44  1  0  0  0  0
 24 45  1  0  0  0  0
 25 26  4  0  0  0  0
 25 46  1  0  0  0  0
 26 27  4  0  0  0  0
 26 47  1  0  0  0  0
 27 28  4  0  0  0  0
 28 29  4  0  0  0  0
 28 48  1  0  0  0  0
 29 49  1  0  0  0  0
M  END
> <ConfClashScore>
0 

> <ConfOneFourInteractionScore>
-0.986948 

> <ConfScore>
-0.00690177 

> <ConfScorePBest>
0.00429963 

> <ConfTolerance>
0.532319 

> <HETNAM>
     OWQ A 303  OWQ                                                       

> <pdb_OW>
Q_303 -16.5129 3.80749 7.62812 0.15963 1.39178 -0.28144 -3.20151 0 0 0 -1.30514 0 0 0 0 0 0 0 0 -8.31393

$$$$
6yky_lig_1.pdb
 OpenBabel04162415593D

 49 53  0  0  0  0  0  0  0  0999 V2000
    1.1856   -0.0996   -2.5888 C   0  0  0  1  0  0  0  0  0  0  0  0
    2.2384   -1.6928   -3.8784 C   0  0  0  1  0  0  0  0  0  0  0  0
    1.3903   -0.7653   -1.4726 N   0  0  0  1  0  0  0  0  0  0  0  0
    2.2302   -2.9158    0.8718 C   0  0  0  1  0  0  0  0  0  0  0  0
    2.7925   -3.9602    1.5811 C   0  0  0  1  0  0  0  0  0  0  0  0
    1.2002   -2.1044    2.8788 C   0  0  0  1  0  0  0  0  0  0  0  0
    1.4307   -1.9880    1.5210 C   0  0  0  1  0  0  0  0  0  0  0  0
    1.7641   -3.1519    3.5903 C   0  0  0  1  0  0  0  0  0  0  0  0
    2.5613   -4.0769    2.9428 C   0  0  0  1  0  0  0  0  0  0  0  0
   -0.0769    1.6165   -1.3228 C   0  0  0  1  0  0  0  0  0  0  0  0
   -1.0920    0.6184   -0.7227 C   0  0  0  1  0  0  0  0  0  0  0  0
   -2.2865    1.4113   -0.2556 C   0  0  0  1  0  0  0  0  0  0  0  0
   -2.9506    3.8062   -0.9140 C   0  0  0  1  0  0  0  0  0  0  0  0
    1.5956   -0.5449   -3.7636 N   0  0  0  1  0  0  0  0  0  0  0  0
    2.4834   -2.4425   -2.7223 C   0  0  0  1  0  0  0  0  0  0  0  0
    2.0282   -1.9292   -1.4905 C   0  0  0  1  0  0  0  0  0  0  0  0
    2.3924   -2.8445   -0.5420 N   0  0  0  1  0  0  0  0  0  0  0  0
    3.0920   -3.6230   -2.4750 N   0  0  0  1  0  0  0  0  0  0  0  0
    3.0543   -3.8827   -1.2145 N   0  0  0  1  0  0  0  0  0  0  0  0
    1.4908   -3.2127    4.9368 O   0  0  0  1  0  0  0  0  0  0  0  0
    0.5333    1.0812   -2.5335 N   0  0  0  1  0  0  0  0  0  0  0  0
    2.1347   -4.3197    5.5868 C   0  0  0  1  0  0  0  0  0  0  0  0
   -2.0512    2.7587   -0.9727 N   0  0  0  1  0  0  0  0  0  0  0  0
   -0.9400    2.8235   -1.6336 C   0  0  0  1  0  0  0  0  0  0  0  0
   -3.9412    3.9391   -1.8693 C   0  0  0  1  0  0  0  0  0  0  0  0
   -4.8221    4.9993   -1.7704 C   0  0  0  1  0  0  0  0  0  0  0  0
   -4.7668    5.9122   -0.7959 N   0  0  0  1  0  0  0  0  0  0  0  0
   -3.7987    5.7736    0.1211 C   0  0  0  1  0  0  0  0  0  0  0  0
   -2.8776    4.7409    0.1003 C   0  0  0  1  0  0  0  0  0  0  0  0
    2.5560   -2.0326   -4.8086 H   0  0  0  1  0  0  0  0  0  0  0  0
    3.3891   -4.6586    1.0931 H   0  0  0  1  0  0  0  0  0  0  0  0
    0.6036   -1.4061    3.3667 H   0  0  0  1  0  0  0  0  0  0  0  0
    1.0043   -1.2044    0.9865 H   0  0  0  1  0  0  0  0  0  0  0  0
    2.9877   -4.8606    3.4773 H   0  0  0  1  0  0  0  0  0  0  0  0
    0.6878    1.8610   -0.6155 H   0  0  0  1  0  0  0  0  0  0  0  0
   -1.3920   -0.0892   -1.4672 H   0  0  0  1  0  0  0  0  0  0  0  0
   -0.6509    0.1017    0.1039 H   0  0  0  1  0  0  0  0  0  0  0  0
   -3.2042    0.9571   -0.5660 H   0  0  0  1  0  0  0  0  0  0  0  0
   -2.2877    1.5284    0.8080 H   0  0  0  1  0  0  0  0  0  0  0  0
    0.4661    1.6097   -3.3561 H   0  0  0  1  0  0  0  0  0  0  0  0
    1.6952   -5.2358    5.2513 H   0  0  0  1  0  0  0  0  0  0  0  0
    2.0112   -4.2320    6.6460 H   0  0  0  1  0  0  0  0  0  0  0  0
    3.1776   -4.3160    5.3473 H   0  0  0  1  0  0  0  0  0  0  0  0
   -0.4153    3.7141   -1.3568 H   0  0  0  1  0  0  0  0  0  0  0  0
   -1.1528    2.8456   -2.6820 H   0  0  0  1  0  0  0  0  0  0  0  0
   -4.0218    3.2541   -2.6477 H   0  0  0  1  0  0  0  0  0  0  0  0
   -5.5661    5.0914   -2.4912 H   0  0  0  1  0  0  0  0  0  0  0  0
   -3.7369    6.4763    0.8853 H   0  0  0  1  0  0  0  0  0  0  0  0
   -2.1443    4.6700    0.8345 H   0  0  0  1  0  0  0  0  0  0  0  0
  1  3  4  0  0  0  0
  1 14  4  0  0  0  0
  1 21  1  0  0  0  0
  2 14  4  0  0  0  0
  2 15  4  0  0  0  0
  2 30  1  0  0  0  0
  3 16  4  0  0  0  0
  4  5  4  0  0  0  0
  4  7  4  0  0  0  0
  4 17  1  0  0  0  0
  5  9  4  0  0  0  0
  5 31  1  0  0  0  0
  6  7  4  0  0  0  0
  6  8  4  0  0  0  0
  6 32  1  0  0  0  0
  7 33  1  0  0  0  0
  8  9  4  0  0  0  0
  8 20  1  0  0  0  0
  9 34  1  0  0  0  0
 10 11  1  0  0  0  0
 10 21  1  0  0  0  0
 10 24  1  0  0  0  0
 10 35  1  0  0  0  0
 11 12  1  0  0  0  0
 11 36  1  0  0  0  0
 11 37  1  0  0  0  0
 12 23  1  0  0  0  0
 12 38  1  0  0  0  0
 12 39  1  0  0  0  0
 13 23  1  0  0  0  0
 13 25  4  0  0  0  0
 13 29  4  0  0  0  0
 15 16  4  0  0  0  0
 15 18  4  0  0  0  0
 16 17  4  0  0  0  0
 17 19  4  0  0  0  0
 18 19  4  0  0  0  0
 20 22  1  0  0  0  0
 21 40  1  0  0  0  0
 22 41  1  0  0  0  0
 22 42  1  0  0  0  0
 22 43  1  0  0  0  0
 23 24  1  0  0  0  0
 24 44  1  0  0  0  0
 24 45  1  0  0  0  0
 25 26  4  0  0  0  0
 25 46  1  0  0  0  0
 26 27  4  0  0  0  0
 26 47  1  0  0  0  0
 27 28  4  0  0  0  0
 28 29  4  0  0  0  0
 28 48  1  0  0  0  0
 29 49  1  0  0  0  0
M  END
> <ConfClashScore>
0 

> <ConfOneFourInteractionScore>
-0.987833 

> <ConfScore>
-0.00689602 

> <ConfScorePBest>
0.0042863 

> <ConfTolerance>
0.426963 

> <HETNAM>
     OWQ A 303  OWQ                                                       

> <pdb_OW>
Q_303 -16.5129 3.80749 7.62812 0.15963 1.39178 -0.28144 -3.20151 0 0 0 -1.30514 0 0 0 0 0 0 0 0 -8.31393

$$$$
6yky_lig_1.pdb
 OpenBabel04162415593D

 49 53  0  0  0  0  0  0  0  0999 V2000
    0.9650   -2.1393   -2.2736 C   0  0  0  1  0  0  0  0  0  0  0  0
    2.9081   -2.1985   -3.5107 C   0  0  0  1  0  0  0  0  0  0  0  0
    1.4667   -1.2997   -1.3937 N   0  0  0  1  0  0  0  0  0  0  0  0
    3.3238    0.7533    0.3847 C   0  0  0  1  0  0  0  0  0  0  0  0
    4.3813    0.9608    1.2500 C   0  0  0  1  0  0  0  0  0  0  0  0
    1.8536    1.8781    1.9081 C   0  0  0  1  0  0  0  0  0  0  0  0
    2.0575    1.2102    0.7154 C   0  0  0  1  0  0  0  0  0  0  0  0
    2.9142    2.0862    2.7762 C   0  0  0  1  0  0  0  0  0  0  0  0
    4.1767    1.6306    2.4462 C   0  0  0  1  0  0  0  0  0  0  0  0
   -1.1787   -2.0085   -1.0253 C   0  0  0  1  0  0  0  0  0  0  0  0
   -2.2260   -3.0302   -0.6093 C   0  0  0  1  0  0  0  0  0  0  0  0
   -3.3457   -2.1884    0.0060 C   0  0  0  1  0  0  0  0  0  0  0  0
   -4.1049    0.1729   -0.5305 C   0  0  0  1  0  0  0  0  0  0  0  0
    1.6607   -2.5812   -3.3067 N   0  0  0  1  0  0  0  0  0  0  0  0
    3.4921   -1.3056   -2.6050 C   0  0  0  1  0  0  0  0  0  0  0  0
    2.7131   -0.8602   -1.5174 C   0  0  0  1  0  0  0  0  0  0  0  0
    3.5127   -0.0123   -0.8021 N   0  0  0  1  0  0  0  0  0  0  0  0
    4.7063   -0.7216   -2.5061 N   0  0  0  1  0  0  0  0  0  0  0  0
    4.7474    0.0366   -1.4664 N   0  0  0  1  0  0  0  0  0  0  0  0
    2.5840    2.7648    3.9464 O   0  0  0  1  0  0  0  0  0  0  0  0
   -0.3169   -2.5392   -2.0732 N   0  0  0  1  0  0  0  0  0  0  0  0
    3.6120    3.2273    4.8856 C   0  0  0  1  0  0  0  0  0  0  0  0
   -3.2070   -0.8943   -0.6802 N   0  0  0  1  0  0  0  0  0  0  0  0
   -2.0162   -0.8519   -1.5413 C   0  0  0  1  0  0  0  0  0  0  0  0
   -3.7762    1.1134    0.4281 C   0  0  0  1  0  0  0  0  0  0  0  0
   -4.6203    2.1907    0.6193 C   0  0  0  1  0  0  0  0  0  0  0  0
   -5.7476    2.3733   -0.0751 N   0  0  0  1  0  0  0  0  0  0  0  0
   -6.0562    1.4514   -0.9983 C   0  0  0  1  0  0  0  0  0  0  0  0
   -5.2667    0.3447   -1.2575 C   0  0  0  1  0  0  0  0  0  0  0  0
    3.4453   -2.5533   -4.3274 H   0  0  0  1  0  0  0  0  0  0  0  0
    5.3305    0.6144    1.0037 H   0  0  0  1  0  0  0  0  0  0  0  0
    0.9044    2.2244    2.1545 H   0  0  0  1  0  0  0  0  0  0  0  0
    1.2610    1.0505    0.0660 H   0  0  0  1  0  0  0  0  0  0  0  0
    4.9732    1.7903    3.0956 H   0  0  0  1  0  0  0  0  0  0  0  0
   -0.5816   -1.7081   -0.1898 H   0  0  0  1  0  0  0  0  0  0  0  0
   -1.8252   -3.7131    0.1104 H   0  0  0  1  0  0  0  0  0  0  0  0
   -2.5832   -3.5748   -1.4582 H   0  0  0  1  0  0  0  0  0  0  0  0
   -4.3038   -2.6243   -0.1867 H   0  0  0  1  0  0  0  0  0  0  0  0
   -3.2085   -2.0798    1.0616 H   0  0  0  1  0  0  0  0  0  0  0  0
   -0.6842   -3.2254   -2.6686 H   0  0  0  1  0  0  0  0  0  0  0  0
    3.1587    3.4549    5.8277 H   0  0  0  1  0  0  0  0  0  0  0  0
    4.0824    4.1055    4.4950 H   0  0  0  1  0  0  0  0  0  0  0  0
    4.3446    2.4590    5.0189 H   0  0  0  1  0  0  0  0  0  0  0  0
   -1.4965    0.0771   -1.4329 H   0  0  0  1  0  0  0  0  0  0  0  0
   -2.2793   -0.9963   -2.5683 H   0  0  0  1  0  0  0  0  0  0  0  0
   -2.9100    1.0120    0.9947 H   0  0  0  1  0  0  0  0  0  0  0  0
   -4.3654    2.8954    1.3404 H   0  0  0  1  0  0  0  0  0  0  0  0
   -6.9315    1.5740   -1.5464 H   0  0  0  1  0  0  0  0  0  0  0  0
   -5.5429   -0.3445   -1.9857 H   0  0  0  1  0  0  0  0  0  0  0  0
  1  3  4  0  0  0  0
  1 14  4  0  0  0  0
  1 21  1  0  0  0  0
  2 14  4  0  0  0  0
  2 15  4  0  0  0  0
  2 30  1  0  0  0  0
  3 16  4  0  0  0  0
  4  5  4  0  0  0  0
  4  7  4  0  0  0  0
  4 17  1  0  0  0  0
  5  9  4  0  0  0  0
  5 31  1  0  0  0  0
  6  7  4  0  0  0  0
  6  8  4  0  0  0  0
  6 32  1  0  0  0  0
  7 33  1  0  0  0  0
  8  9  4  0  0  0  0
  8 20  1  0  0  0  0
  9 34  1  0  0  0  0
 10 11  1  0  0  0  0
 10 21  1  0  0  0  0
 10 24  1  0  0  0  0
 10 35  1  0  0  0  0
 11 12  1  0  0  0  0
 11 36  1  0  0  0  0
 11 37  1  0  0  0  0
 12 23  1  0  0  0  0
 12 38  1  0  0  0  0
 12 39  1  0  0  0  0
 13 23  1  0  0  0  0
 13 25  4  0  0  0  0
 13 29  4  0  0  0  0
 15 16  4  0  0  0  0
 15 18  4  0  0  0  0
 16 17  4  0  0  0  0
 17 19  4  0  0  0  0
 18 19  4  0  0  0  0
 20 22  1  0  0  0  0
 21 40  1  0  0  0  0
 22 41  1  0  0  0  0
 22 42  1  0  0  0  0
 22 43  1  0  0  0  0
 23 24  1  0  0  0  0
 24 44  1  0  0  0  0
 24 45  1  0  0  0  0
 25 26  4  0  0  0  0
 25 46  1  0  0  0  0
 26 27  4  0  0  0  0
 26 47  1  0  0  0  0
 27 28  4  0  0  0  0
 28 29  4  0  0  0  0
 28 48  1  0  0  0  0
 29 49  1  0  0  0  0
M  END
> <ConfClashScore>
0 

> <ConfOneFourInteractionScore>
-0.986948 

> <ConfScore>
-0.0067316 

> <ConfScorePBest>
0.00427297 

> <ConfTolerance>
0.404724 

> <HETNAM>
     OWQ A 303  OWQ                                                       

> <pdb_OW>
Q_303 -16.5129 3.80749 7.62812 0.15963 1.39178 -0.28144 -3.20151 0 0 0 -1.30514 0 0 0 0 0 0 0 0 -8.31393

$$$$
6yky_lig_1.pdb
 OpenBabel04162415593D

 49 53  0  0  0  0  0  0  0  0999 V2000
    2.0490    0.0420    0.4072 C   0  0  0  1  0  0  0  0  0  0  0  0
    3.8150    0.9456   -0.7650 C   0  0  0  1  0  0  0  0  0  0  0  0
    1.5403   -0.5317   -0.6619 N   0  0  0  1  0  0  0  0  0  0  0  0
    0.8266   -1.6629   -3.6308 C   0  0  0  1  0  0  0  0  0  0  0  0
    0.2410   -1.3384   -4.8399 C   0  0  0  1  0  0  0  0  0  0  0  0
   -0.7430   -3.4528   -3.3483 C   0  0  0  1  0  0  0  0  0  0  0  0
    0.3323   -2.7199   -2.8826 C   0  0  0  1  0  0  0  0  0  0  0  0
   -1.3305   -3.1275   -4.5610 C   0  0  0  1  0  0  0  0  0  0  0  0
   -0.8374   -2.0735   -5.3069 C   0  0  0  1  0  0  0  0  0  0  0  0
    1.6663    0.5923    2.7953 C   0  0  0  1  0  0  0  0  0  0  0  0
    1.0319   -0.0879    3.9727 C   0  0  0  1  0  0  0  0  0  0  0  0
   -0.4317    0.4271    3.8811 C   0  0  0  1  0  0  0  0  0  0  0  0
   -1.2520    2.7255    3.3452 C   0  0  0  1  0  0  0  0  0  0  0  0
    3.1560    0.7626    0.3647 N   0  0  0  1  0  0  0  0  0  0  0  0
    3.3183    0.3576   -1.9338 C   0  0  0  1  0  0  0  0  0  0  0  0
    2.1344   -0.4027   -1.8419 C   0  0  0  1  0  0  0  0  0  0  0  0
    1.8762   -0.8542   -3.1066 N   0  0  0  1  0  0  0  0  0  0  0  0
    3.7204    0.3362   -3.2233 N   0  0  0  1  0  0  0  0  0  0  0  0
    2.9004   -0.3616   -3.9292 N   0  0  0  1  0  0  0  0  0  0  0  0
   -2.3851   -3.7657   -5.1137 O   0  0  0  1  0  0  0  0  0  0  0  0
    1.3792   -0.1400    1.5741 N   0  0  0  1  0  0  0  0  0  0  0  0
   -3.0926   -4.7679   -4.3471 C   0  0  0  1  0  0  0  0  0  0  0  0
   -0.2482    1.7415    3.3230 N   0  0  0  1  0  0  0  0  0  0  0  0
    1.0596    1.9654    2.7357 C   0  0  0  1  0  0  0  0  0  0  0  0
   -0.9961    4.0039    2.8848 C   0  0  0  1  0  0  0  0  0  0  0  0
   -2.0126    4.9393    2.9211 C   0  0  0  1  0  0  0  0  0  0  0  0
   -3.2384    4.6749    3.3834 N   0  0  0  1  0  0  0  0  0  0  0  0
   -3.4713    3.4328    3.8307 C   0  0  0  1  0  0  0  0  0  0  0  0
   -2.5130    2.4342    3.8275 C   0  0  0  1  0  0  0  0  0  0  0  0
    4.6851    1.5150   -0.7857 H   0  0  0  1  0  0  0  0  0  0  0  0
    0.6094   -0.5428   -5.3993 H   0  0  0  1  0  0  0  0  0  0  0  0
   -1.1114   -4.2484   -2.7889 H   0  0  0  1  0  0  0  0  0  0  0  0
    0.7705   -2.9615   -1.9709 H   0  0  0  1  0  0  0  0  0  0  0  0
   -1.2756   -1.8319   -6.2186 H   0  0  0  1  0  0  0  0  0  0  0  0
    2.7256    0.6594    2.9308 H   0  0  0  1  0  0  0  0  0  0  0  0
    1.4936    0.2101    4.8909 H   0  0  0  1  0  0  0  0  0  0  0  0
    1.0773   -1.1528    3.8792 H   0  0  0  1  0  0  0  0  0  0  0  0
   -1.0220   -0.1904    3.2368 H   0  0  0  1  0  0  0  0  0  0  0  0
   -0.8888    0.4749    4.8473 H   0  0  0  1  0  0  0  0  0  0  0  0
    0.6593   -0.8047    1.5936 H   0  0  0  1  0  0  0  0  0  0  0  0
   -2.7903   -5.7427   -4.6686 H   0  0  0  1  0  0  0  0  0  0  0  0
   -4.1458   -4.6537   -4.4974 H   0  0  0  1  0  0  0  0  0  0  0  0
   -2.8650   -4.6486   -3.3084 H   0  0  0  1  0  0  0  0  0  0  0  0
    1.6285    2.6671    3.3091 H   0  0  0  1  0  0  0  0  0  0  0  0
    0.9786    2.3113    1.7263 H   0  0  0  1  0  0  0  0  0  0  0  0
   -0.0563    4.2566    2.5180 H   0  0  0  1  0  0  0  0  0  0  0  0
   -1.8135    5.8981    2.5708 H   0  0  0  1  0  0  0  0  0  0  0  0
   -4.4181    3.2086    4.1980 H   0  0  0  1  0  0  0  0  0  0  0  0
   -2.7382    1.4826    4.1815 H   0  0  0  1  0  0  0  0  0  0  0  0
  1  3  4  0  0  0  0
  1 14  4  0  0  0  0
  1 21  1  0  0  0  0
  2 14  4  0  0  0  0
  2 15  4  0  0  0  0
  2 30  1  0  0  0  0
  3 16  4  0  0  0  0
  4  5  4  0  0  0  0
  4  7  4  0  0  0  0
  4 17  1  0  0  0  0
  5  9  4  0  0  0  0
  5 31  1  0  0  0  0
  6  7  4  0  0  0  0
  6  8  4  0  0  0  0
  6 32  1  0  0  0  0
  7 33  1  0  0  0  0
  8  9  4  0  0  0  0
  8 20  1  0  0  0  0
  9 34  1  0  0  0  0
 10 11  1  0  0  0  0
 10 21  1  0  0  0  0
 10 24  1  0  0  0  0
 10 35  1  0  0  0  0
 11 12  1  0  0  0  0
 11 36  1  0  0  0  0
 11 37  1  0  0  0  0
 12 23  1  0  0  0  0
 12 38  1  0  0  0  0
 12 39  1  0  0  0  0
 13 23  1  0  0  0  0
 13 25  4  0  0  0  0
 13 29  4  0  0  0  0
 15 16  4  0  0  0  0
 15 18  4  0  0  0  0
 16 17  4  0  0  0  0
 17 19  4  0  0  0  0
 18 19  4  0  0  0  0
 20 22  1  0  0  0  0
 21 40  1  0  0  0  0
 22 41  1  0  0  0  0
 22 42  1  0  0  0  0
 22 43  1  0  0  0  0
 23 24  1  0  0  0  0
 24 44  1  0  0  0  0
 24 45  1  0  0  0  0
 25 26  4  0  0  0  0
 25 46  1  0  0  0  0
 26 27  4  0  0  0  0
 26 47  1  0  0  0  0
 27 28  4  0  0  0  0
 28 29  4  0  0  0  0
 28 48  1  0  0  0  0
 29 49  1  0  0  0  0
M  END
> <ConfClashScore>
0 

> <ConfOneFourInteractionScore>
-0.984874 

> <ConfScore>
-0.00623677 

> <ConfScorePBest>
0.00425964 

> <ConfTolerance>
0.682149 

> <HETNAM>
     OWQ A 303  OWQ                                                       

> <pdb_OW>
Q_303 -16.5129 3.80749 7.62812 0.15963 1.39178 -0.28144 -3.20151 0 0 0 -1.30514 0 0 0 0 0 0 0 0 -8.31393

$$$$
6yky_lig_1.pdb
 OpenBabel04162415593D

 49 53  0  0  0  0  0  0  0  0999 V2000
    0.7603   -0.1592    1.0521 C   0  0  0  1  0  0  0  0  0  0  0  0
    2.5005   -0.5470    2.5118 C   0  0  0  1  0  0  0  0  0  0  0  0
    1.4079   -0.6768    0.0306 N   0  0  0  1  0  0  0  0  0  0  0  0
    3.5163   -2.0595   -2.0300 C   0  0  0  1  0  0  0  0  0  0  0  0
    2.3024   -2.2225   -2.6704 C   0  0  0  1  0  0  0  0  0  0  0  0
    4.6632   -2.6848   -4.0402 C   0  0  0  1  0  0  0  0  0  0  0  0
    4.6985   -2.2936   -2.7150 C   0  0  0  1  0  0  0  0  0  0  0  0
    3.4458   -2.8483   -4.6826 C   0  0  0  1  0  0  0  0  0  0  0  0
    2.2673   -2.6149   -3.9994 C   0  0  0  1  0  0  0  0  0  0  0  0
   -1.3727    0.8703    1.8853 C   0  0  0  1  0  0  0  0  0  0  0  0
   -2.4216   -0.1730    2.3602 C   0  0  0  1  0  0  0  0  0  0  0  0
   -3.6663    0.6045    2.8370 C   0  0  0  1  0  0  0  0  0  0  0  0
   -4.2783    3.0887    2.5000 C   0  0  0  1  0  0  0  0  0  0  0  0
    1.2858   -0.0926    2.2629 N   0  0  0  1  0  0  0  0  0  0  0  0
    3.2348   -1.1083    1.4609 C   0  0  0  1  0  0  0  0  0  0  0  0
    2.6349   -1.1588    0.1859 C   0  0  0  1  0  0  0  0  0  0  0  0
    3.5534   -1.7440   -0.6410 N   0  0  0  1  0  0  0  0  0  0  0  0
    4.4664   -1.6536    1.3565 N   0  0  0  1  0  0  0  0  0  0  0  0
    4.6794   -2.0325    0.1447 N   0  0  0  1  0  0  0  0  0  0  0  0
    3.2865   -3.2314   -5.9717 O   0  0  0  1  0  0  0  0  0  0  0  0
   -0.4817    0.3199    0.8587 N   0  0  0  1  0  0  0  0  0  0  0  0
    4.4650   -3.6329   -6.6874 C   0  0  0  1  0  0  0  0  0  0  0  0
   -3.4662    1.9502    2.2287 N   0  0  0  1  0  0  0  0  0  0  0  0
   -2.3162    1.9442    1.3098 C   0  0  0  1  0  0  0  0  0  0  0  0
   -5.4733    2.8416    3.1501 C   0  0  0  1  0  0  0  0  0  0  0  0
   -6.3026    3.9071    3.4443 C   0  0  0  1  0  0  0  0  0  0  0  0
   -6.0121    5.1731    3.1297 N   0  0  0  1  0  0  0  0  0  0  0  0
   -4.8525    5.3978    2.4957 C   0  0  0  1  0  0  0  0  0  0  0  0
   -3.9618    4.3911    2.1661 C   0  0  0  1  0  0  0  0  0  0  0  0
    2.9032   -0.4889    3.4689 H   0  0  0  1  0  0  0  0  0  0  0  0
    1.4155   -2.0507   -2.1552 H   0  0  0  1  0  0  0  0  0  0  0  0
    5.5502   -2.8566   -4.5553 H   0  0  0  1  0  0  0  0  0  0  0  0
    5.6117   -2.1748   -2.2319 H   0  0  0  1  0  0  0  0  0  0  0  0
    1.3539   -2.7336   -4.4824 H   0  0  0  1  0  0  0  0  0  0  0  0
   -0.7897    1.2476    2.6993 H   0  0  0  1  0  0  0  0  0  0  0  0
   -2.0217   -0.7519    3.1664 H   0  0  0  1  0  0  0  0  0  0  0  0
   -2.6840   -0.8216    1.5506 H   0  0  0  1  0  0  0  0  0  0  0  0
   -3.6975    0.6648    3.9048 H   0  0  0  1  0  0  0  0  0  0  0  0
   -4.5658    0.1493    2.4785 H   0  0  0  1  0  0  0  0  0  0  0  0
   -0.8250    0.2992   -0.0590 H   0  0  0  1  0  0  0  0  0  0  0  0
    5.1564   -4.0889   -6.0098 H   0  0  0  1  0  0  0  0  0  0  0  0
    4.9194   -2.7743   -7.1361 H   0  0  0  1  0  0  0  0  0  0  0  0
    4.1975   -4.3347   -7.4495 H   0  0  0  1  0  0  0  0  0  0  0  0
   -2.6249    1.6852    0.3186 H   0  0  0  1  0  0  0  0  0  0  0  0
   -1.8373    2.9010    1.2962 H   0  0  0  1  0  0  0  0  0  0  0  0
   -5.7428    1.8721    3.4128 H   0  0  0  1  0  0  0  0  0  0  0  0
   -7.1986    3.7139    3.9357 H   0  0  0  1  0  0  0  0  0  0  0  0
   -4.6104    6.3761    2.2390 H   0  0  0  1  0  0  0  0  0  0  0  0
   -3.0710    4.6110    1.6765 H   0  0  0  1  0  0  0  0  0  0  0  0
  1  3  4  0  0  0  0
  1 14  4  0  0  0  0
  1 21  1  0  0  0  0
  2 14  4  0  0  0  0
  2 15  4  0  0  0  0
  2 30  1  0  0  0  0
  3 16  4  0  0  0  0
  4  5  4  0  0  0  0
  4  7  4  0  0  0  0
  4 17  1  0  0  0  0
  5  9  4  0  0  0  0
  5 31  1  0  0  0  0
  6  7  4  0  0  0  0
  6  8  4  0  0  0  0
  6 32  1  0  0  0  0
  7 33  1  0  0  0  0
  8  9  4  0  0  0  0
  8 20  1  0  0  0  0
  9 34  1  0  0  0  0
 10 11  1  0  0  0  0
 10 21  1  0  0  0  0
 10 24  1  0  0  0  0
 10 35  1  0  0  0  0
 11 12  1  0  0  0  0
 11 36  1  0  0  0  0
 11 37  1  0  0  0  0
 12 23  1  0  0  0  0
 12 38  1  0  0  0  0
 12 39  1  0  0  0  0
 13 23  1  0  0  0  0
 13 25  4  0  0  0  0
 13 29  4  0  0  0  0
 15 16  4  0  0  0  0
 15 18  4  0  0  0  0
 16 17  4  0  0  0  0
 17 19  4  0  0  0  0
 18 19  4  0  0  0  0
 20 22  1  0  0  0  0
 21 40  1  0  0  0  0
 22 41  1  0  0  0  0
 22 42  1  0  0  0  0
 22 43  1  0  0  0  0
 23 24  1  0  0  0  0
 24 44  1  0  0  0  0
 24 45  1  0  0  0  0
 25 26  4  0  0  0  0
 25 46  1  0  0  0  0
 26 27  4  0  0  0  0
 26 47  1  0  0  0  0
 27 28  4  0  0  0  0
 28 29  4  0  0  0  0
 28 48  1  0  0  0  0
 29 49  1  0  0  0  0
M  END
> <ConfClashScore>
0 

> <ConfOneFourInteractionScore>
-0.986948 

> <ConfScore>
-0.00600267 

> <ConfScorePBest>
0.00424631 

> <ConfTolerance>
0.383776 

> <HETNAM>
     OWQ A 303  OWQ                                                       

> <pdb_OW>
Q_303 -16.5129 3.80749 7.62812 0.15963 1.39178 -0.28144 -3.20151 0 0 0 -1.30514 0 0 0 0 0 0 0 0 -8.31393

$$$$
6yky_lig_1.pdb
 OpenBabel04162415593D

 49 53  0  0  0  0  0  0  0  0999 V2000
    1.1956   -0.8971   -2.6317 C   0  0  0  1  0  0  0  0  0  0  0  0
    2.9263   -2.1916   -3.4307 C   0  0  0  1  0  0  0  0  0  0  0  0
    1.6119   -0.9827   -1.3866 N   0  0  0  1  0  0  0  0  0  0  0  0
    3.1511   -1.5821    1.4196 C   0  0  0  1  0  0  0  0  0  0  0  0
    3.2014   -2.5785    2.3761 C   0  0  0  1  0  0  0  0  0  0  0  0
    2.4850   -0.0032    3.0961 C   0  0  0  1  0  0  0  0  0  0  0  0
    2.7898   -0.2931    1.7795 C   0  0  0  1  0  0  0  0  0  0  0  0
    2.5354   -1.0024    4.0556 C   0  0  0  1  0  0  0  0  0  0  0  0
    2.8957   -2.2875    3.6964 C   0  0  0  1  0  0  0  0  0  0  0  0
   -0.7697    0.3542   -1.8408 C   0  0  0  1  0  0  0  0  0  0  0  0
   -1.8087   -0.6581   -1.4208 C   0  0  0  1  0  0  0  0  0  0  0  0
   -2.9094    0.1928   -0.7905 C   0  0  0  1  0  0  0  0  0  0  0  0
   -3.7752    2.4996   -1.4533 C   0  0  0  1  0  0  0  0  0  0  0  0
    1.8302   -1.4829   -3.6320 N   0  0  0  1  0  0  0  0  0  0  0  0
    3.4140   -2.3158   -2.1248 C   0  0  0  1  0  0  0  0  0  0  0  0
    2.7051   -1.6741   -1.0886 C   0  0  0  1  0  0  0  0  0  0  0  0
    3.3858   -1.9533    0.0641 N   0  0  0  1  0  0  0  0  0  0  0  0
    4.4730   -2.9443   -1.5693 N   0  0  0  1  0  0  0  0  0  0  0  0
    4.4822   -2.7509   -0.2964 N   0  0  0  1  0  0  0  0  0  0  0  0
    2.2116   -0.6015    5.3079 O   0  0  0  1  0  0  0  0  0  0  0  0
    0.0681   -0.1779   -2.9014 N   0  0  0  1  0  0  0  0  0  0  0  0
    2.5395   -1.4907    6.3869 C   0  0  0  1  0  0  0  0  0  0  0  0
   -2.8057    1.4624   -1.5225 N   0  0  0  1  0  0  0  0  0  0  0  0
   -1.5789    1.5355   -2.3372 C   0  0  0  1  0  0  0  0  0  0  0  0
   -3.6794    3.4912   -0.4945 C   0  0  0  1  0  0  0  0  0  0  0  0
   -4.6414    4.4828   -0.4654 C   0  0  0  1  0  0  0  0  0  0  0  0
   -5.6692    4.5348   -1.3181 N   0  0  0  1  0  0  0  0  0  0  0  0
   -5.7522    3.5647   -2.2397 C   0  0  0  1  0  0  0  0  0  0  0  0
   -4.8314    2.5367   -2.3427 C   0  0  0  1  0  0  0  0  0  0  0  0
    3.4168   -2.6479   -4.2262 H   0  0  0  1  0  0  0  0  0  0  0  0
    3.4685   -3.5464    2.1052 H   0  0  0  1  0  0  0  0  0  0  0  0
    2.2179    0.9648    3.3669 H   0  0  0  1  0  0  0  0  0  0  0  0
    2.7481    0.4557    1.0590 H   0  0  0  1  0  0  0  0  0  0  0  0
    2.9374   -3.0363    4.4169 H   0  0  0  1  0  0  0  0  0  0  0  0
   -0.1576    0.6364   -1.0097 H   0  0  0  1  0  0  0  0  0  0  0  0
   -2.1806   -1.1966   -2.2673 H   0  0  0  1  0  0  0  0  0  0  0  0
   -1.4042   -1.3468   -0.7088 H   0  0  0  1  0  0  0  0  0  0  0  0
   -3.8706   -0.2554   -0.9324 H   0  0  0  1  0  0  0  0  0  0  0  0
   -2.7331    0.3363    0.2551 H   0  0  0  1  0  0  0  0  0  0  0  0
   -0.1830   -0.0162   -3.8348 H   0  0  0  1  0  0  0  0  0  0  0  0
    2.0105   -1.1932    7.2681 H   0  0  0  1  0  0  0  0  0  0  0  0
    3.5924   -1.4520    6.5732 H   0  0  0  1  0  0  0  0  0  0  0  0
    2.2598   -2.4893    6.1233 H   0  0  0  1  0  0  0  0  0  0  0  0
   -1.0595    2.4556   -2.1684 H   0  0  0  1  0  0  0  0  0  0  0  0
   -1.8028    1.4376   -3.3790 H   0  0  0  1  0  0  0  0  0  0  0  0
   -2.8981    3.4907    0.1919 H   0  0  0  1  0  0  0  0  0  0  0  0
   -4.5615    5.2267    0.2570 H   0  0  0  1  0  0  0  0  0  0  0  0
   -6.5472    3.5857   -2.9099 H   0  0  0  1  0  0  0  0  0  0  0  0
   -4.9327    1.8059   -3.0757 H   0  0  0  1  0  0  0  0  0  0  0  0
  1  3  4  0  0  0  0
  1 14  4  0  0  0  0
  1 21  1  0  0  0  0
  2 14  4  0  0  0  0
  2 15  4  0  0  0  0
  2 30  1  0  0  0  0
  3 16  4  0  0  0  0
  4  5  4  0  0  0  0
  4  7  4  0  0  0  0
  4 17  1  0  0  0  0
  5  9  4  0  0  0  0
  5 31  1  0  0  0  0
  6  7  4  0  0  0  0
  6  8  4  0  0  0  0
  6 32  1  0  0  0  0
  7 33  1  0  0  0  0
  8  9  4  0  0  0  0
  8 20  1  0  0  0  0
  9 34  1  0  0  0  0
 10 11  1  0  0  0  0
 10 21  1  0  0  0  0
 10 24  1  0  0  0  0
 10 35  1  0  0  0  0
 11 12  1  0  0  0  0
 11 36  1  0  0  0  0
 11 37  1  0  0  0  0
 12 23  1  0  0  0  0
 12 38  1  0  0  0  0
 12 39  1  0  0  0  0
 13 23  1  0  0  0  0
 13 25  4  0  0  0  0
 13 29  4  0  0  0  0
 15 16  4  0  0  0  0
 15 18  4  0  0  0  0
 16 17  4  0  0  0  0
 17 19  4  0  0  0  0
 18 19  4  0  0  0  0
 20 22  1  0  0  0  0
 21 40  1  0  0  0  0
 22 41  1  0  0  0  0
 22 42  1  0  0  0  0
 22 43  1  0  0  0  0
 23 24  1  0  0  0  0
 24 44  1  0  0  0  0
 24 45  1  0  0  0  0
 25 26  4  0  0  0  0
 25 46  1  0  0  0  0
 26 27  4  0  0  0  0
 26 47  1  0  0  0  0
 27 28  4  0  0  0  0
 28 29  4  0  0  0  0
 28 48  1  0  0  0  0
 29 49  1  0  0  0  0
M  END
> <ConfClashScore>
0 

> <ConfOneFourInteractionScore>
-0.986948 

> <ConfScore>
-0.00540139 

> <ConfScorePBest>
0.00423299 

> <ConfTolerance>
0.430634 

> <HETNAM>
     OWQ A 303  OWQ                                                       

> <pdb_OW>
Q_303 -16.5129 3.80749 7.62812 0.15963 1.39178 -0.28144 -3.20151 0 0 0 -1.30514 0 0 0 0 0 0 0 0 -8.31393

$$$$
6yky_lig_1.pdb
 OpenBabel04162415593D

 49 53  0  0  0  0  0  0  0  0999 V2000
    0.6874    0.5560    0.5668 C   0  0  0  1  0  0  0  0  0  0  0  0
    1.5102    2.5003   -0.3565 C   0  0  0  1  0  0  0  0  0  0  0  0
    1.1986   -0.1959   -0.3841 N   0  0  0  1  0  0  0  0  0  0  0  0
    2.6964   -1.4507   -2.9890 C   0  0  0  1  0  0  0  0  0  0  0  0
    2.7282   -2.4889   -2.0772 C   0  0  0  1  0  0  0  0  0  0  0  0
    3.1491   -2.9946   -4.7662 C   0  0  0  1  0  0  0  0  0  0  0  0
    2.9098   -1.7034   -4.3351 C   0  0  0  1  0  0  0  0  0  0  0  0
    3.1811   -4.0360   -3.8519 C   0  0  0  1  0  0  0  0  0  0  0  0
    2.9683   -3.7838   -2.5098 C   0  0  0  1  0  0  0  0  0  0  0  0
   -0.6159    0.4864    2.7340 C   0  0  0  1  0  0  0  0  0  0  0  0
   -1.6142   -0.5102    3.3640 C   0  0  0  1  0  0  0  0  0  0  0  0
   -2.8183    0.2773    3.8155 C   0  0  0  1  0  0  0  0  0  0  0  0
   -3.5201    2.6453    3.0982 C   0  0  0  1  0  0  0  0  0  0  0  0
    0.8350    1.8692    0.5869 N   0  0  0  1  0  0  0  0  0  0  0  0
    2.0757    1.7490   -1.3929 C   0  0  0  1  0  0  0  0  0  0  0  0
    1.8932    0.3510   -1.3742 C   0  0  0  1  0  0  0  0  0  0  0  0
    2.5363   -0.1289   -2.4816 N   0  0  0  1  0  0  0  0  0  0  0  0
    2.8066    2.0526   -2.4878 N   0  0  0  1  0  0  0  0  0  0  0  0
    3.0891    0.9794   -3.1406 N   0  0  0  1  0  0  0  0  0  0  0  0
    3.4104   -5.3360   -4.1542 O   0  0  0  1  0  0  0  0  0  0  0  0
    0.0006   -0.0743    1.5285 N   0  0  0  1  0  0  0  0  0  0  0  0
    3.6598   -5.6551   -5.5320 C   0  0  0  1  0  0  0  0  0  0  0  0
   -2.6052    1.6088    3.0628 N   0  0  0  1  0  0  0  0  0  0  0  0
   -1.4975    1.6725    2.3958 C   0  0  0  1  0  0  0  0  0  0  0  0
   -3.5739    3.5011    4.1828 C   0  0  0  1  0  0  0  0  0  0  0  0
   -4.5008    4.5260    4.1754 C   0  0  0  1  0  0  0  0  0  0  0  0
   -5.3570    4.7352    3.1707 N   0  0  0  1  0  0  0  0  0  0  0  0
   -5.2967    3.8953    2.1275 C   0  0  0  1  0  0  0  0  0  0  0  0
   -4.3979    2.8457    2.0508 C   0  0  0  1  0  0  0  0  0  0  0  0
    1.6194    3.5342   -0.3297 H   0  0  0  1  0  0  0  0  0  0  0  0
    2.5721   -2.2987   -1.0668 H   0  0  0  1  0  0  0  0  0  0  0  0
    3.3053   -3.1848   -5.7767 H   0  0  0  1  0  0  0  0  0  0  0  0
    2.8898   -0.9215   -5.0206 H   0  0  0  1  0  0  0  0  0  0  0  0
    2.9883   -4.5656   -1.8242 H   0  0  0  1  0  0  0  0  0  0  0  0
    0.1479    0.7601    3.4316 H   0  0  0  1  0  0  0  0  0  0  0  0
   -1.9068   -1.2411    2.6393 H   0  0  0  1  0  0  0  0  0  0  0  0
   -1.1625   -0.9989    4.2019 H   0  0  0  1  0  0  0  0  0  0  0  0
   -2.8171    0.4218    4.8757 H   0  0  0  1  0  0  0  0  0  0  0  0
   -3.7305   -0.1979    3.5208 H   0  0  0  1  0  0  0  0  0  0  0  0
   -0.1037   -1.0415    1.4100 H   0  0  0  1  0  0  0  0  0  0  0  0
    2.8305   -5.3363   -6.1283 H   0  0  0  1  0  0  0  0  0  0  0  0
    3.7876   -6.7124   -5.6355 H   0  0  0  1  0  0  0  0  0  0  0  0
    4.5472   -5.1545   -5.8589 H   0  0  0  1  0  0  0  0  0  0  0  0
   -0.9848    2.5773    2.6473 H   0  0  0  1  0  0  0  0  0  0  0  0
   -1.7146    1.6643    1.3481 H   0  0  0  1  0  0  0  0  0  0  0  0
   -2.9289    3.3759    4.9890 H   0  0  0  1  0  0  0  0  0  0  0  0
   -4.5338    5.1673    4.9934 H   0  0  0  1  0  0  0  0  0  0  0  0
   -5.9575    4.0395    1.3375 H   0  0  0  1  0  0  0  0  0  0  0  0
   -4.3838    2.2198    1.2204 H   0  0  0  1  0  0  0  0  0  0  0  0
  1  3  4  0  0  0  0
  1 14  4  0  0  0  0
  1 21  1  0  0  0  0
  2 14  4  0  0  0  0
  2 15  4  0  0  0  0
  2 30  1  0  0  0  0
  3 16  4  0  0  0  0
  4  5  4  0  0  0  0
  4  7  4  0  0  0  0
  4 17  1  0  0  0  0
  5  9  4  0  0  0  0
  5 31  1  0  0  0  0
  6  7  4  0  0  0  0
  6  8  4  0  0  0  0
  6 32  1  0  0  0  0
  7 33  1  0  0  0  0
  8  9  4  0  0  0  0
  8 20  1  0  0  0  0
  9 34  1  0  0  0  0
 10 11  1  0  0  0  0
 10 21  1  0  0  0  0
 10 24  1  0  0  0  0
 10 35  1  0  0  0  0
 11 12  1  0  0  0  0
 11 36  1  0  0  0  0
 11 37  1  0  0  0  0
 12 23  1  0  0  0  0
 12 38  1  0  0  0  0
 12 39  1  0  0  0  0
 13 23  1  0  0  0  0
 13 25  4  0  0  0  0
 13 29  4  0  0  0  0
 15 16  4  0  0  0  0
 15 18  4  0  0  0  0
 16 17  4  0  0  0  0
 17 19  4  0  0  0  0
 18 19  4  0  0  0  0
 20 22  1  0  0  0  0
 21 40  1  0  0  0  0
 22 41  1  0  0  0  0
 22 42  1  0  0  0  0
 22 43  1  0  0  0  0
 23 24  1  0  0  0  0
 24 44  1  0  0  0  0
 24 45  1  0  0  0  0
 25 26  4  0  0  0  0
 25 46  1  0  0  0  0
 26 27  4  0  0  0  0
 26 47  1  0  0  0  0
 27 28  4  0  0  0  0
 28 29  4  0  0  0  0
 28 48  1  0  0  0  0
 29 49  1  0  0  0  0
M  END
> <ConfClashScore>
0 

> <ConfOneFourInteractionScore>
-0.987833 

> <ConfScore>
-0.00525412 

> <ConfScorePBest>
0.00421966 

> <ConfTolerance>
0.440716 

> <HETNAM>
     OWQ A 303  OWQ                                                       

> <pdb_OW>
Q_303 -16.5129 3.80749 7.62812 0.15963 1.39178 -0.28144 -3.20151 0 0 0 -1.30514 0 0 0 0 0 0 0 0 -8.31393

$$$$
6yky_lig_1.pdb
 OpenBabel04162415593D

 49 53  0  0  0  0  0  0  0  0999 V2000
   -0.0607   -2.5399   -1.3425 C   0  0  0  1  0  0  0  0  0  0  0  0
   -0.1728   -2.6250   -3.6424 C   0  0  0  1  0  0  0  0  0  0  0  0
    0.6191   -1.4136   -1.3463 N   0  0  0  1  0  0  0  0  0  0  0  0
    2.2619    1.3392   -2.0877 C   0  0  0  1  0  0  0  0  0  0  0  0
    3.1167    2.2232   -2.7185 C   0  0  0  1  0  0  0  0  0  0  0  0
    2.7878    2.3366    0.0279 C   0  0  0  1  0  0  0  0  0  0  0  0
    2.0991    1.3941   -0.7122 C   0  0  0  1  0  0  0  0  0  0  0  0
    3.6453    3.2234   -0.6046 C   0  0  0  1  0  0  0  0  0  0  0  0
    3.8073    3.1684   -1.9761 C   0  0  0  1  0  0  0  0  0  0  0  0
   -0.1592   -2.4704    1.1283 C   0  0  0  1  0  0  0  0  0  0  0  0
   -0.8751   -3.2246    2.2102 C   0  0  0  1  0  0  0  0  0  0  0  0
   -2.3248   -2.6841    2.0624 C   0  0  0  1  0  0  0  0  0  0  0  0
   -3.0935   -0.3359    1.6433 C   0  0  0  1  0  0  0  0  0  0  0  0
   -0.4496   -3.1355   -2.4563 N   0  0  0  1  0  0  0  0  0  0  0  0
    0.5484   -1.4273   -3.7052 C   0  0  0  1  0  0  0  0  0  0  0  0
    0.9430   -0.8268   -2.4920 C   0  0  0  1  0  0  0  0  0  0  0  0
    1.6206    0.3100   -2.8360 N   0  0  0  1  0  0  0  0  0  0  0  0
    0.9938   -0.6462   -4.7134 N   0  0  0  1  0  0  0  0  0  0  0  0
    1.6215    0.3723   -4.2376 N   0  0  0  1  0  0  0  0  0  0  0  0
    4.3205    4.1386    0.1174 O   0  0  0  1  0  0  0  0  0  0  0  0
   -0.3730   -3.1091   -0.1586 N   0  0  0  1  0  0  0  0  0  0  0  0
    4.1041    4.0721    1.5462 C   0  0  0  1  0  0  0  0  0  0  0  0
   -2.0934   -1.3357    1.6140 N   0  0  0  1  0  0  0  0  0  0  0  0
   -0.7481   -1.0884    1.1297 C   0  0  0  1  0  0  0  0  0  0  0  0
   -4.4000   -0.6550    1.9643 C   0  0  0  1  0  0  0  0  0  0  0  0
   -5.3446    0.3534    1.9850 C   0  0  0  1  0  0  0  0  0  0  0  0
   -5.0631    1.6299    1.7064 N   0  0  0  1  0  0  0  0  0  0  0  0
   -3.7934    1.9243    1.3925 C   0  0  0  1  0  0  0  0  0  0  0  0
   -2.7841    0.9783    1.3516 C   0  0  0  1  0  0  0  0  0  0  0  0
   -0.4844   -3.1032   -4.5118 H   0  0  0  1  0  0  0  0  0  0  0  0
    3.2418    2.1793   -3.7500 H   0  0  0  1  0  0  0  0  0  0  0  0
    2.6627    2.3805    1.0594 H   0  0  0  1  0  0  0  0  0  0  0  0
    1.4589    0.7262   -0.2372 H   0  0  0  1  0  0  0  0  0  0  0  0
    4.4476    3.8363   -2.4512 H   0  0  0  1  0  0  0  0  0  0  0  0
    0.8896   -2.4280    1.3361 H   0  0  0  1  0  0  0  0  0  0  0  0
   -0.4714   -2.9997    3.1753 H   0  0  0  1  0  0  0  0  0  0  0  0
   -0.8334   -4.2806    2.0428 H   0  0  0  1  0  0  0  0  0  0  0  0
   -2.8777   -3.2455    1.3384 H   0  0  0  1  0  0  0  0  0  0  0  0
   -2.8434   -2.6995    2.9982 H   0  0  0  1  0  0  0  0  0  0  0  0
   -0.7673   -4.0062   -0.1682 H   0  0  0  1  0  0  0  0  0  0  0  0
    4.7688    4.7497    2.0400 H   0  0  0  1  0  0  0  0  0  0  0  0
    4.2912    3.0760    1.8890 H   0  0  0  1  0  0  0  0  0  0  0  0
    3.0922    4.3415    1.7663 H   0  0  0  1  0  0  0  0  0  0  0  0
   -0.7602   -0.6698    0.1450 H   0  0  0  1  0  0  0  0  0  0  0  0
   -0.2113   -0.4375    1.7878 H   0  0  0  1  0  0  0  0  0  0  0  0
   -4.6667   -1.6354    2.1861 H   0  0  0  1  0  0  0  0  0  0  0  0
   -6.3247    0.1064    2.2297 H   0  0  0  1  0  0  0  0  0  0  0  0
   -3.5553    2.9117    1.1689 H   0  0  0  1  0  0  0  0  0  0  0  0
   -1.8112    1.2516    1.1060 H   0  0  0  1  0  0  0  0  0  0  0  0
  1  3  4  0  0  0  0
  1 14  4  0  0  0  0
  1 21  1  0  0  0  0
  2 14  4  0  0  0  0
  2 15  4  0  0  0  0
  2 30  1  0  0  0  0
  3 16  4  0  0  0  0
  4  5  4  0  0  0  0
  4  7  4  0  0  0  0
  4 17  1  0  0  0  0
  5  9  4  0  0  0  0
  5 31  1  0  0  0  0
  6  7  4  0  0  0  0
  6  8  4  0  0  0  0
  6 32  1  0  0  0  0
  7 33  1  0  0  0  0
  8  9  4  0  0  0  0
  8 20  1  0  0  0  0
  9 34  1  0  0  0  0
 10 11  1  0  0  0  0
 10 21  1  0  0  0  0
 10 24  1  0  0  0  0
 10 35  1  0  0  0  0
 11 12  1  0  0  0  0
 11 36  1  0  0  0  0
 11 37  1  0  0  0  0
 12 23  1  0  0  0  0
 12 38  1  0  0  0  0
 12 39  1  0  0  0  0
 13 23  1  0  0  0  0
 13 25  4  0  0  0  0
 13 29  4  0  0  0  0
 15 16  4  0  0  0  0
 15 18  4  0  0  0  0
 16 17  4  0  0  0  0
 17 19  4  0  0  0  0
 18 19  4  0  0  0  0
 20 22  1  0  0  0  0
 21 40  1  0  0  0  0
 22 41  1  0  0  0  0
 22 42  1  0  0  0  0
 22 43  1  0  0  0  0
 23 24  1  0  0  0  0
 24 44  1  0  0  0  0
 24 45  1  0  0  0  0
 25 26  4  0  0  0  0
 25 46  1  0  0  0  0
 26 27  4  0  0  0  0
 26 47  1  0  0  0  0
 27 28  4  0  0  0  0
 28 29  4  0  0  0  0
 28 48  1  0  0  0  0
 29 49  1  0  0  0  0
M  END
> <ConfClashScore>
0 

> <ConfOneFourInteractionScore>
-0.987833 

> <ConfScore>
-0.00516869 

> <ConfScorePBest>
0.00420633 

> <ConfTolerance>
0.454127 

> <HETNAM>
     OWQ A 303  OWQ                                                       

> <pdb_OW>
Q_303 -16.5129 3.80749 7.62812 0.15963 1.39178 -0.28144 -3.20151 0 0 0 -1.30514 0 0 0 0 0 0 0 0 -8.31393

$$$$
6yky_lig_1.pdb
 OpenBabel04162415593D

 49 53  0  0  0  0  0  0  0  0999 V2000
    1.5640    0.3837    0.4002 C   0  0  0  1  0  0  0  0  0  0  0  0
    2.6334    2.0789   -0.7366 C   0  0  0  1  0  0  0  0  0  0  0  0
    1.2979   -0.2839   -0.7018 N   0  0  0  1  0  0  0  0  0  0  0  0
    0.9811   -1.3916   -3.7838 C   0  0  0  1  0  0  0  0  0  0  0  0
    1.0194   -1.5425   -5.1571 C   0  0  0  1  0  0  0  0  0  0  0  0
   -0.3518   -3.3758   -3.6008 C   0  0  0  1  0  0  0  0  0  0  0  0
    0.2922   -2.3081   -3.0047 C   0  0  0  1  0  0  0  0  0  0  0  0
   -0.3134   -3.5273   -4.9782 C   0  0  0  1  0  0  0  0  0  0  0  0
    0.3735   -2.6134   -5.7549 C   0  0  0  1  0  0  0  0  0  0  0  0
    1.4195    0.3781    2.9237 C   0  0  0  1  0  0  0  0  0  0  0  0
    0.6769   -0.4421    3.9374 C   0  0  0  1  0  0  0  0  0  0  0  0
   -0.7452    0.1808    3.8635 C   0  0  0  1  0  0  0  0  0  0  0  0
   -1.3643    2.5557    3.6804 C   0  0  0  1  0  0  0  0  0  0  0  0
    2.2137    1.5345    0.3910 N   0  0  0  1  0  0  0  0  0  0  0  0
    2.3773    1.4110   -1.9396 C   0  0  0  1  0  0  0  0  0  0  0  0
    1.6811    0.1862   -1.8826 C   0  0  0  1  0  0  0  0  0  0  0  0
    1.5673   -0.2442   -3.1755 N   0  0  0  1  0  0  0  0  0  0  0  0
    2.6511    1.6672   -3.2374 N   0  0  0  1  0  0  0  0  0  0  0  0
    2.1916    0.7210   -3.9799 N   0  0  0  1  0  0  0  0  0  0  0  0
   -0.9083   -4.5263   -5.6725 O   0  0  0  1  0  0  0  0  0  0  0  0
    1.1608   -0.1222    1.5796 N   0  0  0  1  0  0  0  0  0  0  0  0
   -1.8141   -5.3769   -4.9524 C   0  0  0  1  0  0  0  0  0  0  0  0
   -0.4506    1.5535    3.5450 N   0  0  0  1  0  0  0  0  0  0  0  0
    0.9008    1.7806    3.0677 C   0  0  0  1  0  0  0  0  0  0  0  0
   -2.6330    2.2294    4.1228 C   0  0  0  1  0  0  0  0  0  0  0  0
   -3.5663    3.2382    4.2675 C   0  0  0  1  0  0  0  0  0  0  0  0
   -3.3088    4.5217    3.9983 N   0  0  0  1  0  0  0  0  0  0  0  0
   -2.0761    4.8232    3.5661 C   0  0  0  1  0  0  0  0  0  0  0  0
   -1.0802    3.8772    3.3964 C   0  0  0  1  0  0  0  0  0  0  0  0
    3.1437    2.9850   -0.7308 H   0  0  0  1  0  0  0  0  0  0  0  0
    1.5329   -0.8526   -5.7419 H   0  0  0  1  0  0  0  0  0  0  0  0
   -0.8653   -4.0657   -3.0160 H   0  0  0  1  0  0  0  0  0  0  0  0
    0.2600   -2.1922   -1.9717 H   0  0  0  1  0  0  0  0  0  0  0  0
    0.4057   -2.7292   -6.7879 H   0  0  0  1  0  0  0  0  0  0  0  0
    2.4710    0.3485    3.1196 H   0  0  0  1  0  0  0  0  0  0  0  0
    0.6638   -1.4775    3.6677 H   0  0  0  1  0  0  0  0  0  0  0  0
    1.1005   -0.3327    4.9139 H   0  0  0  1  0  0  0  0  0  0  0  0
   -1.3324   -0.2794    3.0965 H   0  0  0  1  0  0  0  0  0  0  0  0
   -1.2550    0.0994    4.8008 H   0  0  0  1  0  0  0  0  0  0  0  0
    0.6197   -0.9377    1.5279 H   0  0  0  1  0  0  0  0  0  0  0  0
   -2.5508   -4.7778   -4.4591 H   0  0  0  1  0  0  0  0  0  0  0  0
   -1.2699   -5.9428   -4.2255 H   0  0  0  1  0  0  0  0  0  0  0  0
   -2.2965   -6.0437   -5.6361 H   0  0  0  1  0  0  0  0  0  0  0  0
    0.9005    2.2934    2.1286 H   0  0  0  1  0  0  0  0  0  0  0  0
    1.4758    2.3369    3.7782 H   0  0  0  1  0  0  0  0  0  0  0  0
   -2.8802    1.2434    4.3425 H   0  0  0  1  0  0  0  0  0  0  0  0
   -4.5177    2.9857    4.6031 H   0  0  0  1  0  0  0  0  0  0  0  0
   -1.8575    5.8162    3.3476 H   0  0  0  1  0  0  0  0  0  0  0  0
   -0.1359    4.1561    3.0615 H   0  0  0  1  0  0  0  0  0  0  0  0
  1  3  4  0  0  0  0
  1 14  4  0  0  0  0
  1 21  1  0  0  0  0
  2 14  4  0  0  0  0
  2 15  4  0  0  0  0
  2 30  1  0  0  0  0
  3 16  4  0  0  0  0
  4  5  4  0  0  0  0
  4  7  4  0  0  0  0
  4 17  1  0  0  0  0
  5  9  4  0  0  0  0
  5 31  1  0  0  0  0
  6  7  4  0  0  0  0
  6  8  4  0  0  0  0
  6 32  1  0  0  0  0
  7 33  1  0  0  0  0
  8  9  4  0  0  0  0
  8 20  1  0  0  0  0
  9 34  1  0  0  0  0
 10 11  1  0  0  0  0
 10 21  1  0  0  0  0
 10 24  1  0  0  0  0
 10 35  1  0  0  0  0
 11 12  1  0  0  0  0
 11 36  1  0  0  0  0
 11 37  1  0  0  0  0
 12 23  1  0  0  0  0
 12 38  1  0  0  0  0
 12 39  1  0  0  0  0
 13 23  1  0  0  0  0
 13 25  4  0  0  0  0
 13 29  4  0  0  0  0
 15 16  4  0  0  0  0
 15 18  4  0  0  0  0
 16 17  4  0  0  0  0
 17 19  4  0  0  0  0
 18 19  4  0  0  0  0
 20 22  1  0  0  0  0
 21 40  1  0  0  0  0
 22 41  1  0  0  0  0
 22 42  1  0  0  0  0
 22 43  1  0  0  0  0
 23 24  1  0  0  0  0
 24 44  1  0  0  0  0
 24 45  1  0  0  0  0
 25 26  4  0  0  0  0
 25 46  1  0  0  0  0
 26 27  4  0  0  0  0
 26 47  1  0  0  0  0
 27 28  4  0  0  0  0
 28 29  4  0  0  0  0
 28 48  1  0  0  0  0
 29 49  1  0  0  0  0
M  END
> <ConfClashScore>
0 

> <ConfOneFourInteractionScore>
-0.987833 

> <ConfScore>
-0.00516869 

> <ConfScorePBest>
0.004193 

> <ConfTolerance>
0.591377 

> <HETNAM>
     OWQ A 303  OWQ                                                       

> <pdb_OW>
Q_303 -16.5129 3.80749 7.62812 0.15963 1.39178 -0.28144 -3.20151 0 0 0 -1.30514 0 0 0 0 0 0 0 0 -8.31393

$$$$
6yky_lig_1.pdb
 OpenBabel04162415593D

 49 53  0  0  0  0  0  0  0  0999 V2000
    0.8720   -0.4345    1.0835 C   0  0  0  1  0  0  0  0  0  0  0  0
    2.6569   -0.8048    2.4928 C   0  0  0  1  0  0  0  0  0  0  0  0
    1.5062   -0.9182    0.0372 N   0  0  0  1  0  0  0  0  0  0  0  0
    3.6166   -2.0836   -2.1208 C   0  0  0  1  0  0  0  0  0  0  0  0
    4.7641   -1.9127   -2.8720 C   0  0  0  1  0  0  0  0  0  0  0  0
    2.3452   -2.3940   -4.1294 C   0  0  0  1  0  0  0  0  0  0  0  0
    2.4049   -2.3219   -2.7504 C   0  0  0  1  0  0  0  0  0  0  0  0
    3.4960   -2.2226   -4.8830 C   0  0  0  1  0  0  0  0  0  0  0  0
    4.7041   -1.9850   -4.2549 C   0  0  0  1  0  0  0  0  0  0  0  0
   -1.0480    0.5736    2.1441 C   0  0  0  1  0  0  0  0  0  0  0  0
   -2.0631   -0.4247    2.7437 C   0  0  0  1  0  0  0  0  0  0  0  0
   -3.2580    0.3680    3.2103 C   0  0  0  1  0  0  0  0  0  0  0  0
   -3.9339    2.7761    2.5523 C   0  0  0  1  0  0  0  0  0  0  0  0
    1.4257   -0.3760    2.2820 N   0  0  0  1  0  0  0  0  0  0  0  0
    3.3781   -1.3296    1.4143 C   0  0  0  1  0  0  0  0  0  0  0  0
    2.7479   -1.3725    0.1536 C   0  0  0  1  0  0  0  0  0  0  0  0
    3.6594   -1.9206   -0.7059 N   0  0  0  1  0  0  0  0  0  0  0  0
    4.6194   -1.8426    1.2699 N   0  0  0  1  0  0  0  0  0  0  0  0
    4.8112   -2.1950    0.0466 N   0  0  0  1  0  0  0  0  0  0  0  0
    3.5598   -2.2665   -6.2349 O   0  0  0  1  0  0  0  0  0  0  0  0
   -0.4319    0.0339    0.9235 N   0  0  0  1  0  0  0  0  0  0  0  0
    2.3364   -2.5240   -6.9416 C   0  0  0  1  0  0  0  0  0  0  0  0
   -3.0227    1.7154    2.4932 N   0  0  0  1  0  0  0  0  0  0  0  0
   -1.9111    1.7805    1.8329 C   0  0  0  1  0  0  0  0  0  0  0  0
   -5.0672    2.6887    3.3394 C   0  0  0  1  0  0  0  0  0  0  0  0
   -5.9384    3.7609    3.3716 C   0  0  0  1  0  0  0  0  0  0  0  0
   -5.7455    4.8855    2.6758 N   0  0  0  1  0  0  0  0  0  0  0  0
   -4.6449    4.9550    1.9135 C   0  0  0  1  0  0  0  0  0  0  0  0
   -3.7184    3.9306    1.8254 C   0  0  0  1  0  0  0  0  0  0  0  0
    3.0818   -0.7535    3.4406 H   0  0  0  1  0  0  0  0  0  0  0  0
    5.6724   -1.7298   -2.3997 H   0  0  0  1  0  0  0  0  0  0  0  0
    1.4369   -2.5769   -4.6016 H   0  0  0  1  0  0  0  0  0  0  0  0
    1.5408   -2.4465   -2.1852 H   0  0  0  1  0  0  0  0  0  0  0  0
    5.5682   -1.8604   -4.8201 H   0  0  0  1  0  0  0  0  0  0  0  0
   -0.2836    0.8183    2.8518 H   0  0  0  1  0  0  0  0  0  0  0  0
   -2.3626   -1.1323    1.9991 H   0  0  0  1  0  0  0  0  0  0  0  0
   -1.6223   -0.9413    3.5706 H   0  0  0  1  0  0  0  0  0  0  0  0
   -4.1755   -0.0865    2.8994 H   0  0  0  1  0  0  0  0  0  0  0  0
   -3.2598    0.4850    4.2739 H   0  0  0  1  0  0  0  0  0  0  0  0
   -0.9012    0.0055    0.0636 H   0  0  0  1  0  0  0  0  0  0  0  0
    1.8080   -3.3214   -6.4621 H   0  0  0  1  0  0  0  0  0  0  0  0
    2.5592   -2.8004   -7.9510 H   0  0  0  1  0  0  0  0  0  0  0  0
    1.7304   -1.6422   -6.9382 H   0  0  0  1  0  0  0  0  0  0  0  0
   -1.3869    2.6711    2.1100 H   0  0  0  1  0  0  0  0  0  0  0  0
   -2.1234    1.8025    0.7844 H   0  0  0  1  0  0  0  0  0  0  0  0
   -5.2604    1.8321    3.8967 H   0  0  0  1  0  0  0  0  0  0  0  0
   -6.7875    3.6890    3.9678 H   0  0  0  1  0  0  0  0  0  0  0  0
   -4.4792    5.8207    1.3615 H   0  0  0  1  0  0  0  0  0  0  0  0
   -2.8760    4.0284    1.2234 H   0  0  0  1  0  0  0  0  0  0  0  0
  1  3  4  0  0  0  0
  1 14  4  0  0  0  0
  1 21  1  0  0  0  0
  2 14  4  0  0  0  0
  2 15  4  0  0  0  0
  2 30  1  0  0  0  0
  3 16  4  0  0  0  0
  4  5  4  0  0  0  0
  4  7  4  0  0  0  0
  4 17  1  0  0  0  0
  5  9  4  0  0  0  0
  5 31  1  0  0  0  0
  6  7  4  0  0  0  0
  6  8  4  0  0  0  0
  6 32  1  0  0  0  0
  7 33  1  0  0  0  0
  8  9  4  0  0  0  0
  8 20  1  0  0  0  0
  9 34  1  0  0  0  0
 10 11  1  0  0  0  0
 10 21  1  0  0  0  0
 10 24  1  0  0  0  0
 10 35  1  0  0  0  0
 11 12  1  0  0  0  0
 11 36  1  0  0  0  0
 11 37  1  0  0  0  0
 12 23  1  0  0  0  0
 12 38  1  0  0  0  0
 12 39  1  0  0  0  0
 13 23  1  0  0  0  0
 13 25  4  0  0  0  0
 13 29  4  0  0  0  0
 15 16  4  0  0  0  0
 15 18  4  0  0  0  0
 16 17  4  0  0  0  0
 17 19  4  0  0  0  0
 18 19  4  0  0  0  0
 20 22  1  0  0  0  0
 21 40  1  0  0  0  0
 22 41  1  0  0  0  0
 22 42  1  0  0  0  0
 22 43  1  0  0  0  0
 23 24  1  0  0  0  0
 24 44  1  0  0  0  0
 24 45  1  0  0  0  0
 25 26  4  0  0  0  0
 25 46  1  0  0  0  0
 26 27  4  0  0  0  0
 26 47  1  0  0  0  0
 27 28  4  0  0  0  0
 28 29  4  0  0  0  0
 28 48  1  0  0  0  0
 29 49  1  0  0  0  0
M  END
> <ConfClashScore>
0 

> <ConfOneFourInteractionScore>
-0.986948 

> <ConfScore>
-0.00498885 

> <ConfScorePBest>
0.00417967 

> <ConfTolerance>
0.359445 

> <HETNAM>
     OWQ A 303  OWQ                                                       

> <pdb_OW>
Q_303 -16.5129 3.80749 7.62812 0.15963 1.39178 -0.28144 -3.20151 0 0 0 -1.30514 0 0 0 0 0 0 0 0 -8.31393

$$$$
6yky_lig_1.pdb
 OpenBabel04162415593D

 49 53  0  0  0  0  0  0  0  0999 V2000
    0.6196   -0.4688    1.0112 C   0  0  0  1  0  0  0  0  0  0  0  0
    2.1857   -0.6496    2.6917 C   0  0  0  1  0  0  0  0  0  0  0  0
    1.4708   -0.8430    0.0805 N   0  0  0  1  0  0  0  0  0  0  0  0
    4.0250   -1.8124   -1.6915 C   0  0  0  1  0  0  0  0  0  0  0  0
    5.2216   -2.3477   -2.1292 C   0  0  0  1  0  0  0  0  0  0  0  0
    3.2794   -1.6167   -3.9615 C   0  0  0  1  0  0  0  0  0  0  0  0
    3.0534   -1.4439   -2.6090 C   0  0  0  1  0  0  0  0  0  0  0  0
    4.4796   -2.1536   -4.4008 C   0  0  0  1  0  0  0  0  0  0  0  0
    5.4481   -2.5210   -3.4858 C   0  0  0  1  0  0  0  0  0  0  0  0
   -1.5684    0.3845    1.6712 C   0  0  0  1  0  0  0  0  0  0  0  0
   -2.6175   -0.6586    2.1461 C   0  0  0  1  0  0  0  0  0  0  0  0
   -3.8617    0.1192    2.6236 C   0  0  0  1  0  0  0  0  0  0  0  0
   -4.4578    2.5825    2.2827 C   0  0  0  1  0  0  0  0  0  0  0  0
    0.9604   -0.3724    2.2844 N   0  0  0  1  0  0  0  0  0  0  0  0
    3.1324   -1.0529    1.7432 C   0  0  0  1  0  0  0  0  0  0  0  0
    2.7249   -1.1419    0.3963 C   0  0  0  1  0  0  0  0  0  0  0  0
    3.8255   -1.5502   -0.3052 N   0  0  0  1  0  0  0  0  0  0  0  0
    4.4357   -1.4035    1.8014 N   0  0  0  1  0  0  0  0  0  0  0  0
    4.8659   -1.6981    0.6242 N   0  0  0  1  0  0  0  0  0  0  0  0
    4.8134   -2.3634   -5.6890 O   0  0  0  1  0  0  0  0  0  0  0  0
   -0.6792   -0.1650    0.6454 N   0  0  0  1  0  0  0  0  0  0  0  0
    3.7161   -2.2769   -6.6276 C   0  0  0  1  0  0  0  0  0  0  0  0
   -3.6614    1.4651    2.0158 N   0  0  0  1  0  0  0  0  0  0  0  0
   -2.5117    1.4590    1.0964 C   0  0  0  1  0  0  0  0  0  0  0  0
   -4.2434    3.7758    1.6181 C   0  0  0  1  0  0  0  0  0  0  0  0
   -5.0565    4.8545    1.9096 C   0  0  0  1  0  0  0  0  0  0  0  0
   -6.0448    4.8080    2.8081 N   0  0  0  1  0  0  0  0  0  0  0  0
   -6.2387    3.6461    3.4482 C   0  0  0  1  0  0  0  0  0  0  0  0
   -5.4744    2.5161    3.2154 C   0  0  0  1  0  0  0  0  0  0  0  0
    2.4417   -0.5700    3.6965 H   0  0  0  1  0  0  0  0  0  0  0  0
    5.9520   -2.6204   -1.4410 H   0  0  0  1  0  0  0  0  0  0  0  0
    2.5490   -1.3440   -4.6497 H   0  0  0  1  0  0  0  0  0  0  0  0
    2.1546   -1.0374   -2.2797 H   0  0  0  1  0  0  0  0  0  0  0  0
    6.3470   -2.9275   -3.8150 H   0  0  0  1  0  0  0  0  0  0  0  0
   -0.9849    0.7613    2.4851 H   0  0  0  1  0  0  0  0  0  0  0  0
   -2.2175   -1.2380    2.9519 H   0  0  0  1  0  0  0  0  0  0  0  0
   -2.8805   -1.3068    1.3364 H   0  0  0  1  0  0  0  0  0  0  0  0
   -3.8925    0.1791    3.6915 H   0  0  0  1  0  0  0  0  0  0  0  0
   -4.7616   -0.3356    2.2653 H   0  0  0  1  0  0  0  0  0  0  0  0
   -0.9944   -0.3128   -0.2707 H   0  0  0  1  0  0  0  0  0  0  0  0
    3.7296   -1.3198   -7.1057 H   0  0  0  1  0  0  0  0  0  0  0  0
    2.7902   -2.4018   -6.1060 H   0  0  0  1  0  0  0  0  0  0  0  0
    3.8168   -3.0453   -7.3654 H   0  0  0  1  0  0  0  0  0  0  0  0
   -2.8208    1.2004    0.1052 H   0  0  0  1  0  0  0  0  0  0  0  0
   -2.0325    2.4156    1.0830 H   0  0  0  1  0  0  0  0  0  0  0  0
   -3.4844    3.8600    0.9120 H   0  0  0  1  0  0  0  0  0  0  0  0
   -4.8909    5.7481    1.4040 H   0  0  0  1  0  0  0  0  0  0  0  0
   -7.0006    3.5913    4.1539 H   0  0  0  1  0  0  0  0  0  0  0  0
   -5.6618    1.6337    3.7330 H   0  0  0  1  0  0  0  0  0  0  0  0
  1  3  4  0  0  0  0
  1 14  4  0  0  0  0
  1 21  1  0  0  0  0
  2 14  4  0  0  0  0
  2 15  4  0  0  0  0
  2 30  1  0  0  0  0
  3 16  4  0  0  0  0
  4  5  4  0  0  0  0
  4  7  4  0  0  0  0
  4 17  1  0  0  0  0
  5  9  4  0  0  0  0
  5 31  1  0  0  0  0
  6  7  4  0  0  0  0
  6  8  4  0  0  0  0
  6 32  1  0  0  0  0
  7 33  1  0  0  0  0
  8  9  4  0  0  0  0
  8 20  1  0  0  0  0
  9 34  1  0  0  0  0
 10 11  1  0  0  0  0
 10 21  1  0  0  0  0
 10 24  1  0  0  0  0
 10 35  1  0  0  0  0
 11 12  1  0  0  0  0
 11 36  1  0  0  0  0
 11 37  1  0  0  0  0
 12 23  1  0  0  0  0
 12 38  1  0  0  0  0
 12 39  1  0  0  0  0
 13 23  1  0  0  0  0
 13 25  4  0  0  0  0
 13 29  4  0  0  0  0
 15 16  4  0  0  0  0
 15 18  4  0  0  0  0
 16 17  4  0  0  0  0
 17 19  4  0  0  0  0
 18 19  4  0  0  0  0
 20 22  1  0  0  0  0
 21 40  1  0  0  0  0
 22 41  1  0  0  0  0
 22 42  1  0  0  0  0
 22 43  1  0  0  0  0
 23 24  1  0  0  0  0
 24 44  1  0  0  0  0
 24 45  1  0  0  0  0
 25 26  4  0  0  0  0
 25 46  1  0  0  0  0
 26 27  4  0  0  0  0
 26 47  1  0  0  0  0
 27 28  4  0  0  0  0
 28 29  4  0  0  0  0
 28 48  1  0  0  0  0
 29 49  1  0  0  0  0
M  END
> <ConfClashScore>
0 

> <ConfOneFourInteractionScore>
-0.986948 

> <ConfScore>
-0.00485713 

> <ConfScorePBest>
0.00416634 

> <ConfTolerance>
0.348445 

> <HETNAM>
     OWQ A 303  OWQ                                                       

> <pdb_OW>
Q_303 -16.5129 3.80749 7.62812 0.15963 1.39178 -0.28144 -3.20151 0 0 0 -1.30514 0 0 0 0 0 0 0 0 -8.31393

$$$$
6yky_lig_1.pdb
 OpenBabel04162415593D

 49 53  0  0  0  0  0  0  0  0999 V2000
    0.7688    0.1557    0.8697 C   0  0  0  1  0  0  0  0  0  0  0  0
    2.2990    1.7928    1.4065 C   0  0  0  1  0  0  0  0  0  0  0  0
    1.5460   -0.3677   -0.0538 N   0  0  0  1  0  0  0  0  0  0  0  0
    3.9079   -1.1557   -2.1524 C   0  0  0  1  0  0  0  0  0  0  0  0
    5.1636   -1.4787   -2.6310 C   0  0  0  1  0  0  0  0  0  0  0  0
    2.9176   -2.6798   -3.7155 C   0  0  0  1  0  0  0  0  0  0  0  0
    2.7830   -1.7551   -2.6972 C   0  0  0  1  0  0  0  0  0  0  0  0
    4.1770   -3.0039   -4.1957 C   0  0  0  1  0  0  0  0  0  0  0  0
    5.2984   -2.4061   -3.6523 C   0  0  0  1  0  0  0  0  0  0  0  0
   -1.2897    0.1693    2.2211 C   0  0  0  1  0  0  0  0  0  0  0  0
   -2.3486   -0.8405    2.6367 C   0  0  0  1  0  0  0  0  0  0  0  0
   -3.4114    0.0273    3.2867 C   0  0  0  1  0  0  0  0  0  0  0  0
   -4.3693    2.2491    2.4910 C   0  0  0  1  0  0  0  0  0  0  0  0
    1.1286    1.2074    1.5845 N   0  0  0  1  0  0  0  0  0  0  0  0
    3.1660    1.2770    0.4365 C   0  0  0  1  0  0  0  0  0  0  0  0
    2.7410    0.1539   -0.3026 C   0  0  0  1  0  0  0  0  0  0  0  0
    3.7604   -0.1379   -1.1661 N   0  0  0  1  0  0  0  0  0  0  0  0
    4.3995    1.6125   -0.0002 N   0  0  0  1  0  0  0  0  0  0  0  0
    4.7713    0.8065   -0.9329 N   0  0  0  1  0  0  0  0  0  0  0  0
    4.4320   -3.8879   -5.1893 O   0  0  0  1  0  0  0  0  0  0  0  0
   -0.4663   -0.3596    1.1480 N   0  0  0  1  0  0  0  0  0  0  0  0
    3.3035   -4.4152   -5.9042 C   0  0  0  1  0  0  0  0  0  0  0  0
   -3.3473    1.2713    2.5059 N   0  0  0  1  0  0  0  0  0  0  0  0
   -2.0945    1.3791    1.7419 C   0  0  0  1  0  0  0  0  0  0  0  0
   -5.2914    2.2892    1.4616 C   0  0  0  1  0  0  0  0  0  0  0  0
   -6.2758    3.2587    1.4884 C   0  0  0  1  0  0  0  0  0  0  0  0
   -6.3844    4.1689    2.4610 N   0  0  0  1  0  0  0  0  0  0  0  0
   -5.4811    4.1211    3.4504 C   0  0  0  1  0  0  0  0  0  0  0  0
   -4.4655    3.1826    3.5045 C   0  0  0  1  0  0  0  0  0  0  0  0
    2.5707    2.6199    1.9753 H   0  0  0  1  0  0  0  0  0  0  0  0
    6.0072   -1.0259   -2.2249 H   0  0  0  1  0  0  0  0  0  0  0  0
    2.0739   -3.1326   -4.1216 H   0  0  0  1  0  0  0  0  0  0  0  0
    1.8379   -1.5089   -2.3398 H   0  0  0  1  0  0  0  0  0  0  0  0
    6.2436   -2.6522   -4.0097 H   0  0  0  1  0  0  0  0  0  0  0  0
   -0.6684    0.4316    3.0519 H   0  0  0  1  0  0  0  0  0  0  0  0
   -2.7416   -1.3575    1.7863 H   0  0  0  1  0  0  0  0  0  0  0  0
   -1.9517   -1.5490    3.3335 H   0  0  0  1  0  0  0  0  0  0  0  0
   -4.3777   -0.4257    3.2090 H   0  0  0  1  0  0  0  0  0  0  0  0
   -3.1833    0.2078    4.3164 H   0  0  0  1  0  0  0  0  0  0  0  0
   -0.8049   -1.1051    0.6096 H   0  0  0  1  0  0  0  0  0  0  0  0
    2.6910   -4.9834   -5.2357 H   0  0  0  1  0  0  0  0  0  0  0  0
    3.6470   -5.0467   -6.6967 H   0  0  0  1  0  0  0  0  0  0  0  0
    2.7317   -3.6083   -6.3127 H   0  0  0  1  0  0  0  0  0  0  0  0
   -1.5850    2.2927    1.9670 H   0  0  0  1  0  0  0  0  0  0  0  0
   -2.2807    1.3239    0.6897 H   0  0  0  1  0  0  0  0  0  0  0  0
   -5.2451    1.6026    0.6818 H   0  0  0  1  0  0  0  0  0  0  0  0
   -6.9674    3.2811    0.7121 H   0  0  0  1  0  0  0  0  0  0  0  0
   -5.5468    4.8236    4.2146 H   0  0  0  1  0  0  0  0  0  0  0  0
   -3.7876    3.1802    4.2932 H   0  0  0  1  0  0  0  0  0  0  0  0
  1  3  4  0  0  0  0
  1 14  4  0  0  0  0
  1 21  1  0  0  0  0
  2 14  4  0  0  0  0
  2 15  4  0  0  0  0
  2 30  1  0  0  0  0
  3 16  4  0  0  0  0
  4  5  4  0  0  0  0
  4  7  4  0  0  0  0
  4 17  1  0  0  0  0
  5  9  4  0  0  0  0
  5 31  1  0  0  0  0
  6  7  4  0  0  0  0
  6  8  4  0  0  0  0
  6 32  1  0  0  0  0
  7 33  1  0  0  0  0
  8  9  4  0  0  0  0
  8 20  1  0  0  0  0
  9 34  1  0  0  0  0
 10 11  1  0  0  0  0
 10 21  1  0  0  0  0
 10 24  1  0  0  0  0
 10 35  1  0  0  0  0
 11 12  1  0  0  0  0
 11 36  1  0  0  0  0
 11 37  1  0  0  0  0
 12 23  1  0  0  0  0
 12 38  1  0  0  0  0
 12 39  1  0  0  0  0
 13 23  1  0  0  0  0
 13 25  4  0  0  0  0
 13 29  4  0  0  0  0
 15 16  4  0  0  0  0
 15 18  4  0  0  0  0
 16 17  4  0  0  0  0
 17 19  4  0  0  0  0
 18 19  4  0  0  0  0
 20 22  1  0  0  0  0
 21 40  1  0  0  0  0
 22 41  1  0  0  0  0
 22 42  1  0  0  0  0
 22 43  1  0  0  0  0
 23 24  1  0  0  0  0
 24 44  1  0  0  0  0
 24 45  1  0  0  0  0
 25 26  4  0  0  0  0
 25 46  1  0  0  0  0
 26 27  4  0  0  0  0
 26 47  1  0  0  0  0
 27 28  4  0  0  0  0
 28 29  4  0  0  0  0
 28 48  1  0  0  0  0
 29 49  1  0  0  0  0
M  END
> <ConfClashScore>
0 

> <ConfOneFourInteractionScore>
-0.986948 

> <ConfScore>
-0.00468412 

> <ConfScorePBest>
0.00415302 

> <ConfTolerance>
0.489742 

> <HETNAM>
     OWQ A 303  OWQ                                                       

> <pdb_OW>
Q_303 -16.5129 3.80749 7.62812 0.15963 1.39178 -0.28144 -3.20151 0 0 0 -1.30514 0 0 0 0 0 0 0 0 -8.31393

$$$$
6yky_lig_1.pdb
 OpenBabel04162415593D

 49 53  0  0  0  0  0  0  0  0999 V2000
    0.5401   -0.8645    1.1645 C   0  0  0  1  0  0  0  0  0  0  0  0
    1.4166   -2.6980    2.2506 C   0  0  0  1  0  0  0  0  0  0  0  0
    1.1250   -1.1701    0.0263 N   0  0  0  1  0  0  0  0  0  0  0  0
    2.8201   -2.4690   -2.4318 C   0  0  0  1  0  0  0  0  0  0  0  0
    4.0483   -2.6840   -3.0281 C   0  0  0  1  0  0  0  0  0  0  0  0
    2.0430   -1.3787   -4.4204 C   0  0  0  1  0  0  0  0  0  0  0  0
    1.8168   -1.8131   -3.1279 C   0  0  0  1  0  0  0  0  0  0  0  0
    3.2748   -1.5942   -5.0186 C   0  0  0  1  0  0  0  0  0  0  0  0
    4.2750   -2.2482   -4.3243 C   0  0  0  1  0  0  0  0  0  0  0  0
   -0.8347    0.8094    2.3728 C   0  0  0  1  0  0  0  0  0  0  0  0
   -1.8404   -0.1866    2.9921 C   0  0  0  1  0  0  0  0  0  0  0  0
   -3.0420    0.6040    3.4449 C   0  0  0  1  0  0  0  0  0  0  0  0
   -3.7465    3.0007    2.7427 C   0  0  0  1  0  0  0  0  0  0  0  0
    0.6775   -1.6035    2.2515 N   0  0  0  1  0  0  0  0  0  0  0  0
    2.0619   -3.0703    1.0659 C   0  0  0  1  0  0  0  0  0  0  0  0
    1.8874   -2.2524   -0.0693 C   0  0  0  1  0  0  0  0  0  0  0  0
    2.6143   -2.8352   -1.0703 N   0  0  0  1  0  0  0  0  0  0  0  0
    2.8704   -4.0937    0.7137 N   0  0  0  1  0  0  0  0  0  0  0  0
    3.2078   -3.9831   -0.5239 N   0  0  0  1  0  0  0  0  0  0  0  0
    3.3808   -1.1204   -6.2828 O   0  0  0  1  0  0  0  0  0  0  0  0
   -0.2222    0.2589    1.1762 N   0  0  0  1  0  0  0  0  0  0  0  0
    4.6900   -1.1123   -6.8729 C   0  0  0  1  0  0  0  0  0  0  0  0
   -2.8193    1.9397    2.7024 N   0  0  0  1  0  0  0  0  0  0  0  0
   -1.7089    2.0023    2.0399 C   0  0  0  1  0  0  0  0  0  0  0  0
   -3.6574    4.0458    3.6435 C   0  0  0  1  0  0  0  0  0  0  0  0
   -4.6137    5.0425    3.6020 C   0  0  0  1  0  0  0  0  0  0  0  0
   -5.6298    5.0502    2.7339 N   0  0  0  1  0  0  0  0  0  0  0  0
   -5.7065    4.0286    1.8691 C   0  0  0  1  0  0  0  0  0  0  0  0
   -4.7906    2.9915    1.8385 C   0  0  0  1  0  0  0  0  0  0  0  0
    1.5170   -3.2713    3.1125 H   0  0  0  1  0  0  0  0  0  0  0  0
    4.8023   -3.1725   -2.5043 H   0  0  0  1  0  0  0  0  0  0  0  0
    1.2890   -0.8901   -4.9442 H   0  0  0  1  0  0  0  0  0  0  0  0
    0.8940   -1.6478   -2.6777 H   0  0  0  1  0  0  0  0  0  0  0  0
    5.1979   -2.4135   -4.7745 H   0  0  0  1  0  0  0  0  0  0  0  0
   -0.0720    1.0741    3.0750 H   0  0  0  1  0  0  0  0  0  0  0  0
   -1.3942   -0.6835    3.8281 H   0  0  0  1  0  0  0  0  0  0  0  0
   -2.1341   -0.9107    2.2612 H   0  0  0  1  0  0  0  0  0  0  0  0
   -3.9556    0.1356    3.1435 H   0  0  0  1  0  0  0  0  0  0  0  0
   -3.0439    0.7410    4.5060 H   0  0  0  1  0  0  0  0  0  0  0  0
   -0.3678    0.7261    0.3272 H   0  0  0  1  0  0  0  0  0  0  0  0
    4.6482   -0.6323   -7.8283 H   0  0  0  1  0  0  0  0  0  0  0  0
    5.0325   -2.1187   -6.9943 H   0  0  0  1  0  0  0  0  0  0  0  0
    5.3648   -0.5797   -6.2357 H   0  0  0  1  0  0  0  0  0  0  0  0
   -1.1924    2.9027    2.2996 H   0  0  0  1  0  0  0  0  0  0  0  0
   -1.9223    2.0027    0.9913 H   0  0  0  1  0  0  0  0  0  0  0  0
   -2.8852    4.0811    4.3393 H   0  0  0  1  0  0  0  0  0  0  0  0
   -4.5388    5.8267    4.2810 H   0  0  0  1  0  0  0  0  0  0  0  0
   -6.4924    4.0148    1.1882 H   0  0  0  1  0  0  0  0  0  0  0  0
   -4.8867    2.2199    1.1479 H   0  0  0  1  0  0  0  0  0  0  0  0
  1  3  4  0  0  0  0
  1 14  4  0  0  0  0
  1 21  1  0  0  0  0
  2 14  4  0  0  0  0
  2 15  4  0  0  0  0
  2 30  1  0  0  0  0
  3 16  4  0  0  0  0
  4  5  4  0  0  0  0
  4  7  4  0  0  0  0
  4 17  1  0  0  0  0
  5  9  4  0  0  0  0
  5 31  1  0  0  0  0
  6  7  4  0  0  0  0
  6  8  4  0  0  0  0
  6 32  1  0  0  0  0
  7 33  1  0  0  0  0
  8  9  4  0  0  0  0
  8 20  1  0  0  0  0
  9 34  1  0  0  0  0
 10 11  1  0  0  0  0
 10 21  1  0  0  0  0
 10 24  1  0  0  0  0
 10 35  1  0  0  0  0
 11 12  1  0  0  0  0
 11 36  1  0  0  0  0
 11 37  1  0  0  0  0
 12 23  1  0  0  0  0
 12 38  1  0  0  0  0
 12 39  1  0  0  0  0
 13 23  1  0  0  0  0
 13 25  4  0  0  0  0
 13 29  4  0  0  0  0
 15 16  4  0  0  0  0
 15 18  4  0  0  0  0
 16 17  4  0  0  0  0
 17 19  4  0  0  0  0
 18 19  4  0  0  0  0
 20 22  1  0  0  0  0
 21 40  1  0  0  0  0
 22 41  1  0  0  0  0
 22 42  1  0  0  0  0
 22 43  1  0  0  0  0
 23 24  1  0  0  0  0
 24 44  1  0  0  0  0
 24 45  1  0  0  0  0
 25 26  4  0  0  0  0
 25 46  1  0  0  0  0
 26 27  4  0  0  0  0
 26 47  1  0  0  0  0
 27 28  4  0  0  0  0
 28 29  4  0  0  0  0
 28 48  1  0  0  0  0
 29 49  1  0  0  0  0
M  END
> <ConfClashScore>
0 

> <ConfOneFourInteractionScore>
-0.987833 

> <ConfScore>
-0.00442514 

> <ConfScorePBest>
0.00413969 

> <ConfTolerance>
0.480282 

> <HETNAM>
     OWQ A 303  OWQ                                                       

> <pdb_OW>
Q_303 -16.5129 3.80749 7.62812 0.15963 1.39178 -0.28144 -3.20151 0 0 0 -1.30514 0 0 0 0 0 0 0 0 -8.31393

$$$$
6yky_lig_1.pdb
 OpenBabel04162415593D

 49 53  0  0  0  0  0  0  0  0999 V2000
    0.5673    0.3744    0.5514 C   0  0  0  1  0  0  0  0  0  0  0  0
    2.0069    2.1732    0.5851 C   0  0  0  1  0  0  0  0  0  0  0  0
    1.2484   -0.2439   -0.3892 N   0  0  0  1  0  0  0  0  0  0  0  0
    3.4051   -1.2530   -2.6163 C   0  0  0  1  0  0  0  0  0  0  0  0
    2.3532   -2.1495   -2.6234 C   0  0  0  1  0  0  0  0  0  0  0  0
    4.7199   -2.7821   -3.9126 C   0  0  0  1  0  0  0  0  0  0  0  0
    4.5911   -1.5708   -3.2595 C   0  0  0  1  0  0  0  0  0  0  0  0
    3.6650   -3.6814   -3.9198 C   0  0  0  1  0  0  0  0  0  0  0  0
    2.4825   -3.3643   -3.2784 C   0  0  0  1  0  0  0  0  0  0  0  0
   -1.4115    0.3213    2.0909 C   0  0  0  1  0  0  0  0  0  0  0  0
   -2.4781   -0.7164    2.5378 C   0  0  0  1  0  0  0  0  0  0  0  0
   -3.7048    0.0692    3.0470 C   0  0  0  1  0  0  0  0  0  0  0  0
   -4.2423    2.5350    2.7837 C   0  0  0  1  0  0  0  0  0  0  0  0
    0.9304    1.5513    1.0306 N   0  0  0  1  0  0  0  0  0  0  0  0
    2.7692    1.5605   -0.4159 C   0  0  0  1  0  0  0  0  0  0  0  0
    2.3446    0.3053   -0.8977 C   0  0  0  1  0  0  0  0  0  0  0  0
    3.2525   -0.0595   -1.8530 N   0  0  0  1  0  0  0  0  0  0  0  0
    3.8933    1.8978   -1.0850 N   0  0  0  1  0  0  0  0  0  0  0  0
    4.1985    0.9738   -1.9280 N   0  0  0  1  0  0  0  0  0  0  0  0
    3.7881   -4.9139   -4.4497 O   0  0  0  1  0  0  0  0  0  0  0  0
   -0.5390   -0.2113    1.0440 N   0  0  0  1  0  0  0  0  0  0  0  0
    5.0449   -5.1698   -5.1187 C   0  0  0  1  0  0  0  0  0  0  0  0
   -3.4815    1.4300    2.4816 N   0  0  0  1  0  0  0  0  0  0  0  0
   -2.3367    1.4315    1.5562 C   0  0  0  1  0  0  0  0  0  0  0  0
   -5.3514    2.3651    3.5917 C   0  0  0  1  0  0  0  0  0  0  0  0
   -6.1209    3.4694    3.9049 C   0  0  0  1  0  0  0  0  0  0  0  0
   -5.8515    4.7019    3.4638 N   0  0  0  1  0  0  0  0  0  0  0  0
   -4.7758    4.8513    2.6778 C   0  0  0  1  0  0  0  0  0  0  0  0
   -3.9488    3.8016    2.3177 C   0  0  0  1  0  0  0  0  0  0  0  0
    2.2824    3.0992    0.9702 H   0  0  0  1  0  0  0  0  0  0  0  0
    1.4648   -1.9127   -2.1374 H   0  0  0  1  0  0  0  0  0  0  0  0
    5.6083   -3.0189   -4.3986 H   0  0  0  1  0  0  0  0  0  0  0  0
    5.3840   -0.8979   -3.2507 H   0  0  0  1  0  0  0  0  0  0  0  0
    1.6896   -4.0372   -3.2872 H   0  0  0  1  0  0  0  0  0  0  0  0
   -0.8168    0.6603    2.9132 H   0  0  0  1  0  0  0  0  0  0  0  0
   -2.7576   -1.3329    1.7091 H   0  0  0  1  0  0  0  0  0  0  0  0
   -2.0854   -1.3290    3.3223 H   0  0  0  1  0  0  0  0  0  0  0  0
   -4.6150   -0.3564    2.6792 H   0  0  0  1  0  0  0  0  0  0  0  0
   -3.7291    0.0953    4.1164 H   0  0  0  1  0  0  0  0  0  0  0  0
   -0.7848   -1.0806    0.6642 H   0  0  0  1  0  0  0  0  0  0  0  0
    5.8545   -4.8983   -4.4739 H   0  0  0  1  0  0  0  0  0  0  0  0
    5.0950   -4.5905   -6.0169 H   0  0  0  1  0  0  0  0  0  0  0  0
    5.1149   -6.2098   -5.3601 H   0  0  0  1  0  0  0  0  0  0  0  0
   -2.6557    1.2110    0.5589 H   0  0  0  1  0  0  0  0  0  0  0  0
   -1.8392    2.3787    1.5709 H   0  0  0  1  0  0  0  0  0  0  0  0
   -5.6018    1.4241    3.9568 H   0  0  0  1  0  0  0  0  0  0  0  0
   -6.9521    3.3345    4.5152 H   0  0  0  1  0  0  0  0  0  0  0  0
   -4.5518    5.8023    2.3213 H   0  0  0  1  0  0  0  0  0  0  0  0
   -3.1221    3.9635    1.7078 H   0  0  0  1  0  0  0  0  0  0  0  0
  1  3  4  0  0  0  0
  1 14  4  0  0  0  0
  1 21  1  0  0  0  0
  2 14  4  0  0  0  0
  2 15  4  0  0  0  0
  2 30  1  0  0  0  0
  3 16  4  0  0  0  0
  4  5  4  0  0  0  0
  4  7  4  0  0  0  0
  4 17  1  0  0  0  0
  5  9  4  0  0  0  0
  5 31  1  0  0  0  0
  6  7  4  0  0  0  0
  6  8  4  0  0  0  0
  6 32  1  0  0  0  0
  7 33  1  0  0  0  0
  8  9  4  0  0  0  0
  8 20  1  0  0  0  0
  9 34  1  0  0  0  0
 10 11  1  0  0  0  0
 10 21  1  0  0  0  0
 10 24  1  0  0  0  0
 10 35  1  0  0  0  0
 11 12  1  0  0  0  0
 11 36  1  0  0  0  0
 11 37  1  0  0  0  0
 12 23  1  0  0  0  0
 12 38  1  0  0  0  0
 12 39  1  0  0  0  0
 13 23  1  0  0  0  0
 13 25  4  0  0  0  0
 13 29  4  0  0  0  0
 15 16  4  0  0  0  0
 15 18  4  0  0  0  0
 16 17  4  0  0  0  0
 17 19  4  0  0  0  0
 18 19  4  0  0  0  0
 20 22  1  0  0  0  0
 21 40  1  0  0  0  0
 22 41  1  0  0  0  0
 22 42  1  0  0  0  0
 22 43  1  0  0  0  0
 23 24  1  0  0  0  0
 24 44  1  0  0  0  0
 24 45  1  0  0  0  0
 25 26  4  0  0  0  0
 25 46  1  0  0  0  0
 26 27  4  0  0  0  0
 26 47  1  0  0  0  0
 27 28  4  0  0  0  0
 28 29  4  0  0  0  0
 28 48  1  0  0  0  0
 29 49  1  0  0  0  0
M  END
> <ConfClashScore>
0 

> <ConfOneFourInteractionScore>
-0.984874 

> <ConfScore>
-0.00388559 

> <ConfScorePBest>
0.00412636 

> <ConfTolerance>
0.403098 

> <HETNAM>
     OWQ A 303  OWQ                                                       

> <pdb_OW>
Q_303 -16.5129 3.80749 7.62812 0.15963 1.39178 -0.28144 -3.20151 0 0 0 -1.30514 0 0 0 0 0 0 0 0 -8.31393

$$$$
6yky_lig_1.pdb
 OpenBabel04162415593D

 49 53  0  0  0  0  0  0  0  0999 V2000
   -0.0932   -0.0553   -2.4742 C   0  0  0  1  0  0  0  0  0  0  0  0
    0.1230   -1.5825   -4.1861 C   0  0  0  1  0  0  0  0  0  0  0  0
    0.6033   -0.7908   -1.6347 N   0  0  0  1  0  0  0  0  0  0  0  0
    2.2836   -3.0603   -0.0640 C   0  0  0  1  0  0  0  0  0  0  0  0
    2.2711   -1.9590    0.7709 C   0  0  0  1  0  0  0  0  0  0  0  0
    3.3208   -4.3604    1.6627 C   0  0  0  1  0  0  0  0  0  0  0  0
    2.8116   -4.2621    0.3815 C   0  0  0  1  0  0  0  0  0  0  0  0
    3.3083   -3.2558    2.5002 C   0  0  0  1  0  0  0  0  0  0  0  0
    2.7818   -2.0577    2.0558 C   0  0  0  1  0  0  0  0  0  0  0  0
   -0.3299    1.6404   -0.7076 C   0  0  0  1  0  0  0  0  0  0  0  0
   -1.0722    0.8203    0.3064 C   0  0  0  1  0  0  0  0  0  0  0  0
   -2.4942    1.4435    0.2331 C   0  0  0  1  0  0  0  0  0  0  0  0
   -3.1206    3.8268    0.0514 C   0  0  0  1  0  0  0  0  0  0  0  0
   -0.3311   -0.4342   -3.7178 N   0  0  0  1  0  0  0  0  0  0  0  0
    0.8705   -2.4049   -3.3356 C   0  0  0  1  0  0  0  0  0  0  0  0
    1.0998   -1.9609   -2.0171 C   0  0  0  1  0  0  0  0  0  0  0  0
    1.8424   -2.9377   -1.4133 N   0  0  0  1  0  0  0  0  0  0  0  0
    1.4709   -3.6072   -3.4738 N   0  0  0  1  0  0  0  0  0  0  0  0
    2.0445   -3.9427   -2.3711 N   0  0  0  1  0  0  0  0  0  0  0  0
    3.7816   -3.2303    3.7687 O   0  0  0  1  0  0  0  0  0  0  0  0
   -0.5884    1.1419   -2.0470 N   0  0  0  1  0  0  0  0  0  0  0  0
    4.4213   -4.4208    4.2546 C   0  0  0  1  0  0  0  0  0  0  0  0
   -2.1995    2.8161   -0.0856 N   0  0  0  1  0  0  0  0  0  0  0  0
   -0.8483    3.0430   -0.5635 C   0  0  0  1  0  0  0  0  0  0  0  0
   -2.7470    5.1479   -0.1127 C   0  0  0  1  0  0  0  0  0  0  0  0
   -3.7061    6.1325    0.0300 C   0  0  0  1  0  0  0  0  0  0  0  0
   -4.9845    5.8760    0.3233 N   0  0  0  1  0  0  0  0  0  0  0  0
   -5.3319    4.5912    0.4839 C   0  0  0  1  0  0  0  0  0  0  0  0
   -4.4376    3.5428    0.3556 C   0  0  0  1  0  0  0  0  0  0  0  0
   -0.0709   -1.8696   -5.1667 H   0  0  0  1  0  0  0  0  0  0  0  0
    1.8787   -1.0563    0.4352 H   0  0  0  1  0  0  0  0  0  0  0  0
    3.7132   -5.2631    1.9984 H   0  0  0  1  0  0  0  0  0  0  0  0
    2.8246   -5.0897   -0.2482 H   0  0  0  1  0  0  0  0  0  0  0  0
    2.7688   -1.2301    2.6854 H   0  0  0  1  0  0  0  0  0  0  0  0
    0.7217    1.6106   -0.5122 H   0  0  0  1  0  0  0  0  0  0  0  0
   -1.0856   -0.2150    0.0367 H   0  0  0  1  0  0  0  0  0  0  0  0
   -0.6481    0.9297    1.2826 H   0  0  0  1  0  0  0  0  0  0  0  0
   -3.0818    0.9834   -0.5337 H   0  0  0  1  0  0  0  0  0  0  0  0
   -3.0036    1.3622    1.1706 H   0  0  0  1  0  0  0  0  0  0  0  0
   -1.1326    1.6794   -2.6597 H   0  0  0  1  0  0  0  0  0  0  0  0
    4.8729   -4.2216    5.2039 H   0  0  0  1  0  0  0  0  0  0  0  0
    5.1739   -4.7299    3.5597 H   0  0  0  1  0  0  0  0  0  0  0  0
    3.6936   -5.1979    4.3621 H   0  0  0  1  0  0  0  0  0  0  0  0
   -0.8489    3.5558   -1.5026 H   0  0  0  1  0  0  0  0  0  0  0  0
   -0.2728    3.5992    0.1468 H   0  0  0  1  0  0  0  0  0  0  0  0
   -1.7627    5.3959   -0.3392 H   0  0  0  1  0  0  0  0  0  0  0  0
   -3.4183    7.1237   -0.0972 H   0  0  0  1  0  0  0  0  0  0  0  0
   -6.3215    4.3716    0.7163 H   0  0  0  1  0  0  0  0  0  0  0  0
   -4.7512    2.5598    0.4857 H   0  0  0  1  0  0  0  0  0  0  0  0
  1  3  4  0  0  0  0
  1 14  4  0  0  0  0
  1 21  1  0  0  0  0
  2 14  4  0  0  0  0
  2 15  4  0  0  0  0
  2 30  1  0  0  0  0
  3 16  4  0  0  0  0
  4  5  4  0  0  0  0
  4  7  4  0  0  0  0
  4 17  1  0  0  0  0
  5  9  4  0  0  0  0
  5 31  1  0  0  0  0
  6  7  4  0  0  0  0
  6  8  4  0  0  0  0
  6 32  1  0  0  0  0
  7 33  1  0  0  0  0
  8  9  4  0  0  0  0
  8 20  1  0  0  0  0
  9 34  1  0  0  0  0
 10 11  1  0  0  0  0
 10 21  1  0  0  0  0
 10 24  1  0  0  0  0
 10 35  1  0  0  0  0
 11 12  1  0  0  0  0
 11 36  1  0  0  0  0
 11 37  1  0  0  0  0
 12 23  1  0  0  0  0
 12 38  1  0  0  0  0
 12 39  1  0  0  0  0
 13 23  1  0  0  0  0
 13 25  4  0  0  0  0
 13 29  4  0  0  0  0
 15 16  4  0  0  0  0
 15 18  4  0  0  0  0
 16 17  4  0  0  0  0
 17 19  4  0  0  0  0
 18 19  4  0  0  0  0
 20 22  1  0  0  0  0
 21 40  1  0  0  0  0
 22 41  1  0  0  0  0
 22 42  1  0  0  0  0
 22 43  1  0  0  0  0
 23 24  1  0  0  0  0
 24 44  1  0  0  0  0
 24 45  1  0  0  0  0
 25 26  4  0  0  0  0
 25 46  1  0  0  0  0
 26 27  4  0  0  0  0
 26 47  1  0  0  0  0
 27 28  4  0  0  0  0
 28 29  4  0  0  0  0
 28 48  1  0  0  0  0
 29 49  1  0  0  0  0
M  END
> <ConfClashScore>
0 

> <ConfOneFourInteractionScore>
-0.984874 

> <ConfScore>
-0.0038224 

> <ConfScorePBest>
0.00411303 

> <ConfTolerance>
0.470726 

> <HETNAM>
     OWQ A 303  OWQ                                                       

> <pdb_OW>
Q_303 -16.5129 3.80749 7.62812 0.15963 1.39178 -0.28144 -3.20151 0 0 0 -1.30514 0 0 0 0 0 0 0 0 -8.31393

$$$$
6yky_lig_1.pdb
 OpenBabel04162415593D

 49 53  0  0  0  0  0  0  0  0999 V2000
   -0.2992   -2.2687   -1.5878 C   0  0  0  1  0  0  0  0  0  0  0  0
    0.3938   -2.6772   -3.7471 C   0  0  0  1  0  0  0  0  0  0  0  0
    0.7617   -1.5423   -1.3091 N   0  0  0  1  0  0  0  0  0  0  0  0
    3.5227    0.2306   -1.3503 C   0  0  0  1  0  0  0  0  0  0  0  0
    2.7651    1.0880   -0.5750 C   0  0  0  1  0  0  0  0  0  0  0  0
    5.5289    1.2224   -0.4906 C   0  0  0  1  0  0  0  0  0  0  0  0
    4.9066    0.2996   -1.3101 C   0  0  0  1  0  0  0  0  0  0  0  0
    4.7691    2.0824    0.2871 C   0  0  0  1  0  0  0  0  0  0  0  0
    3.3893    2.0134    0.2468 C   0  0  0  1  0  0  0  0  0  0  0  0
   -1.0416   -1.8151    0.6899 C   0  0  0  1  0  0  0  0  0  0  0  0
   -1.7583   -2.5696    1.7711 C   0  0  0  1  0  0  0  0  0  0  0  0
   -3.2082   -2.0298    1.6216 C   0  0  0  1  0  0  0  0  0  0  0  0
   -3.9776    0.3180    1.2017 C   0  0  0  1  0  0  0  0  0  0  0  0
   -0.4851   -2.8243   -2.7724 N   0  0  0  1  0  0  0  0  0  0  0  0
    1.5416   -1.9138   -3.5054 C   0  0  0  1  0  0  0  0  0  0  0  0
    1.6988   -1.3397   -2.2271 C   0  0  0  1  0  0  0  0  0  0  0  0
    2.8843   -0.6591   -2.2619 N   0  0  0  1  0  0  0  0  0  0  0  0
    2.6157   -1.5649   -4.2466 N   0  0  0  1  0  0  0  0  0  0  0  0
    3.4142   -0.8346   -3.5491 N   0  0  0  1  0  0  0  0  0  0  0  0
    5.3759    3.0456    1.0075 O   0  0  0  1  0  0  0  0  0  0  0  0
   -1.2553   -2.4585   -0.6066 N   0  0  0  1  0  0  0  0  0  0  0  0
    4.4842    3.9005    1.7603 C   0  0  0  1  0  0  0  0  0  0  0  0
   -2.9770   -0.6813    1.1735 N   0  0  0  1  0  0  0  0  0  0  0  0
   -1.6313   -0.4333    0.6906 C   0  0  0  1  0  0  0  0  0  0  0  0
   -3.6912    1.6134    0.8123 C   0  0  0  1  0  0  0  0  0  0  0  0
   -4.6995    2.5575    0.8515 C   0  0  0  1  0  0  0  0  0  0  0  0
   -5.9456    2.2858    1.2513 N   0  0  0  1  0  0  0  0  0  0  0  0
   -6.2081    1.0269    1.6302 C   0  0  0  1  0  0  0  0  0  0  0  0
   -5.2599    0.0188    1.6187 C   0  0  0  1  0  0  0  0  0  0  0  0
    0.2362   -3.1195   -4.6751 H   0  0  0  1  0  0  0  0  0  0  0  0
    1.7268    1.0389   -0.6083 H   0  0  0  1  0  0  0  0  0  0  0  0
    6.5672    1.2715   -0.4573 H   0  0  0  1  0  0  0  0  0  0  0  0
    5.4766   -0.3429   -1.8965 H   0  0  0  1  0  0  0  0  0  0  0  0
    2.8193    2.6559    0.8332 H   0  0  0  1  0  0  0  0  0  0  0  0
    0.0069   -1.7721    0.8989 H   0  0  0  1  0  0  0  0  0  0  0  0
   -1.3558   -2.3445    2.7365 H   0  0  0  1  0  0  0  0  0  0  0  0
   -1.7159   -3.6256    1.6037 H   0  0  0  1  0  0  0  0  0  0  0  0
   -3.7599   -2.5915    0.8971 H   0  0  0  1  0  0  0  0  0  0  0  0
   -3.7277   -2.0455    2.5569 H   0  0  0  1  0  0  0  0  0  0  0  0
   -2.0503   -3.0064   -0.7744 H   0  0  0  1  0  0  0  0  0  0  0  0
    3.6186    4.1208    1.1711 H   0  0  0  1  0  0  0  0  0  0  0  0
    4.9881    4.8114    2.0077 H   0  0  0  1  0  0  0  0  0  0  0  0
    4.1863    3.4016    2.6588 H   0  0  0  1  0  0  0  0  0  0  0  0
   -1.6425   -0.0148   -0.2941 H   0  0  0  1  0  0  0  0  0  0  0  0
   -1.0955    0.2178    1.3493 H   0  0  0  1  0  0  0  0  0  0  0  0
   -2.7350    1.8723    0.4958 H   0  0  0  1  0  0  0  0  0  0  0  0
   -4.4774    3.5292    0.5548 H   0  0  0  1  0  0  0  0  0  0  0  0
   -7.1711    0.7967    1.9482 H   0  0  0  1  0  0  0  0  0  0  0  0
   -5.5083   -0.9456    1.9184 H   0  0  0  1  0  0  0  0  0  0  0  0
  1  3  4  0  0  0  0
  1 14  4  0  0  0  0
  1 21  1  0  0  0  0
  2 14  4  0  0  0  0
  2 15  4  0  0  0  0
  2 30  1  0  0  0  0
  3 16  4  0  0  0  0
  4  5  4  0  0  0  0
  4  7  4  0  0  0  0
  4 17  1  0  0  0  0
  5  9  4  0  0  0  0
  5 31  1  0  0  0  0
  6  7  4  0  0  0  0
  6  8  4  0  0  0  0
  6 32  1  0  0  0  0
  7 33  1  0  0  0  0
  8  9  4  0  0  0  0
  8 20  1  0  0  0  0
  9 34  1  0  0  0  0
 10 11  1  0  0  0  0
 10 21  1  0  0  0  0
 10 24  1  0  0  0  0
 10 35  1  0  0  0  0
 11 12  1  0  0  0  0
 11 36  1  0  0  0  0
 11 37  1  0  0  0  0
 12 23  1  0  0  0  0
 12 38  1  0  0  0  0
 12 39  1  0  0  0  0
 13 23  1  0  0  0  0
 13 25  4  0  0  0  0
 13 29  4  0  0  0  0
 15 16  4  0  0  0  0
 15 18  4  0  0  0  0
 16 17  4  0  0  0  0
 17 19  4  0  0  0  0
 18 19  4  0  0  0  0
 20 22  1  0  0  0  0
 21 40  1  0  0  0  0
 22 41  1  0  0  0  0
 22 42  1  0  0  0  0
 22 43  1  0  0  0  0
 23 24  1  0  0  0  0
 24 44  1  0  0  0  0
 24 45  1  0  0  0  0
 25 26  4  0  0  0  0
 25 46  1  0  0  0  0
 26 27  4  0  0  0  0
 26 47  1  0  0  0  0
 27 28  4  0  0  0  0
 28 29  4  0  0  0  0
 28 48  1  0  0  0  0
 29 49  1  0  0  0  0
M  END
> <ConfClashScore>
0 

> <ConfOneFourInteractionScore>
-0.984874 

> <ConfScore>
-0.00341478 

> <ConfScorePBest>
0.0040997 

> <ConfTolerance>
0.621711 

> <HETNAM>
     OWQ A 303  OWQ                                                       

> <pdb_OW>
Q_303 -16.5129 3.80749 7.62812 0.15963 1.39178 -0.28144 -3.20151 0 0 0 -1.30514 0 0 0 0 0 0 0 0 -8.31393

$$$$
6yky_lig_1.pdb
 OpenBabel04162415593D

 49 53  0  0  0  0  0  0  0  0999 V2000
    1.6851   -0.3758    0.9793 C   0  0  0  1  0  0  0  0  0  0  0  0
    3.2664   -1.9088    1.6566 C   0  0  0  1  0  0  0  0  0  0  0  0
    1.4640   -0.9995   -0.1577 N   0  0  0  1  0  0  0  0  0  0  0  0
    1.3993   -2.9868   -2.7365 C   0  0  0  1  0  0  0  0  0  0  0  0
    1.9307   -2.4044   -3.8717 C   0  0  0  1  0  0  0  0  0  0  0  0
   -0.6370   -3.4380   -3.9184 C   0  0  0  1  0  0  0  0  0  0  0  0
    0.1126   -3.5020   -2.7590 C   0  0  0  1  0  0  0  0  0  0  0  0
   -0.1043   -2.8539   -5.0570 C   0  0  0  1  0  0  0  0  0  0  0  0
    1.1787   -2.3403   -5.0344 C   0  0  0  1  0  0  0  0  0  0  0  0
    1.2148    1.5299    2.5213 C   0  0  0  1  0  0  0  0  0  0  0  0
    0.5311    0.8649    3.6797 C   0  0  0  1  0  0  0  0  0  0  0  0
   -0.9412    1.3206    3.4783 C   0  0  0  1  0  0  0  0  0  0  0  0
   -1.7889    3.5505    2.8133 C   0  0  0  1  0  0  0  0  0  0  0  0
    2.5609   -0.8124    1.8674 N   0  0  0  1  0  0  0  0  0  0  0  0
    3.0713   -2.6125    0.4627 C   0  0  0  1  0  0  0  0  0  0  0  0
    2.1268   -2.1102   -0.4559 C   0  0  0  1  0  0  0  0  0  0  0  0
    2.1354   -2.9734   -1.5165 N   0  0  0  1  0  0  0  0  0  0  0  0
    3.6022   -3.7357   -0.0677 N   0  0  0  1  0  0  0  0  0  0  0  0
    3.0766   -3.9705   -1.2193 N   0  0  0  1  0  0  0  0  0  0  0  0
   -0.7872   -2.7549   -6.2222 O   0  0  0  1  0  0  0  0  0  0  0  0
    1.0323    0.7450    1.3066 N   0  0  0  1  0  0  0  0  0  0  0  0
   -2.0683   -3.4006   -6.2888 C   0  0  0  1  0  0  0  0  0  0  0  0
   -0.7697    2.6220    2.8872 N   0  0  0  1  0  0  0  0  0  0  0  0
    0.5642    2.8762    2.3757 C   0  0  0  1  0  0  0  0  0  0  0  0
   -1.5573    4.7229    2.1181 C   0  0  0  1  0  0  0  0  0  0  0  0
   -2.5717    5.6575    2.0343 C   0  0  0  1  0  0  0  0  0  0  0  0
   -3.7731    5.4903    2.5955 N   0  0  0  1  0  0  0  0  0  0  0  0
   -3.9825    4.3509    3.2701 C   0  0  0  1  0  0  0  0  0  0  0  0
   -3.0246    3.3606    3.4006 C   0  0  0  1  0  0  0  0  0  0  0  0
    3.9527   -2.2424    2.3632 H   0  0  0  1  0  0  0  0  0  0  0  0
    2.8946   -2.0143   -3.8535 H   0  0  0  1  0  0  0  0  0  0  0  0
   -1.6009   -3.8281   -3.9365 H   0  0  0  1  0  0  0  0  0  0  0  0
   -0.2886   -3.9366   -1.9036 H   0  0  0  1  0  0  0  0  0  0  0  0
    1.5799   -1.9056   -5.8898 H   0  0  0  1  0  0  0  0  0  0  0  0
    2.2601    1.6417    2.7206 H   0  0  0  1  0  0  0  0  0  0  0  0
    0.9221    1.2100    4.6140 H   0  0  0  1  0  0  0  0  0  0  0  0
    0.6207   -0.2000    3.6265 H   0  0  0  1  0  0  0  0  0  0  0  0
   -1.4606    1.3824    4.4118 H   0  0  0  1  0  0  0  0  0  0  0  0
   -1.4665    0.6603    2.8203 H   0  0  0  1  0  0  0  0  0  0  0  0
    0.3654    1.0706    0.6665 H   0  0  0  1  0  0  0  0  0  0  0  0
   -2.7292   -2.9576   -5.5735 H   0  0  0  1  0  0  0  0  0  0  0  0
   -1.9542   -4.4421   -6.0715 H   0  0  0  1  0  0  0  0  0  0  0  0
   -2.4759   -3.2833   -7.2712 H   0  0  0  1  0  0  0  0  0  0  0  0
    1.0697    3.6175    2.9588 H   0  0  0  1  0  0  0  0  0  0  0  0
    0.5356    3.1856    1.3518 H   0  0  0  1  0  0  0  0  0  0  0  0
   -0.6369    4.8982    1.6667 H   0  0  0  1  0  0  0  0  0  0  0  0
   -2.3911    6.5360    1.5077 H   0  0  0  1  0  0  0  0  0  0  0  0
   -4.9100    4.2039    3.7171 H   0  0  0  1  0  0  0  0  0  0  0  0
   -3.2311    2.4901    3.9308 H   0  0  0  1  0  0  0  0  0  0  0  0
  1  3  4  0  0  0  0
  1 14  4  0  0  0  0
  1 21  1  0  0  0  0
  2 14  4  0  0  0  0
  2 15  4  0  0  0  0
  2 30  1  0  0  0  0
  3 16  4  0  0  0  0
  4  5  4  0  0  0  0
  4  7  4  0  0  0  0
  4 17  1  0  0  0  0
  5  9  4  0  0  0  0
  5 31  1  0  0  0  0
  6  7  4  0  0  0  0
  6  8  4  0  0  0  0
  6 32  1  0  0  0  0
  7 33  1  0  0  0  0
  8  9  4  0  0  0  0
  8 20  1  0  0  0  0
  9 34  1  0  0  0  0
 10 11  1  0  0  0  0
 10 21  1  0  0  0  0
 10 24  1  0  0  0  0
 10 35  1  0  0  0  0
 11 12  1  0  0  0  0
 11 36  1  0  0  0  0
 11 37  1  0  0  0  0
 12 23  1  0  0  0  0
 12 38  1  0  0  0  0
 12 39  1  0  0  0  0
 13 23  1  0  0  0  0
 13 25  4  0  0  0  0
 13 29  4  0  0  0  0
 15 16  4  0  0  0  0
 15 18  4  0  0  0  0
 16 17  4  0  0  0  0
 17 19  4  0  0  0  0
 18 19  4  0  0  0  0
 20 22  1  0  0  0  0
 21 40  1  0  0  0  0
 22 41  1  0  0  0  0
 22 42  1  0  0  0  0
 22 43  1  0  0  0  0
 23 24  1  0  0  0  0
 24 44  1  0  0  0  0
 24 45  1  0  0  0  0
 25 26  4  0  0  0  0
 25 46  1  0  0  0  0
 26 27  4  0  0  0  0
 26 47  1  0  0  0  0
 27 28  4  0  0  0  0
 28 29  4  0  0  0  0
 28 48  1  0  0  0  0
 29 49  1  0  0  0  0
M  END
> <ConfClashScore>
0 

> <ConfOneFourInteractionScore>
-0.986948 

> <ConfScore>
-0.00324336 

> <ConfScorePBest>
0.00408638 

> <ConfTolerance>
0.551169 

> <HETNAM>
     OWQ A 303  OWQ                                                       

> <pdb_OW>
Q_303 -16.5129 3.80749 7.62812 0.15963 1.39178 -0.28144 -3.20151 0 0 0 -1.30514 0 0 0 0 0 0 0 0 -8.31393

$$$$
6yky_lig_1.pdb
 OpenBabel04162415593D

 49 53  0  0  0  0  0  0  0  0999 V2000
    0.4498   -0.4362    1.0003 C   0  0  0  1  0  0  0  0  0  0  0  0
    1.1789   -2.0277    2.4986 C   0  0  0  1  0  0  0  0  0  0  0  0
    1.1987   -0.9072    0.0265 N   0  0  0  1  0  0  0  0  0  0  0  0
    3.2510   -2.5380   -1.9052 C   0  0  0  1  0  0  0  0  0  0  0  0
    2.5430   -1.7065   -2.7522 C   0  0  0  1  0  0  0  0  0  0  0  0
    4.6255   -3.2399   -3.7396 C   0  0  0  1  0  0  0  0  0  0  0  0
    4.2921   -3.3079   -2.4001 C   0  0  0  1  0  0  0  0  0  0  0  0
    3.9155   -2.4059   -4.5893 C   0  0  0  1  0  0  0  0  0  0  0  0
    2.8775   -1.6383   -4.0956 C   0  0  0  1  0  0  0  0  0  0  0  0
   -1.2216    1.1941    1.7755 C   0  0  0  1  0  0  0  0  0  0  0  0
   -2.2707    0.1512    2.2508 C   0  0  0  1  0  0  0  0  0  0  0  0
   -3.5144    0.9294    2.7290 C   0  0  0  1  0  0  0  0  0  0  0  0
   -4.1027    3.3830    2.3865 C   0  0  0  1  0  0  0  0  0  0  0  0
    0.4349   -0.9764    2.2063 N   0  0  0  1  0  0  0  0  0  0  0  0
    1.9952   -2.5701    1.4996 C   0  0  0  1  0  0  0  0  0  0  0  0
    1.9794   -1.9616    0.2277 C   0  0  0  1  0  0  0  0  0  0  0  0
    2.8520   -2.6774   -0.5444 N   0  0  0  1  0  0  0  0  0  0  0  0
    2.8585   -3.6079    1.4471 N   0  0  0  1  0  0  0  0  0  0  0  0
    3.3723   -3.6946    0.2697 N   0  0  0  1  0  0  0  0  0  0  0  0
    4.1452   -2.2607   -5.9088 O   0  0  0  1  0  0  0  0  0  0  0  0
   -0.3405    0.6490    0.7578 N   0  0  0  1  0  0  0  0  0  0  0  0
    5.3202   -2.9434   -6.4044 C   0  0  0  1  0  0  0  0  0  0  0  0
   -3.3140    2.2753    2.1214 N   0  0  0  1  0  0  0  0  0  0  0  0
   -2.1648    2.2690    1.2014 C   0  0  0  1  0  0  0  0  0  0  0  0
   -5.1572    3.2396    3.2691 C   0  0  0  1  0  0  0  0  0  0  0  0
   -5.9482    4.3390    3.5439 C   0  0  0  1  0  0  0  0  0  0  0  0
   -5.7501    5.5421    2.9966 N   0  0  0  1  0  0  0  0  0  0  0  0
   -4.7268    5.6657    2.1394 C   0  0  0  1  0  0  0  0  0  0  0  0
   -3.8832    4.6191    1.8104 C   0  0  0  1  0  0  0  0  0  0  0  0
    1.1585   -2.4439    3.4515 H   0  0  0  1  0  0  0  0  0  0  0  0
    1.7593   -1.1319   -2.3816 H   0  0  0  1  0  0  0  0  0  0  0  0
    5.4092   -3.8145   -4.1102 H   0  0  0  1  0  0  0  0  0  0  0  0
    4.8222   -3.9367   -1.7634 H   0  0  0  1  0  0  0  0  0  0  0  0
    2.3474   -1.0096   -4.7322 H   0  0  0  1  0  0  0  0  0  0  0  0
   -0.6375    1.5705    2.5892 H   0  0  0  1  0  0  0  0  0  0  0  0
   -1.8706   -0.4284    3.0563 H   0  0  0  1  0  0  0  0  0  0  0  0
   -2.5344   -0.4966    1.4411 H   0  0  0  1  0  0  0  0  0  0  0  0
   -3.5446    0.9892    3.7969 H   0  0  0  1  0  0  0  0  0  0  0  0
   -4.4146    0.4750    2.3712 H   0  0  0  1  0  0  0  0  0  0  0  0
   -0.3130    1.0716   -0.1260 H   0  0  0  1  0  0  0  0  0  0  0  0
    5.1568   -4.0005   -6.3781 H   0  0  0  1  0  0  0  0  0  0  0  0
    6.1610   -2.6974   -5.7901 H   0  0  0  1  0  0  0  0  0  0  0  0
    5.5120   -2.6374   -7.4116 H   0  0  0  1  0  0  0  0  0  0  0  0
   -2.4745    2.0107    0.2103 H   0  0  0  1  0  0  0  0  0  0  0  0
   -1.6852    3.2254    1.1879 H   0  0  0  1  0  0  0  0  0  0  0  0
   -5.3515    2.3217    3.7178 H   0  0  0  1  0  0  0  0  0  0  0  0
   -6.7380    4.2242    4.2107 H   0  0  0  1  0  0  0  0  0  0  0  0
   -4.5588    6.5933    1.7001 H   0  0  0  1  0  0  0  0  0  0  0  0
   -3.0989    4.7605    1.1422 H   0  0  0  1  0  0  0  0  0  0  0  0
  1  3  4  0  0  0  0
  1 14  4  0  0  0  0
  1 21  1  0  0  0  0
  2 14  4  0  0  0  0
  2 15  4  0  0  0  0
  2 30  1  0  0  0  0
  3 16  4  0  0  0  0
  4  5  4  0  0  0  0
  4  7  4  0  0  0  0
  4 17  1  0  0  0  0
  5  9  4  0  0  0  0
  5 31  1  0  0  0  0
  6  7  4  0  0  0  0
  6  8  4  0  0  0  0
  6 32  1  0  0  0  0
  7 33  1  0  0  0  0
  8  9  4  0  0  0  0
  8 20  1  0  0  0  0
  9 34  1  0  0  0  0
 10 11  1  0  0  0  0
 10 21  1  0  0  0  0
 10 24  1  0  0  0  0
 10 35  1  0  0  0  0
 11 12  1  0  0  0  0
 11 36  1  0  0  0  0
 11 37  1  0  0  0  0
 12 23  1  0  0  0  0
 12 38  1  0  0  0  0
 12 39  1  0  0  0  0
 13 23  1  0  0  0  0
 13 25  4  0  0  0  0
 13 29  4  0  0  0  0
 15 16  4  0  0  0  0
 15 18  4  0  0  0  0
 16 17  4  0  0  0  0
 17 19  4  0  0  0  0
 18 19  4  0  0  0  0
 20 22  1  0  0  0  0
 21 40  1  0  0  0  0
 22 41  1  0  0  0  0
 22 42  1  0  0  0  0
 22 43  1  0  0  0  0
 23 24  1  0  0  0  0
 24 44  1  0  0  0  0
 24 45  1  0  0  0  0
 25 26  4  0  0  0  0
 25 46  1  0  0  0  0
 26 27  4  0  0  0  0
 26 47  1  0  0  0  0
 27 28  4  0  0  0  0
 28 29  4  0  0  0  0
 28 48  1  0  0  0  0
 29 49  1  0  0  0  0
M  END
> <ConfClashScore>
0 

> <ConfOneFourInteractionScore>
-0.987833 

> <ConfScore>
-0.00199514 

> <ConfScorePBest>
0.00407305 

> <ConfTolerance>
0.433882 

> <HETNAM>
     OWQ A 303  OWQ                                                       

> <pdb_OW>
Q_303 -16.5129 3.80749 7.62812 0.15963 1.39178 -0.28144 -3.20151 0 0 0 -1.30514 0 0 0 0 0 0 0 0 -8.31393

$$$$
6yky_lig_1.pdb
 OpenBabel04162415593D

 49 53  0  0  0  0  0  0  0  0999 V2000
    0.6347   -1.1036   -2.4822 C   0  0  0  1  0  0  0  0  0  0  0  0
    2.1436   -2.1703   -3.8586 C   0  0  0  1  0  0  0  0  0  0  0  0
    1.4176   -1.2014   -1.4294 N   0  0  0  1  0  0  0  0  0  0  0  0
    3.7379   -1.7390    0.7325 C   0  0  0  1  0  0  0  0  0  0  0  0
    2.6583   -1.2075    1.4122 C   0  0  0  1  0  0  0  0  0  0  0  0
    5.0905   -1.5119    2.6987 C   0  0  0  1  0  0  0  0  0  0  0  0
    4.9566   -1.8889    1.3758 C   0  0  0  1  0  0  0  0  0  0  0  0
    4.0077   -0.9788    3.3807 C   0  0  0  1  0  0  0  0  0  0  0  0
    2.7927   -0.8294    2.7390 C   0  0  0  1  0  0  0  0  0  0  0  0
   -1.1749    0.0533   -1.1489 C   0  0  0  1  0  0  0  0  0  0  0  0
   -2.1731   -0.9433   -0.5186 C   0  0  0  1  0  0  0  0  0  0  0  0
   -3.3768   -0.1555   -0.0666 C   0  0  0  1  0  0  0  0  0  0  0  0
   -4.1075    2.2455   -0.7822 C   0  0  0  1  0  0  0  0  0  0  0  0
    0.9813   -1.5729   -3.6679 N   0  0  0  1  0  0  0  0  0  0  0  0
    3.0162   -2.3017   -2.7724 C   0  0  0  1  0  0  0  0  0  0  0  0
    2.6052   -1.7864   -1.5259 C   0  0  0  1  0  0  0  0  0  0  0  0
    3.6273   -2.0444   -0.6549 N   0  0  0  1  0  0  0  0  0  0  0  0
    4.2446   -2.8395   -2.6090 N   0  0  0  1  0  0  0  0  0  0  0  0
    4.6259   -2.7044   -1.3867 N   0  0  0  1  0  0  0  0  0  0  0  0
    4.1404   -0.6045    4.6753 O   0  0  0  1  0  0  0  0  0  0  0  0
   -0.5622   -0.5044   -2.3482 N   0  0  0  1  0  0  0  0  0  0  0  0
    3.0602    0.1424    5.2565 C   0  0  0  1  0  0  0  0  0  0  0  0
   -3.1638    1.1760   -0.8193 N   0  0  0  1  0  0  0  0  0  0  0  0
   -2.0564    1.2395   -1.4867 C   0  0  0  1  0  0  0  0  0  0  0  0
   -5.3889    2.0386   -0.3061 C   0  0  0  1  0  0  0  0  0  0  0  0
   -6.2698    3.1031   -0.2841 C   0  0  0  1  0  0  0  0  0  0  0  0
   -5.9494    4.3308   -0.7041 N   0  0  0  1  0  0  0  0  0  0  0  0
   -4.7051    4.5161   -1.1673 C   0  0  0  1  0  0  0  0  0  0  0  0
   -3.7587    3.5078   -1.2213 C   0  0  0  1  0  0  0  0  0  0  0  0
    2.4050   -2.5355   -4.7966 H   0  0  0  1  0  0  0  0  0  0  0  0
    1.7450   -1.0913    0.9283 H   0  0  0  1  0  0  0  0  0  0  0  0
    6.0037   -1.6280    3.1826 H   0  0  0  1  0  0  0  0  0  0  0  0
    5.7701   -2.2851    0.8630 H   0  0  0  1  0  0  0  0  0  0  0  0
    1.9792   -0.4332    3.2518 H   0  0  0  1  0  0  0  0  0  0  0  0
   -0.4108    0.3268   -0.4516 H   0  0  0  1  0  0  0  0  0  0  0  0
   -2.4661   -1.6740   -1.2432 H   0  0  0  1  0  0  0  0  0  0  0  0
   -1.7211   -1.4321    0.3190 H   0  0  0  1  0  0  0  0  0  0  0  0
   -3.3752   -0.0111    0.9936 H   0  0  0  1  0  0  0  0  0  0  0  0
   -4.2893   -0.6306   -0.3609 H   0  0  0  1  0  0  0  0  0  0  0  0
   -1.0945   -0.4333   -3.1680 H   0  0  0  1  0  0  0  0  0  0  0  0
    2.5700    0.7125    4.4952 H   0  0  0  1  0  0  0  0  0  0  0  0
    3.4457    0.8034    6.0043 H   0  0  0  1  0  0  0  0  0  0  0  0
    2.3600   -0.5324    5.7029 H   0  0  0  1  0  0  0  0  0  0  0  0
   -1.5434    2.1443   -1.2353 H   0  0  0  1  0  0  0  0  0  0  0  0
   -2.2739    1.2315   -2.5343 H   0  0  0  1  0  0  0  0  0  0  0  0
   -5.6843    1.0995    0.0293 H   0  0  0  1  0  0  0  0  0  0  0  0
   -7.2312    2.9406    0.0777 H   0  0  0  1  0  0  0  0  0  0  0  0
   -4.4380    5.4638   -1.5022 H   0  0  0  1  0  0  0  0  0  0  0  0
   -2.8031    3.6968   -1.5856 H   0  0  0  1  0  0  0  0  0  0  0  0
  1  3  4  0  0  0  0
  1 14  4  0  0  0  0
  1 21  1  0  0  0  0
  2 14  4  0  0  0  0
  2 15  4  0  0  0  0
  2 30  1  0  0  0  0
  3 16  4  0  0  0  0
  4  5  4  0  0  0  0
  4  7  4  0  0  0  0
  4 17  1  0  0  0  0
  5  9  4  0  0  0  0
  5 31  1  0  0  0  0
  6  7  4  0  0  0  0
  6  8  4  0  0  0  0
  6 32  1  0  0  0  0
  7 33  1  0  0  0  0
  8  9  4  0  0  0  0
  8 20  1  0  0  0  0
  9 34  1  0  0  0  0
 10 11  1  0  0  0  0
 10 21  1  0  0  0  0
 10 24  1  0  0  0  0
 10 35  1  0  0  0  0
 11 12  1  0  0  0  0
 11 36  1  0  0  0  0
 11 37  1  0  0  0  0
 12 23  1  0  0  0  0
 12 38  1  0  0  0  0
 12 39  1  0  0  0  0
 13 23  1  0  0  0  0
 13 25  4  0  0  0  0
 13 29  4  0  0  0  0
 15 16  4  0  0  0  0
 15 18  4  0  0  0  0
 16 17  4  0  0  0  0
 17 19  4  0  0  0  0
 18 19  4  0  0  0  0
 20 22  1  0  0  0  0
 21 40  1  0  0  0  0
 22 41  1  0  0  0  0
 22 42  1  0  0  0  0
 22 43  1  0  0  0  0
 23 24  1  0  0  0  0
 24 44  1  0  0  0  0
 24 45  1  0  0  0  0
 25 26  4  0  0  0  0
 25 46  1  0  0  0  0
 26 27  4  0  0  0  0
 26 47  1  0  0  0  0
 27 28  4  0  0  0  0
 28 29  4  0  0  0  0
 28 48  1  0  0  0  0
 29 49  1  0  0  0  0
M  END
> <ConfClashScore>
0 

> <ConfOneFourInteractionScore>
-0.986948 

> <ConfScore>
-0.00186697 

> <ConfScorePBest>
0.00405972 

> <ConfTolerance>
0.503411 

> <HETNAM>
     OWQ A 303  OWQ                                                       

> <pdb_OW>
Q_303 -16.5129 3.80749 7.62812 0.15963 1.39178 -0.28144 -3.20151 0 0 0 -1.30514 0 0 0 0 0 0 0 0 -8.31393

$$$$
6yky_lig_1.pdb
 OpenBabel04162415593D

 49 53  0  0  0  0  0  0  0  0999 V2000
    1.0620   -1.9363   -2.4272 C   0  0  0  1  0  0  0  0  0  0  0  0
    3.1456   -2.1932   -3.3769 C   0  0  0  1  0  0  0  0  0  0  0  0
    1.5295   -1.2304   -1.4202 N   0  0  0  1  0  0  0  0  0  0  0  0
    3.3006    0.4190    0.7583 C   0  0  0  1  0  0  0  0  0  0  0  0
    4.2281    0.4865    1.7807 C   0  0  0  1  0  0  0  0  0  0  0  0
    1.6994    1.5568    2.1327 C   0  0  0  1  0  0  0  0  0  0  0  0
    2.0335    0.9526    0.9354 C   0  0  0  1  0  0  0  0  0  0  0  0
    2.6296    1.6246    3.1583 C   0  0  0  1  0  0  0  0  0  0  0  0
    3.8929    1.0925    2.9815 C   0  0  0  1  0  0  0  0  0  0  0  0
   -1.1426   -1.6841   -1.4869 C   0  0  0  1  0  0  0  0  0  0  0  0
   -2.2149   -2.7058   -1.0172 C   0  0  0  1  0  0  0  0  0  0  0  0
   -3.4213   -1.9019   -0.4885 C   0  0  0  1  0  0  0  0  0  0  0  0
   -3.9332    0.5750   -0.7486 C   0  0  0  1  0  0  0  0  0  0  0  0
    1.8427   -2.4083   -3.3834 N   0  0  0  1  0  0  0  0  0  0  0  0
    3.6969   -1.4477   -2.3285 C   0  0  0  1  0  0  0  0  0  0  0  0
    2.8267   -0.9639   -1.3301 C   0  0  0  1  0  0  0  0  0  0  0  0
    3.6122   -0.2818   -0.4425 N   0  0  0  1  0  0  0  0  0  0  0  0
    4.9476   -1.0474   -2.0117 N   0  0  0  1  0  0  0  0  0  0  0  0
    4.9291   -0.3669   -0.9189 N   0  0  0  1  0  0  0  0  0  0  0  0
    2.1876    2.2337    4.2841 O   0  0  0  1  0  0  0  0  0  0  0  0
   -0.2954   -2.2325   -2.5491 N   0  0  0  1  0  0  0  0  0  0  0  0
    3.1397    2.4298    5.3412 C   0  0  0  1  0  0  0  0  0  0  0  0
   -3.1899   -0.5461   -1.0622 N   0  0  0  1  0  0  0  0  0  0  0  0
   -2.0622   -0.5629   -2.0083 C   0  0  0  1  0  0  0  0  0  0  0  0
   -3.7725    1.7491   -1.4608 C   0  0  0  1  0  0  0  0  0  0  0  0
   -4.5394    2.8458   -1.1162 C   0  0  0  1  0  0  0  0  0  0  0  0
   -5.4330    2.8346   -0.1224 N   0  0  0  1  0  0  0  0  0  0  0  0
   -5.5754    1.6910    0.5624 C   0  0  0  1  0  0  0  0  0  0  0  0
   -4.8517    0.5450    0.2825 C   0  0  0  1  0  0  0  0  0  0  0  0
    3.7496   -2.5699   -4.1351 H   0  0  0  1  0  0  0  0  0  0  0  0
    5.1774    0.0826    1.6492 H   0  0  0  1  0  0  0  0  0  0  0  0
    0.7501    1.9607    2.2643 H   0  0  0  1  0  0  0  0  0  0  0  0
    1.3343    0.8982    0.1674 H   0  0  0  1  0  0  0  0  0  0  0  0
    4.5921    1.1468    3.7495 H   0  0  0  1  0  0  0  0  0  0  0  0
   -0.5285   -1.3507   -0.6765 H   0  0  0  1  0  0  0  0  0  0  0  0
   -2.5177   -3.3209   -1.8387 H   0  0  0  1  0  0  0  0  0  0  0  0
   -1.8164   -3.3212   -0.2380 H   0  0  0  1  0  0  0  0  0  0  0  0
   -4.3437   -2.3162   -0.8382 H   0  0  0  1  0  0  0  0  0  0  0  0
   -3.4258   -1.8722    0.5811 H   0  0  0  1  0  0  0  0  0  0  0  0
   -0.6548   -2.7662   -3.2883 H   0  0  0  1  0  0  0  0  0  0  0  0
    3.8854    3.1291    5.0251 H   0  0  0  1  0  0  0  0  0  0  0  0
    3.6050    1.4962    5.5796 H   0  0  0  1  0  0  0  0  0  0  0  0
    2.6383    2.8103    6.2065 H   0  0  0  1  0  0  0  0  0  0  0  0
   -1.5517    0.3774   -2.0057 H   0  0  0  1  0  0  0  0  0  0  0  0
   -2.4022   -0.7821   -2.9989 H   0  0  0  1  0  0  0  0  0  0  0  0
   -3.0872    1.8059   -2.2411 H   0  0  0  1  0  0  0  0  0  0  0  0
   -4.4148    3.7248   -1.6579 H   0  0  0  1  0  0  0  0  0  0  0  0
   -6.2633    1.6636    1.3420 H   0  0  0  1  0  0  0  0  0  0  0  0
   -4.9967   -0.3222    0.8380 H   0  0  0  1  0  0  0  0  0  0  0  0
  1  3  4  0  0  0  0
  1 14  4  0  0  0  0
  1 21  1  0  0  0  0
  2 14  4  0  0  0  0
  2 15  4  0  0  0  0
  2 30  1  0  0  0  0
  3 16  4  0  0  0  0
  4  5  4  0  0  0  0
  4  7  4  0  0  0  0
  4 17  1  0  0  0  0
  5  9  4  0  0  0  0
  5 31  1  0  0  0  0
  6  7  4  0  0  0  0
  6  8  4  0  0  0  0
  6 32  1  0  0  0  0
  7 33  1  0  0  0  0
  8  9  4  0  0  0  0
  8 20  1  0  0  0  0
  9 34  1  0  0  0  0
 10 11  1  0  0  0  0
 10 21  1  0  0  0  0
 10 24  1  0  0  0  0
 10 35  1  0  0  0  0
 11 12  1  0  0  0  0
 11 36  1  0  0  0  0
 11 37  1  0  0  0  0
 12 23  1  0  0  0  0
 12 38  1  0  0  0  0
 12 39  1  0  0  0  0
 13 23  1  0  0  0  0
 13 25  4  0  0  0  0
 13 29  4  0  0  0  0
 15 16  4  0  0  0  0
 15 18  4  0  0  0  0
 16 17  4  0  0  0  0
 17 19  4  0  0  0  0
 18 19  4  0  0  0  0
 20 22  1  0  0  0  0
 21 40  1  0  0  0  0
 22 41  1  0  0  0  0
 22 42  1  0  0  0  0
 22 43  1  0  0  0  0
 23 24  1  0  0  0  0
 24 44  1  0  0  0  0
 24 45  1  0  0  0  0
 25 26  4  0  0  0  0
 25 46  1  0  0  0  0
 26 27  4  0  0  0  0
 26 47  1  0  0  0  0
 27 28  4  0  0  0  0
 28 29  4  0  0  0  0
 28 48  1  0  0  0  0
 29 49  1  0  0  0  0
M  END
> <ConfClashScore>
0 

> <ConfOneFourInteractionScore>
-0.986948 

> <ConfScore>
-0.00179255 

> <ConfScorePBest>
0.00404639 

> <ConfTolerance>
0.384516 

> <HETNAM>
     OWQ A 303  OWQ                                                       

> <pdb_OW>
Q_303 -16.5129 3.80749 7.62812 0.15963 1.39178 -0.28144 -3.20151 0 0 0 -1.30514 0 0 0 0 0 0 0 0 -8.31393

$$$$
6yky_lig_1.pdb
 OpenBabel04162415593D

 49 53  0  0  0  0  0  0  0  0999 V2000
    0.3799   -0.2870   -2.5326 C   0  0  0  1  0  0  0  0  0  0  0  0
    0.4691   -2.1748   -3.8508 C   0  0  0  1  0  0  0  0  0  0  0  0
    0.8915   -0.9045   -1.4896 N   0  0  0  1  0  0  0  0  0  0  0  0
    2.1696   -2.9837    0.6660 C   0  0  0  1  0  0  0  0  0  0  0  0
    3.2593   -2.1997    0.9946 C   0  0  0  1  0  0  0  0  0  0  0  0
    1.9877   -3.6916    2.9492 C   0  0  0  1  0  0  0  0  0  0  0  0
    1.5344   -3.7328    1.6442 C   0  0  0  1  0  0  0  0  0  0  0  0
    3.0807   -2.9053    3.2789 C   0  0  0  1  0  0  0  0  0  0  0  0
    3.7139   -2.1584    2.3034 C   0  0  0  1  0  0  0  0  0  0  0  0
    0.1290    1.7169   -1.0961 C   0  0  0  1  0  0  0  0  0  0  0  0
   -0.6929    0.9846   -0.0414 C   0  0  0  1  0  0  0  0  0  0  0  0
   -2.1217    1.4283   -0.3386 C   0  0  0  1  0  0  0  0  0  0  0  0
   -2.9422    3.7620   -0.8411 C   0  0  0  1  0  0  0  0  0  0  0  0
    0.1714   -0.8989   -3.6853 N   0  0  0  1  0  0  0  0  0  0  0  0
    1.0164   -2.8808   -2.7734 C   0  0  0  1  0  0  0  0  0  0  0  0
    1.2216   -2.1881   -1.5626 C   0  0  0  1  0  0  0  0  0  0  0  0
    1.7565   -3.0977   -0.6929 N   0  0  0  1  0  0  0  0  0  0  0  0
    1.4268   -4.1550   -2.5916 N   0  0  0  1  0  0  0  0  0  0  0  0
    1.8625   -4.3105   -1.3901 N   0  0  0  1  0  0  0  0  0  0  0  0
    3.5344   -2.8684    4.5747 O   0  0  0  1  0  0  0  0  0  0  0  0
    0.0719    1.0180   -2.3740 N   0  0  0  1  0  0  0  0  0  0  0  0
    2.9579   -3.8956    5.3964 C   0  0  0  1  0  0  0  0  0  0  0  0
   -1.9298    2.8211   -0.7959 N   0  0  0  1  0  0  0  0  0  0  0  0
   -0.5384    3.0946   -1.1983 C   0  0  0  1  0  0  0  0  0  0  0  0
   -3.6635    3.9660   -2.0029 C   0  0  0  1  0  0  0  0  0  0  0  0
   -4.6694    4.9135   -2.0030 C   0  0  0  1  0  0  0  0  0  0  0  0
   -4.9839    5.6515   -0.9340 N   0  0  0  1  0  0  0  0  0  0  0  0
   -4.2737    5.4463    0.1843 C   0  0  0  1  0  0  0  0  0  0  0  0
   -3.2527    4.5162    0.2736 C   0  0  0  1  0  0  0  0  0  0  0  0
    0.3003   -2.6453   -4.7628 H   0  0  0  1  0  0  0  0  0  0  0  0
    3.7383   -1.6408    0.2598 H   0  0  0  1  0  0  0  0  0  0  0  0
    1.5087   -4.2505    3.6839 H   0  0  0  1  0  0  0  0  0  0  0  0
    0.7168   -4.3258    1.3961 H   0  0  0  1  0  0  0  0  0  0  0  0
    4.5314   -1.5654    2.5515 H   0  0  0  1  0  0  0  0  0  0  0  0
    1.1487    1.8107   -0.7856 H   0  0  0  1  0  0  0  0  0  0  0  0
   -0.3983    1.2770    0.9448 H   0  0  0  1  0  0  0  0  0  0  0  0
   -0.5917   -0.0756   -0.1449 H   0  0  0  1  0  0  0  0  0  0  0  0
   -2.7302    1.3896    0.5406 H   0  0  0  1  0  0  0  0  0  0  0  0
   -2.5628    0.8261   -1.1052 H   0  0  0  1  0  0  0  0  0  0  0  0
   -0.2065    1.5254   -3.1649 H   0  0  0  1  0  0  0  0  0  0  0  0
    3.1636   -4.8539    4.9670 H   0  0  0  1  0  0  0  0  0  0  0  0
    1.8994   -3.7517    5.4565 H   0  0  0  1  0  0  0  0  0  0  0  0
    3.3814   -3.8464    6.3778 H   0  0  0  1  0  0  0  0  0  0  0  0
   -0.4946    3.4694   -2.1996 H   0  0  0  1  0  0  0  0  0  0  0  0
   -0.0770    3.7952   -0.5342 H   0  0  0  1  0  0  0  0  0  0  0  0
   -3.4529    3.4168   -2.8605 H   0  0  0  1  0  0  0  0  0  0  0  0
   -5.2094    5.0598   -2.8797 H   0  0  0  1  0  0  0  0  0  0  0  0
   -4.5010    6.0137    1.0258 H   0  0  0  1  0  0  0  0  0  0  0  0
   -2.7293    4.3877    1.1630 H   0  0  0  1  0  0  0  0  0  0  0  0
  1  3  4  0  0  0  0
  1 14  4  0  0  0  0
  1 21  1  0  0  0  0
  2 14  4  0  0  0  0
  2 15  4  0  0  0  0
  2 30  1  0  0  0  0
  3 16  4  0  0  0  0
  4  5  4  0  0  0  0
  4  7  4  0  0  0  0
  4 17  1  0  0  0  0
  5  9  4  0  0  0  0
  5 31  1  0  0  0  0
  6  7  4  0  0  0  0
  6  8  4  0  0  0  0
  6 32  1  0  0  0  0
  7 33  1  0  0  0  0
  8  9  4  0  0  0  0
  8 20  1  0  0  0  0
  9 34  1  0  0  0  0
 10 11  1  0  0  0  0
 10 21  1  0  0  0  0
 10 24  1  0  0  0  0
 10 35  1  0  0  0  0
 11 12  1  0  0  0  0
 11 36  1  0  0  0  0
 11 37  1  0  0  0  0
 12 23  1  0  0  0  0
 12 38  1  0  0  0  0
 12 39  1  0  0  0  0
 13 23  1  0  0  0  0
 13 25  4  0  0  0  0
 13 29  4  0  0  0  0
 15 16  4  0  0  0  0
 15 18  4  0  0  0  0
 16 17  4  0  0  0  0
 17 19  4  0  0  0  0
 18 19  4  0  0  0  0
 20 22  1  0  0  0  0
 21 40  1  0  0  0  0
 22 41  1  0  0  0  0
 22 42  1  0  0  0  0
 22 43  1  0  0  0  0
 23 24  1  0  0  0  0
 24 44  1  0  0  0  0
 24 45  1  0  0  0  0
 25 26  4  0  0  0  0
 25 46  1  0  0  0  0
 26 27  4  0  0  0  0
 26 47  1  0  0  0  0
 27 28  4  0  0  0  0
 28 29  4  0  0  0  0
 28 48  1  0  0  0  0
 29 49  1  0  0  0  0
M  END
> <ConfClashScore>
0 

> <ConfOneFourInteractionScore>
-0.987833 

> <ConfScore>
-0.00123579 

> <ConfScorePBest>
0.00403306 

> <ConfTolerance>
0.592778 

> <HETNAM>
     OWQ A 303  OWQ                                                       

> <pdb_OW>
Q_303 -16.5129 3.80749 7.62812 0.15963 1.39178 -0.28144 -3.20151 0 0 0 -1.30514 0 0 0 0 0 0 0 0 -8.31393

$$$$
6yky_lig_1.pdb
 OpenBabel04162415593D

 49 53  0  0  0  0  0  0  0  0999 V2000
    1.6868   -2.7748   -1.1243 C   0  0  0  1  0  0  0  0  0  0  0  0
    3.1906   -3.0056   -2.8548 C   0  0  0  1  0  0  0  0  0  0  0  0
    1.7522   -1.4611   -1.1482 N   0  0  0  1  0  0  0  0  0  0  0  0
    2.4136    1.6619   -1.6489 C   0  0  0  1  0  0  0  0  0  0  0  0
    3.3408    2.6427   -1.3516 C   0  0  0  1  0  0  0  0  0  0  0  0
    0.7153    2.9217   -0.5192 C   0  0  0  1  0  0  0  0  0  0  0  0
    1.0995    1.8002   -1.2299 C   0  0  0  1  0  0  0  0  0  0  0  0
    1.6452    3.9056   -0.2210 C   0  0  0  1  0  0  0  0  0  0  0  0
    2.9554    3.7675   -0.6389 C   0  0  0  1  0  0  0  0  0  0  0  0
    0.0099   -2.8307    0.8032 C   0  0  0  1  0  0  0  0  0  0  0  0
   -1.0546   -3.8697    1.2521 C   0  0  0  1  0  0  0  0  0  0  0  0
   -2.2871   -3.0856    1.7492 C   0  0  0  1  0  0  0  0  0  0  0  0
   -2.8333   -0.6249    1.4654 C   0  0  0  1  0  0  0  0  0  0  0  0
    2.3841   -3.5333   -1.9520 N   0  0  0  1  0  0  0  0  0  0  0  0
    3.2987   -1.6121   -2.9246 C   0  0  0  1  0  0  0  0  0  0  0  0
    2.5365   -0.8421   -2.0221 C   0  0  0  1  0  0  0  0  0  0  0  0
    2.8261    0.4647   -2.3022 N   0  0  0  1  0  0  0  0  0  0  0  0
    4.0040   -0.7582   -3.6982 N   0  0  0  1  0  0  0  0  0  0  0  0
    3.7491    0.4573   -3.3588 N   0  0  0  1  0  0  0  0  0  0  0  0
    1.2894    4.9528    0.5604 O   0  0  0  1  0  0  0  0  0  0  0  0
    0.8868   -3.3650   -0.2313 N   0  0  0  1  0  0  0  0  0  0  0  0
   -0.1106    5.1232    0.8318 C   0  0  0  1  0  0  0  0  0  0  0  0
   -2.0667   -1.7280    1.1753 N   0  0  0  1  0  0  0  0  0  0  0  0
   -0.9172   -1.7282    0.2558 C   0  0  0  1  0  0  0  0  0  0  0  0
   -3.8317   -0.2135    0.6018 C   0  0  0  1  0  0  0  0  0  0  0  0
   -4.5813    0.8988    0.9342 C   0  0  0  1  0  0  0  0  0  0  0  0
   -4.3907    1.6062    2.0520 N   0  0  0  1  0  0  0  0  0  0  0  0
   -3.4166    1.1987    2.8780 C   0  0  0  1  0  0  0  0  0  0  0  0
   -2.6213    0.0946    2.6252 C   0  0  0  1  0  0  0  0  0  0  0  0
    3.7341   -3.6131   -3.5007 H   0  0  0  1  0  0  0  0  0  0  0  0
    4.3275    2.5370   -1.6626 H   0  0  0  1  0  0  0  0  0  0  0  0
   -0.2714    3.0275   -0.2083 H   0  0  0  1  0  0  0  0  0  0  0  0
    0.4027    1.0602   -1.4501 H   0  0  0  1  0  0  0  0  0  0  0  0
    3.6522    4.5074   -0.4187 H   0  0  0  1  0  0  0  0  0  0  0  0
    0.5989   -2.4832    1.6262 H   0  0  0  1  0  0  0  0  0  0  0  0
   -0.6634   -4.4749    2.0430 H   0  0  0  1  0  0  0  0  0  0  0  0
   -1.3271   -4.4933    0.4264 H   0  0  0  1  0  0  0  0  0  0  0  0
   -3.1936   -3.5178    1.3799 H   0  0  0  1  0  0  0  0  0  0  0  0
   -2.3172   -3.0520    2.8183 H   0  0  0  1  0  0  0  0  0  0  0  0
    0.8903   -4.3437   -0.2816 H   0  0  0  1  0  0  0  0  0  0  0  0
   -0.5859    5.5753   -0.0136 H   0  0  0  1  0  0  0  0  0  0  0  0
   -0.2336    5.7522    1.6885 H   0  0  0  1  0  0  0  0  0  0  0  0
   -0.5553    4.1689    1.0225 H   0  0  0  1  0  0  0  0  0  0  0  0
   -1.2300   -1.9572   -0.7415 H   0  0  0  1  0  0  0  0  0  0  0  0
   -0.4238   -0.7788    0.2663 H   0  0  0  1  0  0  0  0  0  0  0  0
   -4.0150   -0.7314   -0.2812 H   0  0  0  1  0  0  0  0  0  0  0  0
   -5.3322    1.2008    0.2811 H   0  0  0  1  0  0  0  0  0  0  0  0
   -3.2504    1.7386    3.7512 H   0  0  0  1  0  0  0  0  0  0  0  0
   -1.8783   -0.1879    3.2957 H   0  0  0  1  0  0  0  0  0  0  0  0
  1  3  4  0  0  0  0
  1 14  4  0  0  0  0
  1 21  1  0  0  0  0
  2 14  4  0  0  0  0
  2 15  4  0  0  0  0
  2 30  1  0  0  0  0
  3 16  4  0  0  0  0
  4  5  4  0  0  0  0
  4  7  4  0  0  0  0
  4 17  1  0  0  0  0
  5  9  4  0  0  0  0
  5 31  1  0  0  0  0
  6  7  4  0  0  0  0
  6  8  4  0  0  0  0
  6 32  1  0  0  0  0
  7 33  1  0  0  0  0
  8  9  4  0  0  0  0
  8 20  1  0  0  0  0
  9 34  1  0  0  0  0
 10 11  1  0  0  0  0
 10 21  1  0  0  0  0
 10 24  1  0  0  0  0
 10 35  1  0  0  0  0
 11 12  1  0  0  0  0
 11 36  1  0  0  0  0
 11 37  1  0  0  0  0
 12 23  1  0  0  0  0
 12 38  1  0  0  0  0
 12 39  1  0  0  0  0
 13 23  1  0  0  0  0
 13 25  4  0  0  0  0
 13 29  4  0  0  0  0
 15 16  4  0  0  0  0
 15 18  4  0  0  0  0
 16 17  4  0  0  0  0
 17 19  4  0  0  0  0
 18 19  4  0  0  0  0
 20 22  1  0  0  0  0
 21 40  1  0  0  0  0
 22 41  1  0  0  0  0
 22 42  1  0  0  0  0
 22 43  1  0  0  0  0
 23 24  1  0  0  0  0
 24 44  1  0  0  0  0
 24 45  1  0  0  0  0
 25 26  4  0  0  0  0
 25 46  1  0  0  0  0
 26 27  4  0  0  0  0
 26 47  1  0  0  0  0
 27 28  4  0  0  0  0
 28 29  4  0  0  0  0
 28 48  1  0  0  0  0
 29 49  1  0  0  0  0
M  END
> <ConfClashScore>
0 

> <ConfOneFourInteractionScore>
-0.987833 

> <ConfScore>
-0.00088195 

> <ConfScorePBest>
0.00401973 

> <ConfTolerance>
0.410589 

> <HETNAM>
     OWQ A 303  OWQ                                                       

> <pdb_OW>
Q_303 -16.5129 3.80749 7.62812 0.15963 1.39178 -0.28144 -3.20151 0 0 0 -1.30514 0 0 0 0 0 0 0 0 -8.31393

$$$$
6yky_lig_1.pdb
 OpenBabel04162415593D

 49 53  0  0  0  0  0  0  0  0999 V2000
    1.0987   -0.3642    1.2148 C   0  0  0  1  0  0  0  0  0  0  0  0
    2.6484   -1.6211    2.3673 C   0  0  0  1  0  0  0  0  0  0  0  0
    1.4641   -0.8525    0.0491 N   0  0  0  1  0  0  0  0  0  0  0  0
    2.8248   -2.4251   -2.4566 C   0  0  0  1  0  0  0  0  0  0  0  0
    1.8343   -1.5963   -2.9486 C   0  0  0  1  0  0  0  0  0  0  0  0
    3.1955   -3.2940   -4.6600 C   0  0  0  1  0  0  0  0  0  0  0  0
    3.5046   -3.2772   -3.3130 C   0  0  0  1  0  0  0  0  0  0  0  0
    2.2020   -2.4627   -5.1537 C   0  0  0  1  0  0  0  0  0  0  0  0
    1.5243   -1.6133   -4.2996 C   0  0  0  1  0  0  0  0  0  0  0  0
   -0.5092    1.1046    2.4625 C   0  0  0  1  0  0  0  0  0  0  0  0
   -1.5074    0.1079    3.0924 C   0  0  0  1  0  0  0  0  0  0  0  0
   -2.7114    0.8955    3.5441 C   0  0  0  1  0  0  0  0  0  0  0  0
   -3.4591    3.3155    2.8290 C   0  0  0  1  0  0  0  0  0  0  0  0
    1.6706   -0.7335    2.3475 N   0  0  0  1  0  0  0  0  0  0  0  0
    3.0772   -2.1734    1.1550 C   0  0  0  1  0  0  0  0  0  0  0  0
    2.4387   -1.7502   -0.0289 C   0  0  0  1  0  0  0  0  0  0  0  0
    3.0411   -2.4343   -1.0482 N   0  0  0  1  0  0  0  0  0  0  0  0
    4.0205   -3.0774    0.8116 N   0  0  0  1  0  0  0  0  0  0  0  0
    4.0225   -3.2493   -0.4644 N   0  0  0  1  0  0  0  0  0  0  0  0
    1.8485   -2.4344   -6.4572 O   0  0  0  1  0  0  0  0  0  0  0  0
    0.1072    0.5440    1.2568 N   0  0  0  1  0  0  0  0  0  0  0  0
    2.4929   -3.3223   -7.3840 C   0  0  0  1  0  0  0  0  0  0  0  0
   -2.4984    2.2271    2.7915 N   0  0  0  1  0  0  0  0  0  0  0  0
   -1.3908    2.2907    2.1245 C   0  0  0  1  0  0  0  0  0  0  0  0
   -3.1607    4.5389    2.2580 C   0  0  0  1  0  0  0  0  0  0  0  0
   -4.1053    5.5460    2.3128 C   0  0  0  1  0  0  0  0  0  0  0  0
   -5.2999    5.4022    2.8947 N   0  0  0  1  0  0  0  0  0  0  0  0
   -5.5741    4.2123    3.4481 C   0  0  0  1  0  0  0  0  0  0  0  0
   -4.6887    3.1488    3.4356 C   0  0  0  1  0  0  0  0  0  0  0  0
    3.0906   -1.9037    3.2651 H   0  0  0  1  0  0  0  0  0  0  0  0
    1.3215   -0.9600   -2.3054 H   0  0  0  1  0  0  0  0  0  0  0  0
    3.7082   -3.9303   -5.3032 H   0  0  0  1  0  0  0  0  0  0  0  0
    4.2472   -3.9037   -2.9419 H   0  0  0  1  0  0  0  0  0  0  0  0
    0.7818   -0.9867   -4.6706 H   0  0  0  1  0  0  0  0  0  0  0  0
    0.2547    1.3782    3.1600 H   0  0  0  1  0  0  0  0  0  0  0  0
   -1.8001   -0.6229    2.3677 H   0  0  0  1  0  0  0  0  0  0  0  0
   -1.0557   -0.3809    3.9302 H   0  0  0  1  0  0  0  0  0  0  0  0
   -2.7102    1.0398    4.6043 H   0  0  0  1  0  0  0  0  0  0  0  0
   -3.6237    0.4203    3.2494 H   0  0  0  1  0  0  0  0  0  0  0  0
   -0.2369    0.8622    0.3962 H   0  0  0  1  0  0  0  0  0  0  0  0
    2.0175   -3.2474   -8.3397 H   0  0  0  1  0  0  0  0  0  0  0  0
    2.4169   -4.3278   -7.0259 H   0  0  0  1  0  0  0  0  0  0  0  0
    3.5243   -3.0533   -7.4769 H   0  0  0  1  0  0  0  0  0  0  0  0
   -0.8780    3.1955    2.3760 H   0  0  0  1  0  0  0  0  0  0  0  0
   -1.6080    2.2827    1.0768 H   0  0  0  1  0  0  0  0  0  0  0  0
   -2.2427    4.6981    1.7960 H   0  0  0  1  0  0  0  0  0  0  0  0
   -3.8749    6.4627    1.8791 H   0  0  0  1  0  0  0  0  0  0  0  0
   -6.4972    4.0822    3.9091 H   0  0  0  1  0  0  0  0  0  0  0  0
   -4.9442    2.2413    3.8747 H   0  0  0  1  0  0  0  0  0  0  0  0
  1  3  4  0  0  0  0
  1 14  4  0  0  0  0
  1 21  1  0  0  0  0
  2 14  4  0  0  0  0
  2 15  4  0  0  0  0
  2 30  1  0  0  0  0
  3 16  4  0  0  0  0
  4  5  4  0  0  0  0
  4  7  4  0  0  0  0
  4 17  1  0  0  0  0
  5  9  4  0  0  0  0
  5 31  1  0  0  0  0
  6  7  4  0  0  0  0
  6  8  4  0  0  0  0
  6 32  1  0  0  0  0
  7 33  1  0  0  0  0
  8  9  4  0  0  0  0
  8 20  1  0  0  0  0
  9 34  1  0  0  0  0
 10 11  1  0  0  0  0
 10 21  1  0  0  0  0
 10 24  1  0  0  0  0
 10 35  1  0  0  0  0
 11 12  1  0  0  0  0
 11 36  1  0  0  0  0
 11 37  1  0  0  0  0
 12 23  1  0  0  0  0
 12 38  1  0  0  0  0
 12 39  1  0  0  0  0
 13 23  1  0  0  0  0
 13 25  4  0  0  0  0
 13 29  4  0  0  0  0
 15 16  4  0  0  0  0
 15 18  4  0  0  0  0
 16 17  4  0  0  0  0
 17 19  4  0  0  0  0
 18 19  4  0  0  0  0
 20 22  1  0  0  0  0
 21 40  1  0  0  0  0
 22 41  1  0  0  0  0
 22 42  1  0  0  0  0
 22 43  1  0  0  0  0
 23 24  1  0  0  0  0
 24 44  1  0  0  0  0
 24 45  1  0  0  0  0
 25 26  4  0  0  0  0
 25 46  1  0  0  0  0
 26 27  4  0  0  0  0
 26 47  1  0  0  0  0
 27 28  4  0  0  0  0
 28 29  4  0  0  0  0
 28 48  1  0  0  0  0
 29 49  1  0  0  0  0
M  END
> <ConfClashScore>
0 

> <ConfOneFourInteractionScore>
-0.986948 

> <ConfScore>
-0.000309232 

> <ConfScorePBest>
0.00400641 

> <ConfTolerance>
0.43632 

> <HETNAM>
     OWQ A 303  OWQ                                                       

> <pdb_OW>
Q_303 -16.5129 3.80749 7.62812 0.15963 1.39178 -0.28144 -3.20151 0 0 0 -1.30514 0 0 0 0 0 0 0 0 -8.31393

$$$$
6yky_lig_1.pdb
 OpenBabel04162415593D

 49 53  0  0  0  0  0  0  0  0999 V2000
    0.2898    0.3023    0.4075 C   0  0  0  1  0  0  0  0  0  0  0  0
    1.4366    2.2972    0.2865 C   0  0  0  1  0  0  0  0  0  0  0  0
    1.0615   -0.2775   -0.4865 N   0  0  0  1  0  0  0  0  0  0  0  0
    3.4173   -1.1447   -2.5575 C   0  0  0  1  0  0  0  0  0  0  0  0
    4.6615   -1.6749   -2.2727 C   0  0  0  1  0  0  0  0  0  0  0  0
    3.0117   -2.9252   -4.1107 C   0  0  0  1  0  0  0  0  0  0  0  0
    2.5922   -1.7692   -3.4798 C   0  0  0  1  0  0  0  0  0  0  0  0
    4.2595   -3.4571   -3.8251 C   0  0  0  1  0  0  0  0  0  0  0  0
    5.0820   -2.8343   -2.9054 C   0  0  0  1  0  0  0  0  0  0  0  0
   -1.5718    0.1393    2.0075 C   0  0  0  1  0  0  0  0  0  0  0  0
   -2.6326   -0.8844    2.4986 C   0  0  0  1  0  0  0  0  0  0  0  0
   -3.8453   -0.0831    3.0168 C   0  0  0  1  0  0  0  0  0  0  0  0
   -4.3916    2.3972    2.7179 C   0  0  0  1  0  0  0  0  0  0  0  0
    0.4663    1.5553    0.7887 N   0  0  0  1  0  0  0  0  0  0  0  0
    2.2880    1.7306   -0.6688 C   0  0  0  1  0  0  0  0  0  0  0  0
    2.0627    0.3907   -1.0459 C   0  0  0  1  0  0  0  0  0  0  0  0
    3.0198    0.0942   -1.9766 N   0  0  0  1  0  0  0  0  0  0  0  0
    3.3499    2.1815   -1.3717 N   0  0  0  1  0  0  0  0  0  0  0  0
    3.7965    1.2508   -2.1411 N   0  0  0  1  0  0  0  0  0  0  0  0
    4.5629   -4.5869   -4.5073 O   0  0  0  1  0  0  0  0  0  0  0  0
   -0.7299   -0.4146    0.9618 N   0  0  0  1  0  0  0  0  0  0  0  0
    5.9168   -5.0590   -4.4259 C   0  0  0  1  0  0  0  0  0  0  0  0
   -3.6290    1.2645    2.4183 N   0  0  0  1  0  0  0  0  0  0  0  0
   -2.5041    1.2419    1.4692 C   0  0  0  1  0  0  0  0  0  0  0  0
   -5.6554    2.5583    2.1807 C   0  0  0  1  0  0  0  0  0  0  0  0
   -6.3765    3.6912    2.5062 C   0  0  0  1  0  0  0  0  0  0  0  0
   -5.9146    4.6489    3.3160 N   0  0  0  1  0  0  0  0  0  0  0  0
   -4.6862    4.4818    3.8263 C   0  0  0  1  0  0  0  0  0  0  0  0
   -3.8973    3.3772    3.5563 C   0  0  0  1  0  0  0  0  0  0  0  0
    1.5653    3.2822    0.5946 H   0  0  0  1  0  0  0  0  0  0  0  0
    5.2821   -1.2041   -1.5836 H   0  0  0  1  0  0  0  0  0  0  0  0
    2.3911   -3.3960   -4.7997 H   0  0  0  1  0  0  0  0  0  0  0  0
    1.6577   -1.3679   -3.6971 H   0  0  0  1  0  0  0  0  0  0  0  0
    6.0166   -3.2355   -2.6881 H   0  0  0  1  0  0  0  0  0  0  0  0
   -0.9587    0.4931    2.8098 H   0  0  0  1  0  0  0  0  0  0  0  0
   -2.9318   -1.5170    1.6892 H   0  0  0  1  0  0  0  0  0  0  0  0
   -2.2256   -1.4819    3.2874 H   0  0  0  1  0  0  0  0  0  0  0  0
   -3.8469   -0.0345    4.0857 H   0  0  0  1  0  0  0  0  0  0  0  0
   -4.7646   -0.5127    2.6774 H   0  0  0  1  0  0  0  0  0  0  0  0
   -0.8986   -1.3270    0.6462 H   0  0  0  1  0  0  0  0  0  0  0  0
    6.5672   -4.3647   -4.9155 H   0  0  0  1  0  0  0  0  0  0  0  0
    5.9906   -6.0139   -4.9031 H   0  0  0  1  0  0  0  0  0  0  0  0
    6.2012   -5.1503   -3.3985 H   0  0  0  1  0  0  0  0  0  0  0  0
   -2.0029    2.1871    1.4534 H   0  0  0  1  0  0  0  0  0  0  0  0
   -2.8448    1.0018    0.4837 H   0  0  0  1  0  0  0  0  0  0  0  0
   -6.0557    1.8404    1.5435 H   0  0  0  1  0  0  0  0  0  0  0  0
   -7.3273    3.8045    2.1004 H   0  0  0  1  0  0  0  0  0  0  0  0
   -4.3076    5.2182    4.4557 H   0  0  0  1  0  0  0  0  0  0  0  0
   -2.9504    3.2868    3.9767 H   0  0  0  1  0  0  0  0  0  0  0  0
  1  3  4  0  0  0  0
  1 14  4  0  0  0  0
  1 21  1  0  0  0  0
  2 14  4  0  0  0  0
  2 15  4  0  0  0  0
  2 30  1  0  0  0  0
  3 16  4  0  0  0  0
  4  5  4  0  0  0  0
  4  7  4  0  0  0  0
  4 17  1  0  0  0  0
  5  9  4  0  0  0  0
  5 31  1  0  0  0  0
  6  7  4  0  0  0  0
  6  8  4  0  0  0  0
  6 32  1  0  0  0  0
  7 33  1  0  0  0  0
  8  9  4  0  0  0  0
  8 20  1  0  0  0  0
  9 34  1  0  0  0  0
 10 11  1  0  0  0  0
 10 21  1  0  0  0  0
 10 24  1  0  0  0  0
 10 35  1  0  0  0  0
 11 12  1  0  0  0  0
 11 36  1  0  0  0  0
 11 37  1  0  0  0  0
 12 23  1  0  0  0  0
 12 38  1  0  0  0  0
 12 39  1  0  0  0  0
 13 23  1  0  0  0  0
 13 25  4  0  0  0  0
 13 29  4  0  0  0  0
 15 16  4  0  0  0  0
 15 18  4  0  0  0  0
 16 17  4  0  0  0  0
 17 19  4  0  0  0  0
 18 19  4  0  0  0  0
 20 22  1  0  0  0  0
 21 40  1  0  0  0  0
 22 41  1  0  0  0  0
 22 42  1  0  0  0  0
 22 43  1  0  0  0  0
 23 24  1  0  0  0  0
 24 44  1  0  0  0  0
 24 45  1  0  0  0  0
 25 26  4  0  0  0  0
 25 46  1  0  0  0  0
 26 27  4  0  0  0  0
 26 47  1  0  0  0  0
 27 28  4  0  0  0  0
 28 29  4  0  0  0  0
 28 48  1  0  0  0  0
 29 49  1  0  0  0  0
M  END
> <ConfClashScore>
0 

> <ConfOneFourInteractionScore>
-0.984874 

> <ConfScore>
-0.00025223 

> <ConfScorePBest>
0.00399308 

> <ConfTolerance>
0.395381 

> <HETNAM>
     OWQ A 303  OWQ                                                       

> <pdb_OW>
Q_303 -16.5129 3.80749 7.62812 0.15963 1.39178 -0.28144 -3.20151 0 0 0 -1.30514 0 0 0 0 0 0 0 0 -8.31393

$$$$
6yky_lig_1.pdb
 OpenBabel04162415593D

 49 53  0  0  0  0  0  0  0  0999 V2000
    0.4497   -1.1279   -2.5147 C   0  0  0  1  0  0  0  0  0  0  0  0
    2.0543   -2.1206   -3.8373 C   0  0  0  1  0  0  0  0  0  0  0  0
    1.2050   -1.1762   -1.4386 N   0  0  0  1  0  0  0  0  0  0  0  0
    3.5798   -1.6120    0.7967 C   0  0  0  1  0  0  0  0  0  0  0  0
    2.6091   -2.0201    1.6919 C   0  0  0  1  0  0  0  0  0  0  0  0
    4.7502   -0.5001    2.5691 C   0  0  0  1  0  0  0  0  0  0  0  0
    4.6506   -0.8487    1.2353 C   0  0  0  1  0  0  0  0  0  0  0  0
    3.7767   -0.9093    3.4671 C   0  0  0  1  0  0  0  0  0  0  0  0
    2.7092   -1.6705    3.0295 C   0  0  0  1  0  0  0  0  0  0  0  0
   -1.3939   -0.0357   -1.2217 C   0  0  0  1  0  0  0  0  0  0  0  0
   -2.3921   -1.0322   -0.5914 C   0  0  0  1  0  0  0  0  0  0  0  0
   -3.5958   -0.2445   -0.1395 C   0  0  0  1  0  0  0  0  0  0  0  0
   -4.3151    2.1436   -0.8556 C   0  0  0  1  0  0  0  0  0  0  0  0
    0.8563   -1.5857   -3.6858 N   0  0  0  1  0  0  0  0  0  0  0  0
    2.8998   -2.1974   -2.7248 C   0  0  0  1  0  0  0  0  0  0  0  0
    2.4247   -1.6968   -1.4952 C   0  0  0  1  0  0  0  0  0  0  0  0
    3.4328   -1.8933   -0.5924 N   0  0  0  1  0  0  0  0  0  0  0  0
    4.1500   -2.6669   -2.5208 N   0  0  0  1  0  0  0  0  0  0  0  0
    4.4868   -2.5033   -1.2890 N   0  0  0  1  0  0  0  0  0  0  0  0
    3.7647   -0.6259    4.7913 O   0  0  0  1  0  0  0  0  0  0  0  0
   -0.7812   -0.5934   -2.4210 N   0  0  0  1  0  0  0  0  0  0  0  0
    4.8159    0.2148    5.2919 C   0  0  0  1  0  0  0  0  0  0  0  0
   -3.3828    1.0870   -0.8922 N   0  0  0  1  0  0  0  0  0  0  0  0
   -2.2754    1.1505   -1.5596 C   0  0  0  1  0  0  0  0  0  0  0  0
   -5.2784    2.3330   -1.8293 C   0  0  0  1  0  0  0  0  0  0  0  0
   -6.1509    3.3971   -1.7030 C   0  0  0  1  0  0  0  0  0  0  0  0
   -6.1126    4.2619   -0.6847 N   0  0  0  1  0  0  0  0  0  0  0  0
   -5.1710    4.0690    0.2497 C   0  0  0  1  0  0  0  0  0  0  0  0
   -4.2600    3.0281    0.2038 C   0  0  0  1  0  0  0  0  0  0  0  0
    2.3629   -2.4775   -4.7641 H   0  0  0  1  0  0  0  0  0  0  0  0
    1.8037   -2.5894    1.3620 H   0  0  0  1  0  0  0  0  0  0  0  0
    5.5556    0.0692    2.8990 H   0  0  0  1  0  0  0  0  0  0  0  0
    5.3788   -0.5383    0.5609 H   0  0  0  1  0  0  0  0  0  0  0  0
    1.9809   -1.9809    3.7039 H   0  0  0  1  0  0  0  0  0  0  0  0
   -0.6298    0.2378   -0.5244 H   0  0  0  1  0  0  0  0  0  0  0  0
   -2.6851   -1.7630   -1.3160 H   0  0  0  1  0  0  0  0  0  0  0  0
   -1.9401   -1.5211    0.2462 H   0  0  0  1  0  0  0  0  0  0  0  0
   -3.5942   -0.1000    0.9207 H   0  0  0  1  0  0  0  0  0  0  0  0
   -4.5083   -0.7196   -0.4338 H   0  0  0  1  0  0  0  0  0  0  0  0
   -1.3192   -0.5775   -3.2400 H   0  0  0  1  0  0  0  0  0  0  0  0
    4.5252    0.6265    6.2357 H   0  0  0  1  0  0  0  0  0  0  0  0
    4.9986    1.0084    4.5979 H   0  0  0  1  0  0  0  0  0  0  0  0
    5.7073   -0.3643    5.4150 H   0  0  0  1  0  0  0  0  0  0  0  0
   -1.7624    2.0553   -1.3082 H   0  0  0  1  0  0  0  0  0  0  0  0
   -2.4929    1.1425   -2.6072 H   0  0  0  1  0  0  0  0  0  0  0  0
   -5.3449    1.6867   -2.6414 H   0  0  0  1  0  0  0  0  0  0  0  0
   -6.8744    3.5318   -2.4378 H   0  0  0  1  0  0  0  0  0  0  0  0
   -5.1227    4.7338    1.0480 H   0  0  0  1  0  0  0  0  0  0  0  0
   -3.5474    2.9141    0.9527 H   0  0  0  1  0  0  0  0  0  0  0  0
  1  3  4  0  0  0  0
  1 14  4  0  0  0  0
  1 21  1  0  0  0  0
  2 14  4  0  0  0  0
  2 15  4  0  0  0  0
  2 30  1  0  0  0  0
  3 16  4  0  0  0  0
  4  5  4  0  0  0  0
  4  7  4  0  0  0  0
  4 17  1  0  0  0  0
  5  9  4  0  0  0  0
  5 31  1  0  0  0  0
  6  7  4  0  0  0  0
  6  8  4  0  0  0  0
  6 32  1  0  0  0  0
  7 33  1  0  0  0  0
  8  9  4  0  0  0  0
  8 20  1  0  0  0  0
  9 34  1  0  0  0  0
 10 11  1  0  0  0  0
 10 21  1  0  0  0  0
 10 24  1  0  0  0  0
 10 35  1  0  0  0  0
 11 12  1  0  0  0  0
 11 36  1  0  0  0  0
 11 37  1  0  0  0  0
 12 23  1  0  0  0  0
 12 38  1  0  0  0  0
 12 39  1  0  0  0  0
 13 23  1  0  0  0  0
 13 25  4  0  0  0  0
 13 29  4  0  0  0  0
 15 16  4  0  0  0  0
 15 18  4  0  0  0  0
 16 17  4  0  0  0  0
 17 19  4  0  0  0  0
 18 19  4  0  0  0  0
 20 22  1  0  0  0  0
 21 40  1  0  0  0  0
 22 41  1  0  0  0  0
 22 42  1  0  0  0  0
 22 43  1  0  0  0  0
 23 24  1  0  0  0  0
 24 44  1  0  0  0  0
 24 45  1  0  0  0  0
 25 26  4  0  0  0  0
 25 46  1  0  0  0  0
 26 27  4  0  0  0  0
 26 47  1  0  0  0  0
 27 28  4  0  0  0  0
 28 29  4  0  0  0  0
 28 48  1  0  0  0  0
 29 49  1  0  0  0  0
M  END
> <ConfClashScore>
0 

> <ConfOneFourInteractionScore>
-0.986948 

> <ConfScore>
0.000451606 

> <ConfScorePBest>
0.00397975 

> <ConfTolerance>
0.460876 

> <HETNAM>
     OWQ A 303  OWQ                                                       

> <pdb_OW>
Q_303 -16.5129 3.80749 7.62812 0.15963 1.39178 -0.28144 -3.20151 0 0 0 -1.30514 0 0 0 0 0 0 0 0 -8.31393

$$$$
6yky_lig_1.pdb
 OpenBabel04162415593D

 49 53  0  0  0  0  0  0  0  0999 V2000
    0.4525    0.2676    0.4757 C   0  0  0  1  0  0  0  0  0  0  0  0
    1.4593    2.3399    0.4345 C   0  0  0  1  0  0  0  0  0  0  0  0
    1.2918   -0.2364   -0.4032 N   0  0  0  1  0  0  0  0  0  0  0  0
    3.6479   -0.8461   -2.5666 C   0  0  0  1  0  0  0  0  0  0  0  0
    3.4563   -0.8144   -3.9350 C   0  0  0  1  0  0  0  0  0  0  0  0
    4.3803   -3.1237   -2.7196 C   0  0  0  1  0  0  0  0  0  0  0  0
    4.1080   -2.0032   -1.9576 C   0  0  0  1  0  0  0  0  0  0  0  0
    4.1881   -3.0921   -4.0921 C   0  0  0  1  0  0  0  0  0  0  0  0
    3.7293   -1.9383   -4.6991 C   0  0  0  1  0  0  0  0  0  0  0  0
   -1.4285    0.0534    2.0504 C   0  0  0  1  0  0  0  0  0  0  0  0
   -2.4931   -0.9854    2.4995 C   0  0  0  1  0  0  0  0  0  0  0  0
   -3.7253   -0.2012    2.9971 C   0  0  0  1  0  0  0  0  0  0  0  0
   -4.2647    2.2506    2.7113 C   0  0  0  1  0  0  0  0  0  0  0  0
    0.5279    1.5209    0.8882 N   0  0  0  1  0  0  0  0  0  0  0  0
    2.3790    1.8559   -0.5027 C   0  0  0  1  0  0  0  0  0  0  0  0
    2.2611    0.5125   -0.9145 C   0  0  0  1  0  0  0  0  0  0  0  0
    3.2664    0.3047   -1.8180 N   0  0  0  1  0  0  0  0  0  0  0  0
    3.4288    2.3956   -1.1597 N   0  0  0  1  0  0  0  0  0  0  0  0
    3.9646    1.5161   -1.9324 N   0  0  0  1  0  0  0  0  0  0  0  0
    4.4148   -4.1250   -4.9380 O   0  0  0  1  0  0  0  0  0  0  0  0
   -0.5552   -0.4790    1.0193 N   0  0  0  1  0  0  0  0  0  0  0  0
    4.9282   -5.3392   -4.3682 C   0  0  0  1  0  0  0  0  0  0  0  0
   -3.5048    1.1564    2.4233 N   0  0  0  1  0  0  0  0  0  0  0  0
   -2.3555    1.1562    1.5035 C   0  0  0  1  0  0  0  0  0  0  0  0
   -5.4672    2.4058    2.0469 C   0  0  0  1  0  0  0  0  0  0  0  0
   -6.2476    3.5095    2.3340 C   0  0  0  1  0  0  0  0  0  0  0  0
   -5.8996    4.4443    3.2236 N   0  0  0  1  0  0  0  0  0  0  0  0
   -4.7292    4.2835    3.8572 C   0  0  0  1  0  0  0  0  0  0  0  0
   -3.8882    3.2073    3.6337 C   0  0  0  1  0  0  0  0  0  0  0  0
    1.5082    3.3241    0.7668 H   0  0  0  1  0  0  0  0  0  0  0  0
    3.1072    0.0525   -4.3913 H   0  0  0  1  0  0  0  0  0  0  0  0
    4.7293   -3.9906   -2.2633 H   0  0  0  1  0  0  0  0  0  0  0  0
    4.2484   -2.0282   -0.9274 H   0  0  0  1  0  0  0  0  0  0  0  0
    3.5890   -1.9132   -5.7293 H   0  0  0  1  0  0  0  0  0  0  0  0
   -0.8392    0.4006    2.8733 H   0  0  0  1  0  0  0  0  0  0  0  0
   -2.1018   -1.5909    3.2901 H   0  0  0  1  0  0  0  0  0  0  0  0
   -2.7660   -1.6088    1.6738 H   0  0  0  1  0  0  0  0  0  0  0  0
   -4.6320   -0.6331    2.6279 H   0  0  0  1  0  0  0  0  0  0  0  0
   -3.7550   -0.1677    4.0662 H   0  0  0  1  0  0  0  0  0  0  0  0
   -0.6919   -1.3972    0.7053 H   0  0  0  1  0  0  0  0  0  0  0  0
    5.9123   -5.1660   -3.9856 H   0  0  0  1  0  0  0  0  0  0  0  0
    4.9673   -6.0979   -5.1218 H   0  0  0  1  0  0  0  0  0  0  0  0
    4.2876   -5.6585   -3.5728 H   0  0  0  1  0  0  0  0  0  0  0  0
   -2.6687    0.9274    0.5062 H   0  0  0  1  0  0  0  0  0  0  0  0
   -1.8619    2.1054    1.5140 H   0  0  0  1  0  0  0  0  0  0  0  0
   -5.7786    1.7051    1.3443 H   0  0  0  1  0  0  0  0  0  0  0  0
   -7.1520    3.6183    1.8321 H   0  0  0  1  0  0  0  0  0  0  0  0
   -4.4391    5.0024    4.5504 H   0  0  0  1  0  0  0  0  0  0  0  0
   -2.9898    3.1206    4.1505 H   0  0  0  1  0  0  0  0  0  0  0  0
  1  3  4  0  0  0  0
  1 14  4  0  0  0  0
  1 21  1  0  0  0  0
  2 14  4  0  0  0  0
  2 15  4  0  0  0  0
  2 30  1  0  0  0  0
  3 16  4  0  0  0  0
  4  5  4  0  0  0  0
  4  7  4  0  0  0  0
  4 17  1  0  0  0  0
  5  9  4  0  0  0  0
  5 31  1  0  0  0  0
  6  7  4  0  0  0  0
  6  8  4  0  0  0  0
  6 32  1  0  0  0  0
  7 33  1  0  0  0  0
  8  9  4  0  0  0  0
  8 20  1  0  0  0  0
  9 34  1  0  0  0  0
 10 11  1  0  0  0  0
 10 21  1  0  0  0  0
 10 24  1  0  0  0  0
 10 35  1  0  0  0  0
 11 12  1  0  0  0  0
 11 36  1  0  0  0  0
 11 37  1  0  0  0  0
 12 23  1  0  0  0  0
 12 38  1  0  0  0  0
 12 39  1  0  0  0  0
 13 23  1  0  0  0  0
 13 25  4  0  0  0  0
 13 29  4  0  0  0  0
 15 16  4  0  0  0  0
 15 18  4  0  0  0  0
 16 17  4  0  0  0  0
 17 19  4  0  0  0  0
 18 19  4  0  0  0  0
 20 22  1  0  0  0  0
 21 40  1  0  0  0  0
 22 41  1  0  0  0  0
 22 42  1  0  0  0  0
 22 43  1  0  0  0  0
 23 24  1  0  0  0  0
 24 44  1  0  0  0  0
 24 45  1  0  0  0  0
 25 26  4  0  0  0  0
 25 46  1  0  0  0  0
 26 27  4  0  0  0  0
 26 47  1  0  0  0  0
 27 28  4  0  0  0  0
 28 29  4  0  0  0  0
 28 48  1  0  0  0  0
 29 49  1  0  0  0  0
M  END
> <ConfClashScore>
0 

> <ConfOneFourInteractionScore>
-0.984874 

> <ConfScore>
0.00175732 

> <ConfScorePBest>
0.00396642 

> <ConfTolerance>
0.387308 

> <HETNAM>
     OWQ A 303  OWQ                                                       

> <pdb_OW>
Q_303 -16.5129 3.80749 7.62812 0.15963 1.39178 -0.28144 -3.20151 0 0 0 -1.30514 0 0 0 0 0 0 0 0 -8.31393

$$$$
6yky_lig_1.pdb
 OpenBabel04162415593D

 49 53  0  0  0  0  0  0  0  0999 V2000
    1.3942   -0.2976   -2.5291 C   0  0  0  1  0  0  0  0  0  0  0  0
    2.5809   -1.8037   -3.8069 C   0  0  0  1  0  0  0  0  0  0  0  0
    1.5370   -1.0081   -1.4311 N   0  0  0  1  0  0  0  0  0  0  0  0
    2.2428   -3.2002    0.8710 C   0  0  0  1  0  0  0  0  0  0  0  0
    1.4672   -2.2371    1.4882 C   0  0  0  1  0  0  0  0  0  0  0  0
    2.6174   -4.2590    2.9890 C   0  0  0  1  0  0  0  0  0  0  0  0
    2.8210   -4.2112    1.6227 C   0  0  0  1  0  0  0  0  0  0  0  0
    1.8395   -3.2931    3.6082 C   0  0  0  1  0  0  0  0  0  0  0  0
    1.2631   -2.2852    2.8584 C   0  0  0  1  0  0  0  0  0  0  0  0
    0.0906    1.4349   -1.2796 C   0  0  0  1  0  0  0  0  0  0  0  0
   -0.8946    0.4419   -0.6239 C   0  0  0  1  0  0  0  0  0  0  0  0
   -2.1082    1.2253   -0.1912 C   0  0  0  1  0  0  0  0  0  0  0  0
   -2.8332    3.5577   -0.9671 C   0  0  0  1  0  0  0  0  0  0  0  0
    1.8996   -0.6785   -3.6893 N   0  0  0  1  0  0  0  0  0  0  0  0
    2.7634   -2.5990   -2.6699 C   0  0  0  1  0  0  0  0  0  0  0  0
    2.2068   -2.1539   -1.4533 C   0  0  0  1  0  0  0  0  0  0  0  0
    2.5277   -3.1021   -0.5217 N   0  0  0  1  0  0  0  0  0  0  0  0
    3.3855   -3.7741   -2.4307 N   0  0  0  1  0  0  0  0  0  0  0  0
    3.2650   -4.0918   -1.1889 N   0  0  0  1  0  0  0  0  0  0  0  0
    1.7248   -3.2851    4.9575 O   0  0  0  1  0  0  0  0  0  0  0  0
    0.7131    0.8523   -2.4705 N   0  0  0  1  0  0  0  0  0  0  0  0
    0.8096   -2.3395    5.5326 C   0  0  0  1  0  0  0  0  0  0  0  0
   -1.9124    2.5401   -0.9773 N   0  0  0  1  0  0  0  0  0  0  0  0
   -0.8060    2.6009   -1.6467 C   0  0  0  1  0  0  0  0  0  0  0  0
   -4.0143    3.4324   -0.2594 C   0  0  0  1  0  0  0  0  0  0  0  0
   -4.9119    4.4830   -0.2730 C   0  0  0  1  0  0  0  0  0  0  0  0
   -4.7007    5.6215   -0.9404 N   0  0  0  1  0  0  0  0  0  0  0  0
   -3.5534    5.7277   -1.6257 C   0  0  0  1  0  0  0  0  0  0  0  0
   -2.5980    4.7271   -1.6636 C   0  0  0  1  0  0  0  0  0  0  0  0
    2.9738   -2.0927   -4.7255 H   0  0  0  1  0  0  0  0  0  0  0  0
    1.0367   -1.4764    0.9246 H   0  0  0  1  0  0  0  0  0  0  0  0
    3.0479   -5.0198    3.5525 H   0  0  0  1  0  0  0  0  0  0  0  0
    3.4080   -4.9336    1.1588 H   0  0  0  1  0  0  0  0  0  0  0  0
    0.6761   -1.5628    3.3223 H   0  0  0  1  0  0  0  0  0  0  0  0
    0.8514    1.7357   -0.5899 H   0  0  0  1  0  0  0  0  0  0  0  0
   -0.4362   -0.0199    0.2256 H   0  0  0  1  0  0  0  0  0  0  0  0
   -1.1784   -0.3105   -1.3297 H   0  0  0  1  0  0  0  0  0  0  0  0
   -2.1082    1.3964    0.8650 H   0  0  0  1  0  0  0  0  0  0  0  0
   -3.0145    0.7314   -0.4730 H   0  0  0  1  0  0  0  0  0  0  0  0
    0.6216    1.3544   -3.3071 H   0  0  0  1  0  0  0  0  0  0  0  0
    0.7847   -2.4671    6.5947 H   0  0  0  1  0  0  0  0  0  0  0  0
   -0.1690   -2.5012    5.1312 H   0  0  0  1  0  0  0  0  0  0  0  0
    1.1311   -1.3457    5.3005 H   0  0  0  1  0  0  0  0  0  0  0  0
   -0.3046    3.5182   -1.4185 H   0  0  0  1  0  0  0  0  0  0  0  0
   -1.0237    2.5637   -2.6937 H   0  0  0  1  0  0  0  0  0  0  0  0
   -4.2233    2.5638    0.2730 H   0  0  0  1  0  0  0  0  0  0  0  0
   -5.7972    4.3826    0.2636 H   0  0  0  1  0  0  0  0  0  0  0  0
   -3.3725    6.6047   -2.1546 H   0  0  0  1  0  0  0  0  0  0  0  0
   -1.7198    4.8532   -2.2061 H   0  0  0  1  0  0  0  0  0  0  0  0
  1  3  4  0  0  0  0
  1 14  4  0  0  0  0
  1 21  1  0  0  0  0
  2 14  4  0  0  0  0
  2 15  4  0  0  0  0
  2 30  1  0  0  0  0
  3 16  4  0  0  0  0
  4  5  4  0  0  0  0
  4  7  4  0  0  0  0
  4 17  1  0  0  0  0
  5  9  4  0  0  0  0
  5 31  1  0  0  0  0
  6  7  4  0  0  0  0
  6  8  4  0  0  0  0
  6 32  1  0  0  0  0
  7 33  1  0  0  0  0
  8  9  4  0  0  0  0
  8 20  1  0  0  0  0
  9 34  1  0  0  0  0
 10 11  1  0  0  0  0
 10 21  1  0  0  0  0
 10 24  1  0  0  0  0
 10 35  1  0  0  0  0
 11 12  1  0  0  0  0
 11 36  1  0  0  0  0
 11 37  1  0  0  0  0
 12 23  1  0  0  0  0
 12 38  1  0  0  0  0
 12 39  1  0  0  0  0
 13 23  1  0  0  0  0
 13 25  4  0  0  0  0
 13 29  4  0  0  0  0
 15 16  4  0  0  0  0
 15 18  4  0  0  0  0
 16 17  4  0  0  0  0
 17 19  4  0  0  0  0
 18 19  4  0  0  0  0
 20 22  1  0  0  0  0
 21 40  1  0  0  0  0
 22 41  1  0  0  0  0
 22 42  1  0  0  0  0
 22 43  1  0  0  0  0
 23 24  1  0  0  0  0
 24 44  1  0  0  0  0
 24 45  1  0  0  0  0
 25 26  4  0  0  0  0
 25 46  1  0  0  0  0
 26 27  4  0  0  0  0
 26 47  1  0  0  0  0
 27 28  4  0  0  0  0
 28 29  4  0  0  0  0
 28 48  1  0  0  0  0
 29 49  1  0  0  0  0
M  END
> <ConfClashScore>
0 

> <ConfOneFourInteractionScore>
-0.987833 

> <ConfScore>
0.00178947 

> <ConfScorePBest>
0.00395309 

> <ConfTolerance>
0.452325 

> <HETNAM>
     OWQ A 303  OWQ                                                       

> <pdb_OW>
Q_303 -16.5129 3.80749 7.62812 0.15963 1.39178 -0.28144 -3.20151 0 0 0 -1.30514 0 0 0 0 0 0 0 0 -8.31393

$$$$
6yky_lig_1.pdb
 OpenBabel04162415593D

 49 53  0  0  0  0  0  0  0  0999 V2000
    0.9686   -1.6236   -2.6058 C   0  0  0  1  0  0  0  0  0  0  0  0
    2.9691   -2.3778   -3.4653 C   0  0  0  1  0  0  0  0  0  0  0  0
    1.5272   -1.1894   -1.4966 N   0  0  0  1  0  0  0  0  0  0  0  0
    3.4957   -0.3542    0.9591 C   0  0  0  1  0  0  0  0  0  0  0  0
    3.9157   -0.9709    2.1225 C   0  0  0  1  0  0  0  0  0  0  0  0
    2.5177    1.4152    2.2474 C   0  0  0  1  0  0  0  0  0  0  0  0
    2.7934    0.8392    1.0216 C   0  0  0  1  0  0  0  0  0  0  0  0
    2.9389    0.7968    3.4144 C   0  0  0  1  0  0  0  0  0  0  0  0
    3.6392   -0.3931    3.3518 C   0  0  0  1  0  0  0  0  0  0  0  0
   -1.2128   -0.9051   -1.6693 C   0  0  0  1  0  0  0  0  0  0  0  0
   -2.2850   -1.9268   -1.1993 C   0  0  0  1  0  0  0  0  0  0  0  0
   -3.4915   -1.1230   -0.6710 C   0  0  0  1  0  0  0  0  0  0  0  0
   -4.0220    1.3807   -0.9246 C   0  0  0  1  0  0  0  0  0  0  0  0
    1.6641   -2.2032   -3.5686 N   0  0  0  1  0  0  0  0  0  0  0  0
    3.6152   -1.9344   -2.3057 C   0  0  0  1  0  0  0  0  0  0  0  0
    2.8339   -1.3218   -1.3046 C   0  0  0  1  0  0  0  0  0  0  0  0
    3.6998   -0.9905   -0.2994 N   0  0  0  1  0  0  0  0  0  0  0  0
    4.8956   -1.9490   -1.8752 N   0  0  0  1  0  0  0  0  0  0  0  0
    4.9752   -1.4062   -0.7104 N   0  0  0  1  0  0  0  0  0  0  0  0
    2.6321    1.4101    4.5821 O   0  0  0  1  0  0  0  0  0  0  0  0
   -0.3728   -1.4490   -2.7222 N   0  0  0  1  0  0  0  0  0  0  0  0
    3.1370    0.8155    5.7880 C   0  0  0  1  0  0  0  0  0  0  0  0
   -3.2604    0.2326   -1.2453 N   0  0  0  1  0  0  0  0  0  0  0  0
   -2.1327    0.2156   -2.1913 C   0  0  0  1  0  0  0  0  0  0  0  0
   -3.5884    2.2659    0.0450 C   0  0  0  1  0  0  0  0  0  0  0  0
   -4.3613    3.3769    0.3241 C   0  0  0  1  0  0  0  0  0  0  0  0
   -5.5156    3.6433   -0.2946 N   0  0  0  1  0  0  0  0  0  0  0  0
   -5.9262    2.7744   -1.2293 C   0  0  0  1  0  0  0  0  0  0  0  0
   -5.2132    1.6394   -1.5740 C   0  0  0  1  0  0  0  0  0  0  0  0
    3.5055   -2.8354   -4.2298 H   0  0  0  1  0  0  0  0  0  0  0  0
    4.4392   -1.8683    2.0756 H   0  0  0  1  0  0  0  0  0  0  0  0
    1.9942    2.3126    2.2943 H   0  0  0  1  0  0  0  0  0  0  0  0
    2.4739    1.3011    0.1463 H   0  0  0  1  0  0  0  0  0  0  0  0
    3.9587   -0.8551    4.2270 H   0  0  0  1  0  0  0  0  0  0  0  0
   -0.5989   -0.5712   -0.8591 H   0  0  0  1  0  0  0  0  0  0  0  0
   -2.5876   -2.5424   -2.0205 H   0  0  0  1  0  0  0  0  0  0  0  0
   -1.8863   -2.5419   -0.4198 H   0  0  0  1  0  0  0  0  0  0  0  0
   -4.4139   -1.5377   -1.0205 H   0  0  0  1  0  0  0  0  0  0  0  0
   -3.4961   -1.0929    0.3986 H   0  0  0  1  0  0  0  0  0  0  0  0
   -0.7995   -1.7050   -3.5664 H   0  0  0  1  0  0  0  0  0  0  0  0
    4.2057    0.8680    5.7918 H   0  0  0  1  0  0  0  0  0  0  0  0
    2.8302   -0.2085    5.8360 H   0  0  0  1  0  0  0  0  0  0  0  0
    2.7512    1.3440    6.6346 H   0  0  0  1  0  0  0  0  0  0  0  0
   -1.6224    1.1561   -2.1891 H   0  0  0  1  0  0  0  0  0  0  0  0
   -2.4726   -0.0040   -3.1818 H   0  0  0  1  0  0  0  0  0  0  0  0
   -2.6974    2.0987    0.5546 H   0  0  0  1  0  0  0  0  0  0  0  0
   -4.0276    4.0396    1.0528 H   0  0  0  1  0  0  0  0  0  0  0  0
   -6.8240    2.9624   -1.7192 H   0  0  0  1  0  0  0  0  0  0  0  0
   -5.5677    0.9935   -2.3080 H   0  0  0  1  0  0  0  0  0  0  0  0
  1  3  4  0  0  0  0
  1 14  4  0  0  0  0
  1 21  1  0  0  0  0
  2 14  4  0  0  0  0
  2 15  4  0  0  0  0
  2 30  1  0  0  0  0
  3 16  4  0  0  0  0
  4  5  4  0  0  0  0
  4  7  4  0  0  0  0
  4 17  1  0  0  0  0
  5  9  4  0  0  0  0
  5 31  1  0  0  0  0
  6  7  4  0  0  0  0
  6  8  4  0  0  0  0
  6 32  1  0  0  0  0
  7 33  1  0  0  0  0
  8  9  4  0  0  0  0
  8 20  1  0  0  0  0
  9 34  1  0  0  0  0
 10 11  1  0  0  0  0
 10 21  1  0  0  0  0
 10 24  1  0  0  0  0
 10 35  1  0  0  0  0
 11 12  1  0  0  0  0
 11 36  1  0  0  0  0
 11 37  1  0  0  0  0
 12 23  1  0  0  0  0
 12 38  1  0  0  0  0
 12 39  1  0  0  0  0
 13 23  1  0  0  0  0
 13 25  4  0  0  0  0
 13 29  4  0  0  0  0
 15 16  4  0  0  0  0
 15 18  4  0  0  0  0
 16 17  4  0  0  0  0
 17 19  4  0  0  0  0
 18 19  4  0  0  0  0
 20 22  1  0  0  0  0
 21 40  1  0  0  0  0
 22 41  1  0  0  0  0
 22 42  1  0  0  0  0
 22 43  1  0  0  0  0
 23 24  1  0  0  0  0
 24 44  1  0  0  0  0
 24 45  1  0  0  0  0
 25 26  4  0  0  0  0
 25 46  1  0  0  0  0
 26 27  4  0  0  0  0
 26 47  1  0  0  0  0
 27 28  4  0  0  0  0
 28 29  4  0  0  0  0
 28 48  1  0  0  0  0
 29 49  1  0  0  0  0
M  END
> <ConfClashScore>
0 

> <ConfOneFourInteractionScore>
-0.986948 

> <ConfScore>
0.00209589 

> <ConfScorePBest>
0.00393977 

> <ConfTolerance>
0.458371 

> <HETNAM>
     OWQ A 303  OWQ                                                       

> <pdb_OW>
Q_303 -16.5129 3.80749 7.62812 0.15963 1.39178 -0.28144 -3.20151 0 0 0 -1.30514 0 0 0 0 0 0 0 0 -8.31393

$$$$
6yky_lig_1.pdb
 OpenBabel04162415593D

 49 53  0  0  0  0  0  0  0  0999 V2000
    1.1334   -1.1483   -2.5967 C   0  0  0  1  0  0  0  0  0  0  0  0
    3.1225   -1.8589   -3.5176 C   0  0  0  1  0  0  0  0  0  0  0  0
    1.6408   -1.0679   -1.3855 N   0  0  0  1  0  0  0  0  0  0  0  0
    3.5207   -0.9484    1.2691 C   0  0  0  1  0  0  0  0  0  0  0  0
    4.2635    0.1066    1.7643 C   0  0  0  1  0  0  0  0  0  0  0  0
    2.5068   -1.2476    3.4207 C   0  0  0  1  0  0  0  0  0  0  0  0
    2.6430   -1.6283    2.0991 C   0  0  0  1  0  0  0  0  0  0  0  0
    3.2517   -0.1894    3.9176 C   0  0  0  1  0  0  0  0  0  0  0  0
    4.1268    0.4884    3.0899 C   0  0  0  1  0  0  0  0  0  0  0  0
   -0.9848   -0.2571   -1.6634 C   0  0  0  1  0  0  0  0  0  0  0  0
   -2.0073   -1.2593   -1.1830 C   0  0  0  1  0  0  0  0  0  0  0  0
   -3.0914   -0.4114   -0.5487 C   0  0  0  1  0  0  0  0  0  0  0  0
   -3.9927    1.8393   -1.2636 C   0  0  0  1  0  0  0  0  0  0  0  0
    1.8486   -1.5326   -3.6394 N   0  0  0  1  0  0  0  0  0  0  0  0
    3.7138   -1.7913   -2.2509 C   0  0  0  1  0  0  0  0  0  0  0  0
    2.9132   -1.3763   -1.1670 C   0  0  0  1  0  0  0  0  0  0  0  0
    3.7252   -1.3997   -0.0669 N   0  0  0  1  0  0  0  0  0  0  0  0
    4.9519   -2.0439   -1.7733 N   0  0  0  1  0  0  0  0  0  0  0  0
    4.9883   -1.8247   -0.5051 N   0  0  0  1  0  0  0  0  0  0  0  0
    3.1690    0.2300    5.2026 O   0  0  0  1  0  0  0  0  0  0  0  0
   -0.1757   -0.8150   -2.7330 N   0  0  0  1  0  0  0  0  0  0  0  0
    2.1691   -0.3845    6.0304 C   0  0  0  1  0  0  0  0  0  0  0  0
   -3.0297    0.8404   -1.3253 N   0  0  0  1  0  0  0  0  0  0  0  0
   -1.8309    0.9083   -2.1720 C   0  0  0  1  0  0  0  0  0  0  0  0
   -5.1636    1.5979   -1.9582 C   0  0  0  1  0  0  0  0  0  0  0  0
   -6.1614    2.5536   -1.9312 C   0  0  0  1  0  0  0  0  0  0  0  0
   -6.0547    3.7089   -1.2678 N   0  0  0  1  0  0  0  0  0  0  0  0
   -4.9124    3.9317   -0.6024 C   0  0  0  1  0  0  0  0  0  0  0  0
   -3.8642    3.0284   -0.5728 C   0  0  0  1  0  0  0  0  0  0  0  0
    3.6748   -2.1599   -4.3458 H   0  0  0  1  0  0  0  0  0  0  0  0
    4.9250    0.6141    1.1426 H   0  0  0  1  0  0  0  0  0  0  0  0
    1.8453   -1.7550    4.0424 H   0  0  0  1  0  0  0  0  0  0  0  0
    2.0871   -2.4247    1.7273 H   0  0  0  1  0  0  0  0  0  0  0  0
    4.6827    1.2848    3.4616 H   0  0  0  1  0  0  0  0  0  0  0  0
   -0.3498    0.0545   -0.8605 H   0  0  0  1  0  0  0  0  0  0  0  0
   -1.5771   -1.9249   -0.4640 H   0  0  0  1  0  0  0  0  0  0  0  0
   -2.3988   -1.8242   -2.0031 H   0  0  0  1  0  0  0  0  0  0  0  0
   -2.8841   -0.2328    0.4857 H   0  0  0  1  0  0  0  0  0  0  0  0
   -4.0499   -0.8771   -0.6457 H   0  0  0  1  0  0  0  0  0  0  0  0
   -0.5998   -0.9593   -3.6046 H   0  0  0  1  0  0  0  0  0  0  0  0
    2.2985   -0.0651    7.0434 H   0  0  0  1  0  0  0  0  0  0  0  0
    2.2669   -1.4486    5.9769 H   0  0  0  1  0  0  0  0  0  0  0  0
    1.1970   -0.0974    5.6875 H   0  0  0  1  0  0  0  0  0  0  0  0
   -1.3204    1.8396   -2.0417 H   0  0  0  1  0  0  0  0  0  0  0  0
   -2.0815    0.7797   -3.2042 H   0  0  0  1  0  0  0  0  0  0  0  0
   -5.2910    0.7138   -2.4908 H   0  0  0  1  0  0  0  0  0  0  0  0
   -7.0403    2.3641   -2.4539 H   0  0  0  1  0  0  0  0  0  0  0  0
   -4.8088    4.8268   -0.0832 H   0  0  0  1  0  0  0  0  0  0  0  0
   -2.9964    3.2410   -0.0406 H   0  0  0  1  0  0  0  0  0  0  0  0
  1  3  4  0  0  0  0
  1 14  4  0  0  0  0
  1 21  1  0  0  0  0
  2 14  4  0  0  0  0
  2 15  4  0  0  0  0
  2 30  1  0  0  0  0
  3 16  4  0  0  0  0
  4  5  4  0  0  0  0
  4  7  4  0  0  0  0
  4 17  1  0  0  0  0
  5  9  4  0  0  0  0
  5 31  1  0  0  0  0
  6  7  4  0  0  0  0
  6  8  4  0  0  0  0
  6 32  1  0  0  0  0
  7 33  1  0  0  0  0
  8  9  4  0  0  0  0
  8 20  1  0  0  0  0
  9 34  1  0  0  0  0
 10 11  1  0  0  0  0
 10 21  1  0  0  0  0
 10 24  1  0  0  0  0
 10 35  1  0  0  0  0
 11 12  1  0  0  0  0
 11 36  1  0  0  0  0
 11 37  1  0  0  0  0
 12 23  1  0  0  0  0
 12 38  1  0  0  0  0
 12 39  1  0  0  0  0
 13 23  1  0  0  0  0
 13 25  4  0  0  0  0
 13 29  4  0  0  0  0
 15 16  4  0  0  0  0
 15 18  4  0  0  0  0
 16 17  4  0  0  0  0
 17 19  4  0  0  0  0
 18 19  4  0  0  0  0
 20 22  1  0  0  0  0
 21 40  1  0  0  0  0
 22 41  1  0  0  0  0
 22 42  1  0  0  0  0
 22 43  1  0  0  0  0
 23 24  1  0  0  0  0
 24 44  1  0  0  0  0
 24 45  1  0  0  0  0
 25 26  4  0  0  0  0
 25 46  1  0  0  0  0
 26 27  4  0  0  0  0
 26 47  1  0  0  0  0
 27 28  4  0  0  0  0
 28 29  4  0  0  0  0
 28 48  1  0  0  0  0
 29 49  1  0  0  0  0
M  END
> <ConfClashScore>
0 

> <ConfOneFourInteractionScore>
-0.986948 

> <ConfScore>
0.00267131 

> <ConfScorePBest>
0.00392644 

> <ConfTolerance>
0.465962 

> <HETNAM>
     OWQ A 303  OWQ                                                       

> <pdb_OW>
Q_303 -16.5129 3.80749 7.62812 0.15963 1.39178 -0.28144 -3.20151 0 0 0 -1.30514 0 0 0 0 0 0 0 0 -8.31393

$$$$
6yky_lig_1.pdb
 OpenBabel04162415593D

 49 53  0  0  0  0  0  0  0  0999 V2000
    0.7396   -2.3613   -1.9287 C   0  0  0  1  0  0  0  0  0  0  0  0
    2.3743   -2.5976   -3.5353 C   0  0  0  1  0  0  0  0  0  0  0  0
    1.3967   -1.4120   -1.2980 N   0  0  0  1  0  0  0  0  0  0  0  0
    3.4312    0.9358   -0.3263 C   0  0  0  1  0  0  0  0  0  0  0  0
    3.5322    2.2559   -0.7227 C   0  0  0  1  0  0  0  0  0  0  0  0
    3.4077    1.6247    1.9698 C   0  0  0  1  0  0  0  0  0  0  0  0
    3.3716    0.6194    1.0220 C   0  0  0  1  0  0  0  0  0  0  0  0
    3.5090    2.9488    1.5724 C   0  0  0  1  0  0  0  0  0  0  0  0
    3.5684    3.2641    0.2280 C   0  0  0  1  0  0  0  0  0  0  0  0
   -1.0705   -2.2060   -0.2497 C   0  0  0  1  0  0  0  0  0  0  0  0
   -2.0762   -3.2020    0.3696 C   0  0  0  1  0  0  0  0  0  0  0  0
   -3.2778   -2.4114    0.8224 C   0  0  0  1  0  0  0  0  0  0  0  0
   -3.9823   -0.0147    0.1202 C   0  0  0  1  0  0  0  0  0  0  0  0
    1.2091   -2.9431   -3.0184 N   0  0  0  1  0  0  0  0  0  0  0  0
    3.1160   -1.5923   -2.9046 C   0  0  0  1  0  0  0  0  0  0  0  0
    2.5766   -0.9993   -1.7447 C   0  0  0  1  0  0  0  0  0  0  0  0
    3.4893   -0.0656   -1.3384 N   0  0  0  1  0  0  0  0  0  0  0  0
    4.3084   -1.0060   -3.1484 N   0  0  0  1  0  0  0  0  0  0  0  0
    4.5519   -0.1134   -2.2531 N   0  0  0  1  0  0  0  0  0  0  0  0
    3.5577    4.0091    2.4021 O   0  0  0  1  0  0  0  0  0  0  0  0
   -0.4580   -2.7565   -1.4463 N   0  0  0  1  0  0  0  0  0  0  0  0
    3.2609    3.7165    3.7873 C   0  0  0  1  0  0  0  0  0  0  0  0
   -3.0551   -1.0757    0.0799 N   0  0  0  1  0  0  0  0  0  0  0  0
   -1.9447   -1.0131   -0.5826 C   0  0  0  1  0  0  0  0  0  0  0  0
   -5.1663   -0.2059    0.8081 C   0  0  0  1  0  0  0  0  0  0  0  0
   -6.0809    0.8289    0.8575 C   0  0  0  1  0  0  0  0  0  0  0  0
   -5.8834    2.0128    0.2695 N   0  0  0  1  0  0  0  0  0  0  0  0
   -4.7331    2.1829   -0.3976 C   0  0  0  1  0  0  0  0  0  0  0  0
   -3.7613    1.2023   -0.4945 C   0  0  0  1  0  0  0  0  0  0  0  0
    2.7331   -3.0629   -4.3934 H   0  0  0  1  0  0  0  0  0  0  0  0
    3.5809    2.4929   -1.7342 H   0  0  0  1  0  0  0  0  0  0  0  0
    3.3590    1.3876    2.9813 H   0  0  0  1  0  0  0  0  0  0  0  0
    3.2996   -0.3743    1.3203 H   0  0  0  1  0  0  0  0  0  0  0  0
    3.6404    4.2577   -0.0704 H   0  0  0  1  0  0  0  0  0  0  0  0
   -0.3078   -1.9413    0.4525 H   0  0  0  1  0  0  0  0  0  0  0  0
   -1.6300   -3.6989    1.2056 H   0  0  0  1  0  0  0  0  0  0  0  0
   -2.3699   -3.9261   -0.3613 H   0  0  0  1  0  0  0  0  0  0  0  0
   -4.1914   -2.8798    0.5210 H   0  0  0  1  0  0  0  0  0  0  0  0
   -3.2797   -2.2744    1.8835 H   0  0  0  1  0  0  0  0  0  0  0  0
   -0.9426   -3.4560   -1.9322 H   0  0  0  1  0  0  0  0  0  0  0  0
    3.5010    4.5665    4.3913 H   0  0  0  1  0  0  0  0  0  0  0  0
    3.8420    2.8768    4.1067 H   0  0  0  1  0  0  0  0  0  0  0  0
    2.2201    3.4899    3.8886 H   0  0  0  1  0  0  0  0  0  0  0  0
   -1.4282   -0.1127   -0.3229 H   0  0  0  1  0  0  0  0  0  0  0  0
   -2.1581   -1.0127   -1.6312 H   0  0  0  1  0  0  0  0  0  0  0  0
   -5.3649   -1.1114    1.2795 H   0  0  0  1  0  0  0  0  0  0  0  0
   -6.9681    0.6788    1.3788 H   0  0  0  1  0  0  0  0  0  0  0  0
   -4.5627    3.0961   -0.8651 H   0  0  0  1  0  0  0  0  0  0  0  0
   -2.8813    1.3784   -1.0201 H   0  0  0  1  0  0  0  0  0  0  0  0
  1  3  4  0  0  0  0
  1 14  4  0  0  0  0
  1 21  1  0  0  0  0
  2 14  4  0  0  0  0
  2 15  4  0  0  0  0
  2 30  1  0  0  0  0
  3 16  4  0  0  0  0
  4  5  4  0  0  0  0
  4  7  4  0  0  0  0
  4 17  1  0  0  0  0
  5  9  4  0  0  0  0
  5 31  1  0  0  0  0
  6  7  4  0  0  0  0
  6  8  4  0  0  0  0
  6 32  1  0  0  0  0
  7 33  1  0  0  0  0
  8  9  4  0  0  0  0
  8 20  1  0  0  0  0
  9 34  1  0  0  0  0
 10 11  1  0  0  0  0
 10 21  1  0  0  0  0
 10 24  1  0  0  0  0
 10 35  1  0  0  0  0
 11 12  1  0  0  0  0
 11 36  1  0  0  0  0
 11 37  1  0  0  0  0
 12 23  1  0  0  0  0
 12 38  1  0  0  0  0
 12 39  1  0  0  0  0
 13 23  1  0  0  0  0
 13 25  4  0  0  0  0
 13 29  4  0  0  0  0
 15 16  4  0  0  0  0
 15 18  4  0  0  0  0
 16 17  4  0  0  0  0
 17 19  4  0  0  0  0
 18 19  4  0  0  0  0
 20 22  1  0  0  0  0
 21 40  1  0  0  0  0
 22 41  1  0  0  0  0
 22 42  1  0  0  0  0
 22 43  1  0  0  0  0
 23 24  1  0  0  0  0
 24 44  1  0  0  0  0
 24 45  1  0  0  0  0
 25 26  4  0  0  0  0
 25 46  1  0  0  0  0
 26 27  4  0  0  0  0
 26 47  1  0  0  0  0
 27 28  4  0  0  0  0
 28 29  4  0  0  0  0
 28 48  1  0  0  0  0
 29 49  1  0  0  0  0
M  END
> <ConfClashScore>
0 

> <ConfOneFourInteractionScore>
-0.984874 

> <ConfScore>
0.00359445 

> <ConfScorePBest>
0.00391311 

> <ConfTolerance>
0.463481 

> <HETNAM>
     OWQ A 303  OWQ                                                       

> <pdb_OW>
Q_303 -16.5129 3.80749 7.62812 0.15963 1.39178 -0.28144 -3.20151 0 0 0 -1.30514 0 0 0 0 0 0 0 0 -8.31393

$$$$
6yky_lig_1.pdb
 OpenBabel04162415593D

 49 53  0  0  0  0  0  0  0  0999 V2000
    0.7793    0.3370    0.6390 C   0  0  0  1  0  0  0  0  0  0  0  0
    2.2574    2.1047    0.6567 C   0  0  0  1  0  0  0  0  0  0  0  0
    1.4607   -0.3160   -0.2776 N   0  0  0  1  0  0  0  0  0  0  0  0
    3.5723   -1.3817   -2.5157 C   0  0  0  1  0  0  0  0  0  0  0  0
    4.8151   -1.9653   -2.6738 C   0  0  0  1  0  0  0  0  0  0  0  0
    2.6275   -2.9762   -4.0362 C   0  0  0  1  0  0  0  0  0  0  0  0
    2.4773   -1.8861   -3.1999 C   0  0  0  1  0  0  0  0  0  0  0  0
    3.8739   -3.5618   -4.1949 C   0  0  0  1  0  0  0  0  0  0  0  0
    4.9655   -3.0586   -3.5126 C   0  0  0  1  0  0  0  0  0  0  0  0
   -1.1990    0.3384    2.1835 C   0  0  0  1  0  0  0  0  0  0  0  0
   -2.2693   -0.6839    2.6563 C   0  0  0  1  0  0  0  0  0  0  0  0
   -3.4799    0.1193    3.1766 C   0  0  0  1  0  0  0  0  0  0  0  0
   -3.9944    2.5857    2.8975 C   0  0  0  1  0  0  0  0  0  0  0  0
    1.1610    1.5158    1.0986 N   0  0  0  1  0  0  0  0  0  0  0  0
    3.0209    1.4542   -0.3193 C   0  0  0  1  0  0  0  0  0  0  0  0
    2.5762    0.1983   -0.7807 C   0  0  0  1  0  0  0  0  0  0  0  0
    3.4900   -0.2065   -1.7140 N   0  0  0  1  0  0  0  0  0  0  0  0
    4.1620    1.7526   -0.9780 N   0  0  0  1  0  0  0  0  0  0  0  0
    4.4594    0.8043   -1.7964 N   0  0  0  1  0  0  0  0  0  0  0  0
    4.0894   -4.6275   -5.0021 O   0  0  0  1  0  0  0  0  0  0  0  0
   -0.3467   -0.2139    1.1269 N   0  0  0  1  0  0  0  0  0  0  0  0
    2.9461   -5.1918   -5.6631 C   0  0  0  1  0  0  0  0  0  0  0  0
   -3.2513    1.4722    2.5951 N   0  0  0  1  0  0  0  0  0  0  0  0
   -2.1207    1.4532    1.6524 C   0  0  0  1  0  0  0  0  0  0  0  0
   -3.6857    3.8486    2.4271 C   0  0  0  1  0  0  0  0  0  0  0  0
   -4.4981    4.9079    2.7843 C   0  0  0  1  0  0  0  0  0  0  0  0
   -5.5726    4.7780    3.5683 N   0  0  0  1  0  0  0  0  0  0  0  0
   -5.8577    3.5487    4.0209 C   0  0  0  1  0  0  0  0  0  0  0  0
   -5.1009    2.4325    3.7099 C   0  0  0  1  0  0  0  0  0  0  0  0
    2.5473    3.0325    1.0262 H   0  0  0  1  0  0  0  0  0  0  0  0
    5.6373   -1.5843   -2.1635 H   0  0  0  1  0  0  0  0  0  0  0  0
    1.8052   -3.3572   -4.5465 H   0  0  0  1  0  0  0  0  0  0  0  0
    1.5430   -1.4443   -3.0839 H   0  0  0  1  0  0  0  0  0  0  0  0
    5.8999   -3.5004   -3.6285 H   0  0  0  1  0  0  0  0  0  0  0  0
   -0.5884    0.6788    2.9935 H   0  0  0  1  0  0  0  0  0  0  0  0
   -1.8711   -1.2932    3.4406 H   0  0  0  1  0  0  0  0  0  0  0  0
   -2.5677   -1.3051    1.8379 H   0  0  0  1  0  0  0  0  0  0  0  0
   -4.3999   -0.3003    2.8267 H   0  0  0  1  0  0  0  0  0  0  0  0
   -3.4876    0.1556    4.2459 H   0  0  0  1  0  0  0  0  0  0  0  0
   -0.6246   -1.0692    0.7373 H   0  0  0  1  0  0  0  0  0  0  0  0
    3.2565   -6.0123   -6.2757 H   0  0  0  1  0  0  0  0  0  0  0  0
    2.4836   -4.4455   -6.2747 H   0  0  0  1  0  0  0  0  0  0  0  0
    2.2462   -5.5380   -4.9315 H   0  0  0  1  0  0  0  0  0  0  0  0
   -1.6133    2.3953    1.6506 H   0  0  0  1  0  0  0  0  0  0  0  0
   -2.4571    1.2268    0.6622 H   0  0  0  1  0  0  0  0  0  0  0  0
   -2.8577    3.9985    1.8159 H   0  0  0  1  0  0  0  0  0  0  0  0
   -4.2611    5.8545    2.4247 H   0  0  0  1  0  0  0  0  0  0  0  0
   -6.6878    3.4280    4.6356 H   0  0  0  1  0  0  0  0  0  0  0  0
   -5.3605    1.4962    4.0807 H   0  0  0  1  0  0  0  0  0  0  0  0
  1  3  4  0  0  0  0
  1 14  4  0  0  0  0
  1 21  1  0  0  0  0
  2 14  4  0  0  0  0
  2 15  4  0  0  0  0
  2 30  1  0  0  0  0
  3 16  4  0  0  0  0
  4  5  4  0  0  0  0
  4  7  4  0  0  0  0
  4 17  1  0  0  0  0
  5  9  4  0  0  0  0
  5 31  1  0  0  0  0
  6  7  4  0  0  0  0
  6  8  4  0  0  0  0
  6 32  1  0  0  0  0
  7 33  1  0  0  0  0
  8  9  4  0  0  0  0
  8 20  1  0  0  0  0
  9 34  1  0  0  0  0
 10 11  1  0  0  0  0
 10 21  1  0  0  0  0
 10 24  1  0  0  0  0
 10 35  1  0  0  0  0
 11 12  1  0  0  0  0
 11 36  1  0  0  0  0
 11 37  1  0  0  0  0
 12 23  1  0  0  0  0
 12 38  1  0  0  0  0
 12 39  1  0  0  0  0
 13 23  1  0  0  0  0
 13 25  4  0  0  0  0
 13 29  4  0  0  0  0
 15 16  4  0  0  0  0
 15 18  4  0  0  0  0
 16 17  4  0  0  0  0
 17 19  4  0  0  0  0
 18 19  4  0  0  0  0
 20 22  1  0  0  0  0
 21 40  1  0  0  0  0
 22 41  1  0  0  0  0
 22 42  1  0  0  0  0
 22 43  1  0  0  0  0
 23 24  1  0  0  0  0
 24 44  1  0  0  0  0
 24 45  1  0  0  0  0
 25 26  4  0  0  0  0
 25 46  1  0  0  0  0
 26 27  4  0  0  0  0
 26 47  1  0  0  0  0
 27 28  4  0  0  0  0
 28 29  4  0  0  0  0
 28 48  1  0  0  0  0
 29 49  1  0  0  0  0
M  END
> <ConfClashScore>
0 

> <ConfOneFourInteractionScore>
-0.984874 

> <ConfScore>
0.00459899 

> <ConfScorePBest>
0.00389978 

> <ConfTolerance>
0.378202 

> <HETNAM>
     OWQ A 303  OWQ                                                       

> <pdb_OW>
Q_303 -16.5129 3.80749 7.62812 0.15963 1.39178 -0.28144 -3.20151 0 0 0 -1.30514 0 0 0 0 0 0 0 0 -8.31393

$$$$
6yky_lig_1.pdb
 OpenBabel04162415593D

 49 53  0  0  0  0  0  0  0  0999 V2000
    0.7972    0.1652    0.8636 C   0  0  0  1  0  0  0  0  0  0  0  0
    2.5217    1.6176    1.3389 C   0  0  0  1  0  0  0  0  0  0  0  0
    1.4616   -0.4174   -0.1111 N   0  0  0  1  0  0  0  0  0  0  0  0
    3.6062   -1.4054   -2.3534 C   0  0  0  1  0  0  0  0  0  0  0  0
    3.6499   -1.0472   -3.6875 C   0  0  0  1  0  0  0  0  0  0  0  0
    3.3473   -3.7057   -2.9771 C   0  0  0  1  0  0  0  0  0  0  0  0
    3.4519   -2.7362   -1.9975 C   0  0  0  1  0  0  0  0  0  0  0  0
    3.3912   -3.3466   -4.3153 C   0  0  0  1  0  0  0  0  0  0  0  0
    3.5449   -2.0196   -4.6698 C   0  0  0  1  0  0  0  0  0  0  0  0
   -1.1332    0.2956    2.3869 C   0  0  0  1  0  0  0  0  0  0  0  0
   -2.1477   -0.7259    2.9475 C   0  0  0  1  0  0  0  0  0  0  0  0
   -3.3760    0.0395    3.3707 C   0  0  0  1  0  0  0  0  0  0  0  0
   -4.0818    2.4360    2.6915 C   0  0  0  1  0  0  0  0  0  0  0  0
    1.3067    1.1564    1.5738 N   0  0  0  1  0  0  0  0  0  0  0  0
    3.2736    1.0341    0.3128 C   0  0  0  1  0  0  0  0  0  0  0  0
    2.6903   -0.0205   -0.4190 C   0  0  0  1  0  0  0  0  0  0  0  0
    3.6234   -0.4000   -1.3438 N   0  0  0  1  0  0  0  0  0  0  0  0
    4.5103    1.2460   -0.1880 N   0  0  0  1  0  0  0  0  0  0  0  0
    4.7413    0.4260   -1.1533 N   0  0  0  1  0  0  0  0  0  0  0  0
    3.2735   -4.3798   -5.1827 O   0  0  0  1  0  0  0  0  0  0  0  0
   -0.4691   -0.2217    1.2035 N   0  0  0  1  0  0  0  0  0  0  0  0
    3.4226   -4.0836   -6.5801 C   0  0  0  1  0  0  0  0  0  0  0  0
   -3.1440    1.3932    2.6646 N   0  0  0  1  0  0  0  0  0  0  0  0
   -2.0106    1.4839    2.0457 C   0  0  0  1  0  0  0  0  0  0  0  0
   -5.1615    2.2604    3.5372 C   0  0  0  1  0  0  0  0  0  0  0  0
   -6.1174    3.2556    3.6101 C   0  0  0  1  0  0  0  0  0  0  0  0
   -6.0567    4.3863    2.9001 N   0  0  0  1  0  0  0  0  0  0  0  0
   -5.0069    4.5414    2.0810 C   0  0  0  1  0  0  0  0  0  0  0  0
   -4.0028    3.5981    1.9491 C   0  0  0  1  0  0  0  0  0  0  0  0
    2.9117    2.3982    1.9047 H   0  0  0  1  0  0  0  0  0  0  0  0
    3.7616   -0.0483   -3.9544 H   0  0  0  1  0  0  0  0  0  0  0  0
    3.2356   -4.7046   -2.7102 H   0  0  0  1  0  0  0  0  0  0  0  0
    3.4150   -3.0052   -0.9936 H   0  0  0  1  0  0  0  0  0  0  0  0
    3.5819   -1.7506   -5.6737 H   0  0  0  1  0  0  0  0  0  0  0  0
   -0.4010    0.5554    3.1226 H   0  0  0  1  0  0  0  0  0  0  0  0
   -2.4040   -1.4384    2.1914 H   0  0  0  1  0  0  0  0  0  0  0  0
   -1.7264   -1.2345    3.7893 H   0  0  0  1  0  0  0  0  0  0  0  0
   -3.4195    0.1542    4.4336 H   0  0  0  1  0  0  0  0  0  0  0  0
   -4.2713   -0.4342    3.0257 H   0  0  0  1  0  0  0  0  0  0  0  0
   -0.9409   -0.8646    0.6339 H   0  0  0  1  0  0  0  0  0  0  0  0
    2.5974   -3.4871   -6.9088 H   0  0  0  1  0  0  0  0  0  0  0  0
    3.4466   -4.9967   -7.1374 H   0  0  0  1  0  0  0  0  0  0  0  0
    4.3349   -3.5465   -6.7352 H   0  0  0  1  0  0  0  0  0  0  0  0
   -2.1846    1.5035    0.9902 H   0  0  0  1  0  0  0  0  0  0  0  0
   -1.5165    2.3852    2.3431 H   0  0  0  1  0  0  0  0  0  0  0  0
   -5.2524    1.3956    4.1077 H   0  0  0  1  0  0  0  0  0  0  0  0
   -6.9254    3.1178    4.2502 H   0  0  0  1  0  0  0  0  0  0  0  0
   -4.9439    5.4131    1.5171 H   0  0  0  1  0  0  0  0  0  0  0  0
   -3.2040    3.7611    1.3034 H   0  0  0  1  0  0  0  0  0  0  0  0
  1  3  4  0  0  0  0
  1 14  4  0  0  0  0
  1 21  1  0  0  0  0
  2 14  4  0  0  0  0
  2 15  4  0  0  0  0
  2 30  1  0  0  0  0
  3 16  4  0  0  0  0
  4  5  4  0  0  0  0
  4  7  4  0  0  0  0
  4 17  1  0  0  0  0
  5  9  4  0  0  0  0
  5 31  1  0  0  0  0
  6  7  4  0  0  0  0
  6  8  4  0  0  0  0
  6 32  1  0  0  0  0
  7 33  1  0  0  0  0
  8  9  4  0  0  0  0
  8 20  1  0  0  0  0
  9 34  1  0  0  0  0
 10 11  1  0  0  0  0
 10 21  1  0  0  0  0
 10 24  1  0  0  0  0
 10 35  1  0  0  0  0
 11 12  1  0  0  0  0
 11 36  1  0  0  0  0
 11 37  1  0  0  0  0
 12 23  1  0  0  0  0
 12 38  1  0  0  0  0
 12 39  1  0  0  0  0
 13 23  1  0  0  0  0
 13 25  4  0  0  0  0
 13 29  4  0  0  0  0
 15 16  4  0  0  0  0
 15 18  4  0  0  0  0
 16 17  4  0  0  0  0
 17 19  4  0  0  0  0
 18 19  4  0  0  0  0
 20 22  1  0  0  0  0
 21 40  1  0  0  0  0
 22 41  1  0  0  0  0
 22 42  1  0  0  0  0
 22 43  1  0  0  0  0
 23 24  1  0  0  0  0
 24 44  1  0  0  0  0
 24 45  1  0  0  0  0
 25 26  4  0  0  0  0
 25 46  1  0  0  0  0
 26 27  4  0  0  0  0
 26 47  1  0  0  0  0
 27 28  4  0  0  0  0
 28 29  4  0  0  0  0
 28 48  1  0  0  0  0
 29 49  1  0  0  0  0
M  END
> <ConfClashScore>
0 

> <ConfOneFourInteractionScore>
-0.984874 

> <ConfScore>
0.00560399 

> <ConfScorePBest>
0.00388645 

> <ConfTolerance>
0.449506 

> <HETNAM>
     OWQ A 303  OWQ                                                       

> <pdb_OW>
Q_303 -16.5129 3.80749 7.62812 0.15963 1.39178 -0.28144 -3.20151 0 0 0 -1.30514 0 0 0 0 0 0 0 0 -8.31393

$$$$
6yky_lig_1.pdb
 OpenBabel04162415593D

 49 53  0  0  0  0  0  0  0  0999 V2000
    0.8557    0.3323    0.6931 C   0  0  0  1  0  0  0  0  0  0  0  0
    2.5324    1.8646    1.0805 C   0  0  0  1  0  0  0  0  0  0  0  0
    1.5211   -0.2572   -0.2768 N   0  0  0  1  0  0  0  0  0  0  0  0
    3.6535   -1.2383   -2.5337 C   0  0  0  1  0  0  0  0  0  0  0  0
    3.6438   -0.9241   -3.8796 C   0  0  0  1  0  0  0  0  0  0  0  0
    3.4815   -3.5676   -3.0739 C   0  0  0  1  0  0  0  0  0  0  0  0
    3.5695   -2.5617   -2.1301 C   0  0  0  1  0  0  0  0  0  0  0  0
    3.4717   -3.2527   -4.4238 C   0  0  0  1  0  0  0  0  0  0  0  0
    3.5554   -1.9331   -4.8260 C   0  0  0  1  0  0  0  0  0  0  0  0
   -1.2359    0.3560    2.0261 C   0  0  0  1  0  0  0  0  0  0  0  0
   -2.3025   -0.6816    2.4733 C   0  0  0  1  0  0  0  0  0  0  0  0
   -3.5290    0.1041    2.9826 C   0  0  0  1  0  0  0  0  0  0  0  0
   -4.0723    2.5781    2.7214 C   0  0  0  1  0  0  0  0  0  0  0  0
    1.3416    1.3657    1.3583 N   0  0  0  1  0  0  0  0  0  0  0  0
    3.2840    1.2757    0.0574 C   0  0  0  1  0  0  0  0  0  0  0  0
    2.7265    0.1755   -0.6257 C   0  0  0  1  0  0  0  0  0  0  0  0
    3.6534   -0.1993   -1.5586 N   0  0  0  1  0  0  0  0  0  0  0  0
    4.5004    1.5175   -0.4783 N   0  0  0  1  0  0  0  0  0  0  0  0
    4.7423    0.6746   -1.4210 N   0  0  0  1  0  0  0  0  0  0  0  0
    3.3849   -4.1438   -5.4304 O   0  0  0  1  0  0  0  0  0  0  0  0
   -0.3698   -0.1729    0.9868 N   0  0  0  1  0  0  0  0  0  0  0  0
    3.1114   -5.5043   -5.0218 C   0  0  0  1  0  0  0  0  0  0  0  0
   -3.3058    1.4647    2.4170 N   0  0  0  1  0  0  0  0  0  0  0  0
   -2.1612    1.4662    1.4914 C   0  0  0  1  0  0  0  0  0  0  0  0
   -3.8594    3.2817    3.8924 C   0  0  0  1  0  0  0  0  0  0  0  0
   -4.6440    4.3886    4.1547 C   0  0  0  1  0  0  0  0  0  0  0  0
   -5.6070    4.8180    3.3335 N   0  0  0  1  0  0  0  0  0  0  0  0
   -5.8055    4.1239    2.2039 C   0  0  0  1  0  0  0  0  0  0  0  0
   -5.0640    3.0069    1.8608 C   0  0  0  1  0  0  0  0  0  0  0  0
    2.9039    2.6782    1.6112 H   0  0  0  1  0  0  0  0  0  0  0  0
    3.7027    0.0691   -4.1822 H   0  0  0  1  0  0  0  0  0  0  0  0
    3.4225   -4.5609   -2.7712 H   0  0  0  1  0  0  0  0  0  0  0  0
    3.5728   -2.7978   -1.1172 H   0  0  0  1  0  0  0  0  0  0  0  0
    3.5522   -1.6970   -5.8388 H   0  0  0  1  0  0  0  0  0  0  0  0
   -0.6411    0.6951    2.8483 H   0  0  0  1  0  0  0  0  0  0  0  0
   -2.5820   -1.2983    1.6448 H   0  0  0  1  0  0  0  0  0  0  0  0
   -1.9097   -1.2941    3.2579 H   0  0  0  1  0  0  0  0  0  0  0  0
   -4.4393   -0.3216    2.6151 H   0  0  0  1  0  0  0  0  0  0  0  0
   -3.5532    0.1303    4.0520 H   0  0  0  1  0  0  0  0  0  0  0  0
   -0.6890   -0.9398    0.4667 H   0  0  0  1  0  0  0  0  0  0  0  0
    3.5282   -5.6763   -4.0515 H   0  0  0  1  0  0  0  0  0  0  0  0
    3.5504   -6.1823   -5.7236 H   0  0  0  1  0  0  0  0  0  0  0  0
    2.0534   -5.6605   -4.9882 H   0  0  0  1  0  0  0  0  0  0  0  0
   -2.4803    1.2455    0.4942 H   0  0  0  1  0  0  0  0  0  0  0  0
   -1.6637    2.4134    1.5059 H   0  0  0  1  0  0  0  0  0  0  0  0
   -3.1226    2.9835    4.5631 H   0  0  0  1  0  0  0  0  0  0  0  0
   -4.4765    4.9144    5.0363 H   0  0  0  1  0  0  0  0  0  0  0  0
   -6.5531    4.4403    1.5538 H   0  0  0  1  0  0  0  0  0  0  0  0
   -5.2500    2.4999    0.9720 H   0  0  0  1  0  0  0  0  0  0  0  0
  1  3  4  0  0  0  0
  1 14  4  0  0  0  0
  1 21  1  0  0  0  0
  2 14  4  0  0  0  0
  2 15  4  0  0  0  0
  2 30  1  0  0  0  0
  3 16  4  0  0  0  0
  4  5  4  0  0  0  0
  4  7  4  0  0  0  0
  4 17  1  0  0  0  0
  5  9  4  0  0  0  0
  5 31  1  0  0  0  0
  6  7  4  0  0  0  0
  6  8  4  0  0  0  0
  6 32  1  0  0  0  0
  7 33  1  0  0  0  0
  8  9  4  0  0  0  0
  8 20  1  0  0  0  0
  9 34  1  0  0  0  0
 10 11  1  0  0  0  0
 10 21  1  0  0  0  0
 10 24  1  0  0  0  0
 10 35  1  0  0  0  0
 11 12  1  0  0  0  0
 11 36  1  0  0  0  0
 11 37  1  0  0  0  0
 12 23  1  0  0  0  0
 12 38  1  0  0  0  0
 12 39  1  0  0  0  0
 13 23  1  0  0  0  0
 13 25  4  0  0  0  0
 13 29  4  0  0  0  0
 15 16  4  0  0  0  0
 15 18  4  0  0  0  0
 16 17  4  0  0  0  0
 17 19  4  0  0  0  0
 18 19  4  0  0  0  0
 20 22  1  0  0  0  0
 21 40  1  0  0  0  0
 22 41  1  0  0  0  0
 22 42  1  0  0  0  0
 22 43  1  0  0  0  0
 23 24  1  0  0  0  0
 24 44  1  0  0  0  0
 24 45  1  0  0  0  0
 25 26  4  0  0  0  0
 25 46  1  0  0  0  0
 26 27  4  0  0  0  0
 26 47  1  0  0  0  0
 27 28  4  0  0  0  0
 28 29  4  0  0  0  0
 28 48  1  0  0  0  0
 29 49  1  0  0  0  0
M  END
> <ConfClashScore>
0 

> <ConfOneFourInteractionScore>
-0.986948 

> <ConfScore>
0.00663311 

> <ConfScorePBest>
0.00387312 

> <ConfTolerance>
0.477927 

> <HETNAM>
     OWQ A 303  OWQ                                                       

> <pdb_OW>
Q_303 -16.5129 3.80749 7.62812 0.15963 1.39178 -0.28144 -3.20151 0 0 0 -1.30514 0 0 0 0 0 0 0 0 -8.31393

$$$$
6yky_lig_1.pdb
 OpenBabel04162415593D

 49 53  0  0  0  0  0  0  0  0999 V2000
   -0.4141   -0.9692   -2.1431 C   0  0  0  1  0  0  0  0  0  0  0  0
    0.1834   -2.5705   -3.6886 C   0  0  0  1  0  0  0  0  0  0  0  0
    0.6685   -1.1607   -1.4205 N   0  0  0  1  0  0  0  0  0  0  0  0
    3.4579   -2.0754   -0.1054 C   0  0  0  1  0  0  0  0  0  0  0  0
    4.4641   -1.1326   -0.1991 C   0  0  0  1  0  0  0  0  0  0  0  0
    3.9175   -2.3368    2.2329 C   0  0  0  1  0  0  0  0  0  0  0  0
    3.1859   -2.6804    1.1118 C   0  0  0  1  0  0  0  0  0  0  0  0
    4.9267   -1.3912    2.1391 C   0  0  0  1  0  0  0  0  0  0  0  0
    5.1978   -0.7881    0.9254 C   0  0  0  1  0  0  0  0  0  0  0  0
   -1.0908    0.7476   -0.4857 C   0  0  0  1  0  0  0  0  0  0  0  0
   -1.8084    0.1011    0.6952 C   0  0  0  1  0  0  0  0  0  0  0  0
   -3.2599    0.5433    0.5170 C   0  0  0  1  0  0  0  0  0  0  0  0
   -4.1856    2.7976   -0.2434 C   0  0  0  1  0  0  0  0  0  0  0  0
   -0.6570   -1.6518   -3.2483 N   0  0  0  1  0  0  0  0  0  0  0  0
    1.3519   -2.8153   -2.9583 C   0  0  0  1  0  0  0  0  0  0  0  0
    1.5703   -2.0638   -1.7854 C   0  0  0  1  0  0  0  0  0  0  0  0
    2.7634   -2.4964   -1.2762 N   0  0  0  1  0  0  0  0  0  0  0  0
    2.3997   -3.6547   -3.1086 N   0  0  0  1  0  0  0  0  0  0  0  0
    3.2371   -3.4915   -2.1444 N   0  0  0  1  0  0  0  0  0  0  0  0
    5.7087   -0.9801    3.1611 O   0  0  0  1  0  0  0  0  0  0  0  0
   -1.2849   -0.0268   -1.6993 N   0  0  0  1  0  0  0  0  0  0  0  0
    5.4921   -1.5142    4.4764 C   0  0  0  1  0  0  0  0  0  0  0  0
   -3.1256    1.8698   -0.1157 N   0  0  0  1  0  0  0  0  0  0  0  0
   -1.7568    2.1112   -0.5974 C   0  0  0  1  0  0  0  0  0  0  0  0
   -3.9558    4.0656   -0.7446 C   0  0  0  1  0  0  0  0  0  0  0  0
   -5.0207    4.9392   -0.8562 C   0  0  0  1  0  0  0  0  0  0  0  0
   -6.2700    4.6243   -0.5006 N   0  0  0  1  0  0  0  0  0  0  0  0
   -6.4775    3.3931   -0.0123 C   0  0  0  1  0  0  0  0  0  0  0  0
   -5.4704    2.4547    0.1300 C   0  0  0  1  0  0  0  0  0  0  0  0
   -0.0189   -3.1010   -4.5598 H   0  0  0  1  0  0  0  0  0  0  0  0
    4.6708   -0.6816   -1.1132 H   0  0  0  1  0  0  0  0  0  0  0  0
    3.7108   -2.7878    3.1470 H   0  0  0  1  0  0  0  0  0  0  0  0
    2.4314   -3.3928    1.1813 H   0  0  0  1  0  0  0  0  0  0  0  0
    5.9523   -0.0757    0.8558 H   0  0  0  1  0  0  0  0  0  0  0  0
   -0.0437    0.8476   -0.2895 H   0  0  0  1  0  0  0  0  0  0  0  0
   -1.4122    0.4555    1.6238 H   0  0  0  1  0  0  0  0  0  0  0  0
   -1.7261   -0.9650    0.6554 H   0  0  0  1  0  0  0  0  0  0  0  0
   -3.7587    0.6159    1.4608 H   0  0  0  1  0  0  0  0  0  0  0  0
   -3.7932   -0.1334   -0.1176 H   0  0  0  1  0  0  0  0  0  0  0  0
   -2.0921    0.1410   -2.2290 H   0  0  0  1  0  0  0  0  0  0  0  0
    5.8607   -2.5178    4.5196 H   0  0  0  1  0  0  0  0  0  0  0  0
    4.4446   -1.5096    4.6949 H   0  0  0  1  0  0  0  0  0  0  0  0
    6.0095   -0.9133    5.1948 H   0  0  0  1  0  0  0  0  0  0  0  0
   -1.2574    2.8312    0.0167 H   0  0  0  1  0  0  0  0  0  0  0  0
   -1.7636    2.4506   -1.6122 H   0  0  0  1  0  0  0  0  0  0  0  0
   -2.9996    4.3564   -1.0321 H   0  0  0  1  0  0  0  0  0  0  0  0
   -4.8408    5.8904   -1.2363 H   0  0  0  1  0  0  0  0  0  0  0  0
   -7.4424    3.1305    0.2735 H   0  0  0  1  0  0  0  0  0  0  0  0
   -5.6770    1.5092    0.5108 H   0  0  0  1  0  0  0  0  0  0  0  0
  1  3  4  0  0  0  0
  1 14  4  0  0  0  0
  1 21  1  0  0  0  0
  2 14  4  0  0  0  0
  2 15  4  0  0  0  0
  2 30  1  0  0  0  0
  3 16  4  0  0  0  0
  4  5  4  0  0  0  0
  4  7  4  0  0  0  0
  4 17  1  0  0  0  0
  5  9  4  0  0  0  0
  5 31  1  0  0  0  0
  6  7  4  0  0  0  0
  6  8  4  0  0  0  0
  6 32  1  0  0  0  0
  7 33  1  0  0  0  0
  8  9  4  0  0  0  0
  8 20  1  0  0  0  0
  9 34  1  0  0  0  0
 10 11  1  0  0  0  0
 10 21  1  0  0  0  0
 10 24  1  0  0  0  0
 10 35  1  0  0  0  0
 11 12  1  0  0  0  0
 11 36  1  0  0  0  0
 11 37  1  0  0  0  0
 12 23  1  0  0  0  0
 12 38  1  0  0  0  0
 12 39  1  0  0  0  0
 13 23  1  0  0  0  0
 13 25  4  0  0  0  0
 13 29  4  0  0  0  0
 15 16  4  0  0  0  0
 15 18  4  0  0  0  0
 16 17  4  0  0  0  0
 17 19  4  0  0  0  0
 18 19  4  0  0  0  0
 20 22  1  0  0  0  0
 21 40  1  0  0  0  0
 22 41  1  0  0  0  0
 22 42  1  0  0  0  0
 22 43  1  0  0  0  0
 23 24  1  0  0  0  0
 24 44  1  0  0  0  0
 24 45  1  0  0  0  0
 25 26  4  0  0  0  0
 25 46  1  0  0  0  0
 26 27  4  0  0  0  0
 26 47  1  0  0  0  0
 27 28  4  0  0  0  0
 28 29  4  0  0  0  0
 28 48  1  0  0  0  0
 29 49  1  0  0  0  0
M  END
> <ConfClashScore>
0 

> <ConfOneFourInteractionScore>
-0.991755 

> <ConfScore>
0.00682216 

> <ConfScorePBest>
0.0038598 

> <ConfTolerance>
0.638654 

> <HETNAM>
     OWQ A 303  OWQ                                                       

> <pdb_OW>
Q_303 -16.5129 3.80749 7.62812 0.15963 1.39178 -0.28144 -3.20151 0 0 0 -1.30514 0 0 0 0 0 0 0 0 -8.31393

$$$$
6yky_lig_1.pdb
 OpenBabel04162415593D

 49 53  0  0  0  0  0  0  0  0999 V2000
    1.0950   -0.8090   -2.6120 C   0  0  0  1  0  0  0  0  0  0  0  0
    2.5271   -2.3591   -3.5370 C   0  0  0  1  0  0  0  0  0  0  0  0
    1.4206   -1.1377   -1.3804 N   0  0  0  1  0  0  0  0  0  0  0  0
    2.6478   -2.4088    1.3549 C   0  0  0  1  0  0  0  0  0  0  0  0
    1.4390   -2.7345    1.9404 C   0  0  0  1  0  0  0  0  0  0  0  0
    3.3871   -1.4354    3.4172 C   0  0  0  1  0  0  0  0  0  0  0  0
    3.6223   -1.7559    2.0935 C   0  0  0  1  0  0  0  0  0  0  0  0
    2.1747   -1.7621    4.0047 C   0  0  0  1  0  0  0  0  0  0  0  0
    1.2032   -2.4131    3.2680 C   0  0  0  1  0  0  0  0  0  0  0  0
   -0.5253    0.7329   -1.6338 C   0  0  0  1  0  0  0  0  0  0  0  0
   -1.5289   -0.2882   -1.0535 C   0  0  0  1  0  0  0  0  0  0  0  0
   -2.7703    0.4703   -0.6567 C   0  0  0  1  0  0  0  0  0  0  0  0
   -3.5212    2.8566   -1.4000 C   0  0  0  1  0  0  0  0  0  0  0  0
    1.6294   -1.3992   -3.6667 N   0  0  0  1  0  0  0  0  0  0  0  0
    2.9106   -2.7488   -2.2487 C   0  0  0  1  0  0  0  0  0  0  0  0
    2.3146   -2.0920   -1.1525 C   0  0  0  1  0  0  0  0  0  0  0  0
    2.8585   -2.6571   -0.0323 N   0  0  0  1  0  0  0  0  0  0  0  0
    3.7730   -3.6656   -1.7581 N   0  0  0  1  0  0  0  0  0  0  0  0
    3.7638   -3.6350   -0.4710 N   0  0  0  1  0  0  0  0  0  0  0  0
    2.0585   -1.3982    5.2870 O   0  0  0  1  0  0  0  0  0  0  0  0
    0.1597    0.1902   -2.8115 N   0  0  0  1  0  0  0  0  0  0  0  0
    3.2012   -0.8808    6.0482 C   0  0  0  1  0  0  0  0  0  0  0  0
   -2.5527    1.8090   -1.3953 N   0  0  0  1  0  0  0  0  0  0  0  0
   -1.4169    1.9000   -2.0098 C   0  0  0  1  0  0  0  0  0  0  0  0
   -3.4759    3.8627   -0.4528 C   0  0  0  1  0  0  0  0  0  0  0  0
   -4.4313    4.8602   -0.4963 C   0  0  0  1  0  0  0  0  0  0  0  0
   -5.4064    4.9044   -1.4093 N   0  0  0  1  0  0  0  0  0  0  0  0
   -5.4410    3.9203   -2.3190 C   0  0  0  1  0  0  0  0  0  0  0  0
   -4.5225    2.8855   -2.3510 C   0  0  0  1  0  0  0  0  0  0  0  0
    2.9405   -2.8160   -4.3748 H   0  0  0  1  0  0  0  0  0  0  0  0
    0.7064   -3.2208    1.3850 H   0  0  0  1  0  0  0  0  0  0  0  0
    4.1197   -0.9492    3.9726 H   0  0  0  1  0  0  0  0  0  0  0  0
    4.5304   -1.5072    1.6517 H   0  0  0  1  0  0  0  0  0  0  0  0
    0.2951   -2.6618    3.7098 H   0  0  0  1  0  0  0  0  0  0  0  0
    0.1988    1.0213   -0.9007 H   0  0  0  1  0  0  0  0  0  0  0  0
   -1.1057   -0.7696   -0.1968 H   0  0  0  1  0  0  0  0  0  0  0  0
   -1.7708   -1.0229   -1.7929 H   0  0  0  1  0  0  0  0  0  0  0  0
   -2.8217    0.6111    0.4028 H   0  0  0  1  0  0  0  0  0  0  0  0
   -3.6568   -0.0243   -0.9948 H   0  0  0  1  0  0  0  0  0  0  0  0
   -0.0389    0.5247   -3.7110 H   0  0  0  1  0  0  0  0  0  0  0  0
    3.6702   -0.0928    5.4970 H   0  0  0  1  0  0  0  0  0  0  0  0
    3.9060   -1.6689    6.2129 H   0  0  0  1  0  0  0  0  0  0  0  0
    2.8608   -0.5035    6.9898 H   0  0  0  1  0  0  0  0  0  0  0  0
   -1.5848    1.8907   -3.0665 H   0  0  0  1  0  0  0  0  0  0  0  0
   -0.9371    2.8153   -1.7324 H   0  0  0  1  0  0  0  0  0  0  0  0
   -2.7366    3.8688    0.2787 H   0  0  0  1  0  0  0  0  0  0  0  0
   -4.3894    5.6151    0.2178 H   0  0  0  1  0  0  0  0  0  0  0  0
   -6.1946    3.9352   -3.0354 H   0  0  0  1  0  0  0  0  0  0  0  0
   -4.5851    2.1437   -3.0773 H   0  0  0  1  0  0  0  0  0  0  0  0
  1  3  4  0  0  0  0
  1 14  4  0  0  0  0
  1 21  1  0  0  0  0
  2 14  4  0  0  0  0
  2 15  4  0  0  0  0
  2 30  1  0  0  0  0
  3 16  4  0  0  0  0
  4  5  4  0  0  0  0
  4  7  4  0  0  0  0
  4 17  1  0  0  0  0
  5  9  4  0  0  0  0
  5 31  1  0  0  0  0
  6  7  4  0  0  0  0
  6  8  4  0  0  0  0
  6 32  1  0  0  0  0
  7 33  1  0  0  0  0
  8  9  4  0  0  0  0
  8 20  1  0  0  0  0
  9 34  1  0  0  0  0
 10 11  1  0  0  0  0
 10 21  1  0  0  0  0
 10 24  1  0  0  0  0
 10 35  1  0  0  0  0
 11 12  1  0  0  0  0
 11 36  1  0  0  0  0
 11 37  1  0  0  0  0
 12 23  1  0  0  0  0
 12 38  1  0  0  0  0
 12 39  1  0  0  0  0
 13 23  1  0  0  0  0
 13 25  4  0  0  0  0
 13 29  4  0  0  0  0
 15 16  4  0  0  0  0
 15 18  4  0  0  0  0
 16 17  4  0  0  0  0
 17 19  4  0  0  0  0
 18 19  4  0  0  0  0
 20 22  1  0  0  0  0
 21 40  1  0  0  0  0
 22 41  1  0  0  0  0
 22 42  1  0  0  0  0
 22 43  1  0  0  0  0
 23 24  1  0  0  0  0
 24 44  1  0  0  0  0
 24 45  1  0  0  0  0
 25 26  4  0  0  0  0
 25 46  1  0  0  0  0
 26 27  4  0  0  0  0
 26 47  1  0  0  0  0
 27 28  4  0  0  0  0
 28 29  4  0  0  0  0
 28 48  1  0  0  0  0
 29 49  1  0  0  0  0
M  END
> <ConfClashScore>
0 

> <ConfOneFourInteractionScore>
-0.984874 

> <ConfScore>
0.00693003 

> <ConfScorePBest>
0.00384647 

> <ConfTolerance>
0.433494 

> <HETNAM>
     OWQ A 303  OWQ                                                       

> <pdb_OW>
Q_303 -16.5129 3.80749 7.62812 0.15963 1.39178 -0.28144 -3.20151 0 0 0 -1.30514 0 0 0 0 0 0 0 0 -8.31393

$$$$
6yky_lig_1.pdb
 OpenBabel04162415593D

 49 53  0  0  0  0  0  0  0  0999 V2000
    1.6189   -2.6606   -1.3932 C   0  0  0  1  0  0  0  0  0  0  0  0
    2.8932   -2.5412   -3.3093 C   0  0  0  1  0  0  0  0  0  0  0  0
    1.6380   -1.3573   -1.2141 N   0  0  0  1  0  0  0  0  0  0  0  0
    2.1661    1.8344   -1.2681 C   0  0  0  1  0  0  0  0  0  0  0  0
    3.1732    2.5372   -0.6341 C   0  0  0  1  0  0  0  0  0  0  0  0
    0.5241    3.0598   -0.0233 C   0  0  0  1  0  0  0  0  0  0  0  0
    0.8397    2.0941   -0.9604 C   0  0  0  1  0  0  0  0  0  0  0  0
    1.5341    3.7648    0.6128 C   0  0  0  1  0  0  0  0  0  0  0  0
    2.8566    3.5057    0.3058 C   0  0  0  1  0  0  0  0  0  0  0  0
    0.2920   -2.9108    0.6743 C   0  0  0  1  0  0  0  0  0  0  0  0
   -0.7225   -3.9323    1.2348 C   0  0  0  1  0  0  0  0  0  0  0  0
   -1.9508   -3.1669    1.6580 C   0  0  0  1  0  0  0  0  0  0  0  0
   -2.6568   -0.7703    0.9788 C   0  0  0  1  0  0  0  0  0  0  0  0
    2.2277   -3.2440   -2.4108 N   0  0  0  1  0  0  0  0  0  0  0  0
    2.9460   -1.1499   -3.1675 C   0  0  0  1  0  0  0  0  0  0  0  0
    2.2823   -0.5701   -2.0668 C   0  0  0  1  0  0  0  0  0  0  0  0
    2.4906    0.7777   -2.1671 N   0  0  0  1  0  0  0  0  0  0  0  0
    3.5173   -0.1507   -3.8747 N   0  0  0  1  0  0  0  0  0  0  0  0
    3.2690    0.9825   -3.3162 N   0  0  0  1  0  0  0  0  0  0  0  0
    1.3480    4.7264    1.5479 O   0  0  0  1  0  0  0  0  0  0  0  0
    0.9563   -3.4282   -0.5094 N   0  0  0  1  0  0  0  0  0  0  0  0
   -0.0039    4.9989    1.9489 C   0  0  0  1  0  0  0  0  0  0  0  0
   -1.7188   -1.8132    0.9519 N   0  0  0  1  0  0  0  0  0  0  0  0
   -0.5854   -1.7225    0.3330 C   0  0  0  1  0  0  0  0  0  0  0  0
   -2.7665    0.1780    1.9789 C   0  0  0  1  0  0  0  0  0  0  0  0
   -3.7403    1.1521    1.8674 C   0  0  0  1  0  0  0  0  0  0  0  0
   -4.5908    1.2266    0.8390 N   0  0  0  1  0  0  0  0  0  0  0  0
   -4.4759    0.2982   -0.1213 C   0  0  0  1  0  0  0  0  0  0  0  0
   -3.5278   -0.7095   -0.0915 C   0  0  0  1  0  0  0  0  0  0  0  0
    3.3682   -3.0119   -4.1058 H   0  0  0  1  0  0  0  0  0  0  0  0
    4.1684    2.3395   -0.8621 H   0  0  0  1  0  0  0  0  0  0  0  0
   -0.4711    3.2575    0.2047 H   0  0  0  1  0  0  0  0  0  0  0  0
    0.0821    1.5624   -1.4346 H   0  0  0  1  0  0  0  0  0  0  0  0
    3.6142    4.0374    0.7800 H   0  0  0  1  0  0  0  0  0  0  0  0
    1.0242   -2.6510    1.4100 H   0  0  0  1  0  0  0  0  0  0  0  0
   -0.9788   -4.6448    0.4787 H   0  0  0  1  0  0  0  0  0  0  0  0
   -0.3012   -4.4409    2.0766 H   0  0  0  1  0  0  0  0  0  0  0  0
   -1.9943   -3.0522    2.7209 H   0  0  0  1  0  0  0  0  0  0  0  0
   -2.8461   -3.6406    1.3130 H   0  0  0  1  0  0  0  0  0  0  0  0
    0.9195   -4.3936   -0.6738 H   0  0  0  1  0  0  0  0  0  0  0  0
   -0.4717    4.0910    2.2680 H   0  0  0  1  0  0  0  0  0  0  0  0
   -0.5456    5.4073    1.1215 H   0  0  0  1  0  0  0  0  0  0  0  0
   -0.0015    5.7014    2.7560 H   0  0  0  1  0  0  0  0  0  0  0  0
   -0.7594   -1.7029   -0.7225 H   0  0  0  1  0  0  0  0  0  0  0  0
   -0.0913   -0.8212    0.6304 H   0  0  0  1  0  0  0  0  0  0  0  0
   -2.1281    0.1587    2.7997 H   0  0  0  1  0  0  0  0  0  0  0  0
   -3.8154    1.8635    2.6222 H   0  0  0  1  0  0  0  0  0  0  0  0
   -5.1312    0.3372   -0.9279 H   0  0  0  1  0  0  0  0  0  0  0  0
   -3.4722   -1.4077   -0.8603 H   0  0  0  1  0  0  0  0  0  0  0  0
  1  3  4  0  0  0  0
  1 14  4  0  0  0  0
  1 21  1  0  0  0  0
  2 14  4  0  0  0  0
  2 15  4  0  0  0  0
  2 30  1  0  0  0  0
  3 16  4  0  0  0  0
  4  5  4  0  0  0  0
  4  7  4  0  0  0  0
  4 17  1  0  0  0  0
  5  9  4  0  0  0  0
  5 31  1  0  0  0  0
  6  7  4  0  0  0  0
  6  8  4  0  0  0  0
  6 32  1  0  0  0  0
  7 33  1  0  0  0  0
  8  9  4  0  0  0  0
  8 20  1  0  0  0  0
  9 34  1  0  0  0  0
 10 11  1  0  0  0  0
 10 21  1  0  0  0  0
 10 24  1  0  0  0  0
 10 35  1  0  0  0  0
 11 12  1  0  0  0  0
 11 36  1  0  0  0  0
 11 37  1  0  0  0  0
 12 23  1  0  0  0  0
 12 38  1  0  0  0  0
 12 39  1  0  0  0  0
 13 23  1  0  0  0  0
 13 25  4  0  0  0  0
 13 29  4  0  0  0  0
 15 16  4  0  0  0  0
 15 18  4  0  0  0  0
 16 17  4  0  0  0  0
 17 19  4  0  0  0  0
 18 19  4  0  0  0  0
 20 22  1  0  0  0  0
 21 40  1  0  0  0  0
 22 41  1  0  0  0  0
 22 42  1  0  0  0  0
 22 43  1  0  0  0  0
 23 24  1  0  0  0  0
 24 44  1  0  0  0  0
 24 45  1  0  0  0  0
 25 26  4  0  0  0  0
 25 46  1  0  0  0  0
 26 27  4  0  0  0  0
 26 47  1  0  0  0  0
 27 28  4  0  0  0  0
 28 29  4  0  0  0  0
 28 48  1  0  0  0  0
 29 49  1  0  0  0  0
M  END
> <ConfClashScore>
0 

> <ConfOneFourInteractionScore>
-0.987833 

> <ConfScore>
0.00811059 

> <ConfScorePBest>
0.00383314 

> <ConfTolerance>
0.520997 

> <HETNAM>
     OWQ A 303  OWQ                                                       

> <pdb_OW>
Q_303 -16.5129 3.80749 7.62812 0.15963 1.39178 -0.28144 -3.20151 0 0 0 -1.30514 0 0 0 0 0 0 0 0 -8.31393

$$$$
6yky_lig_1.pdb
 OpenBabel04162415593D

 49 53  0  0  0  0  0  0  0  0999 V2000
    1.5805   -2.6761   -1.8561 C   0  0  0  1  0  0  0  0  0  0  0  0
    3.5101   -2.3524   -3.0732 C   0  0  0  1  0  0  0  0  0  0  0  0
    1.6991   -1.5261   -1.2281 N   0  0  0  1  0  0  0  0  0  0  0  0
    2.5266    1.4293   -0.1280 C   0  0  0  1  0  0  0  0  0  0  0  0
    2.5736    2.7829   -0.4030 C   0  0  0  1  0  0  0  0  0  0  0  0
    1.4636    1.8903    1.9708 C   0  0  0  1  0  0  0  0  0  0  0  0
    1.9732    0.9824    1.0618 C   0  0  0  1  0  0  0  0  0  0  0  0
    1.5106    3.2480    1.6951 C   0  0  0  1  0  0  0  0  0  0  0  0
    2.0624    3.6934    0.5087 C   0  0  0  1  0  0  0  0  0  0  0  0
   -0.3771   -2.9077   -0.4627 C   0  0  0  1  0  0  0  0  0  0  0  0
   -1.4494   -3.9294    0.0068 C   0  0  0  1  0  0  0  0  0  0  0  0
   -2.6558   -3.1257    0.5355 C   0  0  0  1  0  0  0  0  0  0  0  0
   -3.1679   -0.6488    0.2752 C   0  0  0  1  0  0  0  0  0  0  0  0
    2.4582   -3.0850   -2.7556 N   0  0  0  1  0  0  0  0  0  0  0  0
    3.6857   -1.1192   -2.4353 C   0  0  0  1  0  0  0  0  0  0  0  0
    2.7248   -0.7229   -1.4826 C   0  0  0  1  0  0  0  0  0  0  0  0
    3.1314    0.4985   -1.0213 N   0  0  0  1  0  0  0  0  0  0  0  0
    4.6156   -0.1422   -2.5107 N   0  0  0  1  0  0  0  0  0  0  0  0
    4.3192    0.8121   -1.6989 N   0  0  0  1  0  0  0  0  0  0  0  0
    0.9931    4.0307    2.6491 O   0  0  0  1  0  0  0  0  0  0  0  0
    0.4730   -3.4578   -1.5282 N   0  0  0  1  0  0  0  0  0  0  0  0
    1.0872    5.4934    2.5814 C   0  0  0  1  0  0  0  0  0  0  0  0
   -2.4245   -1.7698   -0.0383 N   0  0  0  1  0  0  0  0  0  0  0  0
   -1.2967   -1.7866   -0.9842 C   0  0  0  1  0  0  0  0  0  0  0  0
   -2.7575    0.1322    1.3398 C   0  0  0  1  0  0  0  0  0  0  0  0
   -3.4916    1.2584    1.6599 C   0  0  0  1  0  0  0  0  0  0  0  0
   -4.5870    1.6354    0.9935 N   0  0  0  1  0  0  0  0  0  0  0  0
   -4.9760    0.8667   -0.0336 C   0  0  0  1  0  0  0  0  0  0  0  0
   -4.2984   -0.2750   -0.4247 C   0  0  0  1  0  0  0  0  0  0  0  0
    4.1939   -2.6851   -3.7827 H   0  0  0  1  0  0  0  0  0  0  0  0
    2.9924    3.1184   -1.2939 H   0  0  0  1  0  0  0  0  0  0  0  0
    1.0448    1.5548    2.8617 H   0  0  0  1  0  0  0  0  0  0  0  0
    1.9416   -0.0360    1.2704 H   0  0  0  1  0  0  0  0  0  0  0  0
    2.0941    4.7118    0.3001 H   0  0  0  1  0  0  0  0  0  0  0  0
    0.2369   -2.5742    0.3477 H   0  0  0  1  0  0  0  0  0  0  0  0
   -1.7521   -4.5446   -0.8146 H   0  0  0  1  0  0  0  0  0  0  0  0
   -1.0509   -4.5449    0.7861 H   0  0  0  1  0  0  0  0  0  0  0  0
   -3.5782   -3.5400    0.1856 H   0  0  0  1  0  0  0  0  0  0  0  0
   -2.6605   -3.0960    1.6050 H   0  0  0  1  0  0  0  0  0  0  0  0
    0.2767   -4.3082   -1.9739 H   0  0  0  1  0  0  0  0  0  0  0  0
    0.5325    5.8483    1.7381 H   0  0  0  1  0  0  0  0  0  0  0  0
    2.1130    5.7802    2.4796 H   0  0  0  1  0  0  0  0  0  0  0  0
    0.6847    5.9182    3.4772 H   0  0  0  1  0  0  0  0  0  0  0  0
   -0.7863   -0.8462   -0.9816 H   0  0  0  1  0  0  0  0  0  0  0  0
   -1.6366   -2.0058   -1.9748 H   0  0  0  1  0  0  0  0  0  0  0  0
   -1.9122   -0.1231    1.8893 H   0  0  0  1  0  0  0  0  0  0  0  0
   -3.1755    1.8423    2.4603 H   0  0  0  1  0  0  0  0  0  0  0  0
   -5.8284    1.1415   -0.5623 H   0  0  0  1  0  0  0  0  0  0  0  0
   -4.6341   -0.8406   -1.2303 H   0  0  0  1  0  0  0  0  0  0  0  0
  1  3  4  0  0  0  0
  1 14  4  0  0  0  0
  1 21  1  0  0  0  0
  2 14  4  0  0  0  0
  2 15  4  0  0  0  0
  2 30  1  0  0  0  0
  3 16  4  0  0  0  0
  4  5  4  0  0  0  0
  4  7  4  0  0  0  0
  4 17  1  0  0  0  0
  5  9  4  0  0  0  0
  5 31  1  0  0  0  0
  6  7  4  0  0  0  0
  6  8  4  0  0  0  0
  6 32  1  0  0  0  0
  7 33  1  0  0  0  0
  8  9  4  0  0  0  0
  8 20  1  0  0  0  0
  9 34  1  0  0  0  0
 10 11  1  0  0  0  0
 10 21  1  0  0  0  0
 10 24  1  0  0  0  0
 10 35  1  0  0  0  0
 11 12  1  0  0  0  0
 11 36  1  0  0  0  0
 11 37  1  0  0  0  0
 12 23  1  0  0  0  0
 12 38  1  0  0  0  0
 12 39  1  0  0  0  0
 13 23  1  0  0  0  0
 13 25  4  0  0  0  0
 13 29  4  0  0  0  0
 15 16  4  0  0  0  0
 15 18  4  0  0  0  0
 16 17  4  0  0  0  0
 17 19  4  0  0  0  0
 18 19  4  0  0  0  0
 20 22  1  0  0  0  0
 21 40  1  0  0  0  0
 22 41  1  0  0  0  0
 22 42  1  0  0  0  0
 22 43  1  0  0  0  0
 23 24  1  0  0  0  0
 24 44  1  0  0  0  0
 24 45  1  0  0  0  0
 25 26  4  0  0  0  0
 25 46  1  0  0  0  0
 26 27  4  0  0  0  0
 26 47  1  0  0  0  0
 27 28  4  0  0  0  0
 28 29  4  0  0  0  0
 28 48  1  0  0  0  0
 29 49  1  0  0  0  0
M  END
> <ConfClashScore>
0 

> <ConfOneFourInteractionScore>
-0.986948 

> <ConfScore>
0.00953346 

> <ConfScorePBest>
0.00381981 

> <ConfTolerance>
0.398364 

> <HETNAM>
     OWQ A 303  OWQ                                                       

> <pdb_OW>
Q_303 -16.5129 3.80749 7.62812 0.15963 1.39178 -0.28144 -3.20151 0 0 0 -1.30514 0 0 0 0 0 0 0 0 -8.31393

$$$$
6yky_lig_1.pdb
 OpenBabel04162415593D

 49 53  0  0  0  0  0  0  0  0999 V2000
    0.6044    0.2459    0.6668 C   0  0  0  1  0  0  0  0  0  0  0  0
    2.3465    1.3959    1.6426 C   0  0  0  1  0  0  0  0  0  0  0  0
    1.3894   -0.3405   -0.2111 N   0  0  0  1  0  0  0  0  0  0  0  0
    3.8343   -1.4286   -2.0663 C   0  0  0  1  0  0  0  0  0  0  0  0
    3.0961   -1.1954   -3.2111 C   0  0  0  1  0  0  0  0  0  0  0  0
    4.5940   -3.5118   -2.9777 C   0  0  0  1  0  0  0  0  0  0  0  0
    4.5823   -2.5897   -1.9481 C   0  0  0  1  0  0  0  0  0  0  0  0
    3.8536   -3.2780   -4.1261 C   0  0  0  1  0  0  0  0  0  0  0  0
    3.1079   -2.1203   -4.2436 C   0  0  0  1  0  0  0  0  0  0  0  0
   -1.6242    0.5009    1.6909 C   0  0  0  1  0  0  0  0  0  0  0  0
   -2.6907   -0.5370    2.1378 C   0  0  0  1  0  0  0  0  0  0  0  0
   -3.9176    0.2485    2.6466 C   0  0  0  1  0  0  0  0  0  0  0  0
   -4.4621    2.7237    2.3855 C   0  0  0  1  0  0  0  0  0  0  0  0
    1.0631    1.0923    1.5722 N   0  0  0  1  0  0  0  0  0  0  0  0
    3.2272    0.8007    0.7323 C   0  0  0  1  0  0  0  0  0  0  0  0
    2.6941   -0.0961   -0.2163 C   0  0  0  1  0  0  0  0  0  0  0  0
    3.7529   -0.5241   -0.9683 N   0  0  0  1  0  0  0  0  0  0  0  0
    4.5592    0.8777    0.5206 N   0  0  0  1  0  0  0  0  0  0  0  0
    4.8938    0.1173   -0.4630 N   0  0  0  1  0  0  0  0  0  0  0  0
    3.7835   -4.1074   -5.1943 O   0  0  0  1  0  0  0  0  0  0  0  0
   -0.7499   -0.0326    0.6426 N   0  0  0  1  0  0  0  0  0  0  0  0
    4.6481   -5.2541   -5.1926 C   0  0  0  1  0  0  0  0  0  0  0  0
   -3.6945    1.6092    2.0811 N   0  0  0  1  0  0  0  0  0  0  0  0
   -2.5495    1.6109    1.1559 C   0  0  0  1  0  0  0  0  0  0  0  0
   -4.2844    3.3971    3.5799 C   0  0  0  1  0  0  0  0  0  0  0  0
   -5.0678    4.5050    3.8413 C   0  0  0  1  0  0  0  0  0  0  0  0
   -5.9975    4.9633    2.9974 N   0  0  0  1  0  0  0  0  0  0  0  0
   -6.1621    4.2982    1.8451 C   0  0  0  1  0  0  0  0  0  0  0  0
   -5.4190    3.1824    1.5014 C   0  0  0  1  0  0  0  0  0  0  0  0
    2.6954    2.0635    2.3596 H   0  0  0  1  0  0  0  0  0  0  0  0
    2.5318   -0.3262   -3.2980 H   0  0  0  1  0  0  0  0  0  0  0  0
    5.1584   -4.3810   -2.8908 H   0  0  0  1  0  0  0  0  0  0  0  0
    5.1346   -2.7670   -1.0849 H   0  0  0  1  0  0  0  0  0  0  0  0
    2.5556   -1.9429   -5.1068 H   0  0  0  1  0  0  0  0  0  0  0  0
   -1.0297    0.8401    2.5134 H   0  0  0  1  0  0  0  0  0  0  0  0
   -2.9699   -1.1537    1.3092 H   0  0  0  1  0  0  0  0  0  0  0  0
   -2.2981   -1.1494    2.9225 H   0  0  0  1  0  0  0  0  0  0  0  0
   -4.8276   -0.1773    2.2788 H   0  0  0  1  0  0  0  0  0  0  0  0
   -3.9421    0.2748    3.7160 H   0  0  0  1  0  0  0  0  0  0  0  0
   -1.1245   -0.5858   -0.0744 H   0  0  0  1  0  0  0  0  0  0  0  0
    5.5368   -5.0322   -5.7457 H   0  0  0  1  0  0  0  0  0  0  0  0
    4.1435   -6.0816   -5.6459 H   0  0  0  1  0  0  0  0  0  0  0  0
    4.9083   -5.5028   -4.1850 H   0  0  0  1  0  0  0  0  0  0  0  0
   -2.8682    1.3901    0.1586 H   0  0  0  1  0  0  0  0  0  0  0  0
   -2.0522    2.5581    1.1706 H   0  0  0  1  0  0  0  0  0  0  0  0
   -3.5744    3.0759    4.2687 H   0  0  0  1  0  0  0  0  0  0  0  0
   -4.9269    5.0080    4.7406 H   0  0  0  1  0  0  0  0  0  0  0  0
   -6.8835    4.6372    1.1770 H   0  0  0  1  0  0  0  0  0  0  0  0
   -5.5780    2.6986    0.5946 H   0  0  0  1  0  0  0  0  0  0  0  0
  1  3  4  0  0  0  0
  1 14  4  0  0  0  0
  1 21  1  0  0  0  0
  2 14  4  0  0  0  0
  2 15  4  0  0  0  0
  2 30  1  0  0  0  0
  3 16  4  0  0  0  0
  4  5  4  0  0  0  0
  4  7  4  0  0  0  0
  4 17  1  0  0  0  0
  5  9  4  0  0  0  0
  5 31  1  0  0  0  0
  6  7  4  0  0  0  0
  6  8  4  0  0  0  0
  6 32  1  0  0  0  0
  7 33  1  0  0  0  0
  8  9  4  0  0  0  0
  8 20  1  0  0  0  0
  9 34  1  0  0  0  0
 10 11  1  0  0  0  0
 10 21  1  0  0  0  0
 10 24  1  0  0  0  0
 10 35  1  0  0  0  0
 11 12  1  0  0  0  0
 11 36  1  0  0  0  0
 11 37  1  0  0  0  0
 12 23  1  0  0  0  0
 12 38  1  0  0  0  0
 12 39  1  0  0  0  0
 13 23  1  0  0  0  0
 13 25  4  0  0  0  0
 13 29  4  0  0  0  0
 15 16  4  0  0  0  0
 15 18  4  0  0  0  0
 16 17  4  0  0  0  0
 17 19  4  0  0  0  0
 18 19  4  0  0  0  0
 20 22  1  0  0  0  0
 21 40  1  0  0  0  0
 22 41  1  0  0  0  0
 22 42  1  0  0  0  0
 22 43  1  0  0  0  0
 23 24  1  0  0  0  0
 24 44  1  0  0  0  0
 24 45  1  0  0  0  0
 25 26  4  0  0  0  0
 25 46  1  0  0  0  0
 26 27  4  0  0  0  0
 26 47  1  0  0  0  0
 27 28  4  0  0  0  0
 28 29  4  0  0  0  0
 28 48  1  0  0  0  0
 29 49  1  0  0  0  0
M  END
> <ConfClashScore>
0 

> <ConfOneFourInteractionScore>
-0.986948 

> <ConfScore>
0.0107024 

> <ConfScorePBest>
0.00380648 

> <ConfTolerance>
0.443397 

> <HETNAM>
     OWQ A 303  OWQ                                                       

> <pdb_OW>
Q_303 -16.5129 3.80749 7.62812 0.15963 1.39178 -0.28144 -3.20151 0 0 0 -1.30514 0 0 0 0 0 0 0 0 -8.31393

$$$$
6yky_lig_1.pdb
 OpenBabel04162415593D

 49 53  0  0  0  0  0  0  0  0999 V2000
    0.6216   -0.3592    1.0957 C   0  0  0  1  0  0  0  0  0  0  0  0
    2.2956   -0.9387    2.5693 C   0  0  0  1  0  0  0  0  0  0  0  0
    1.2649   -0.8532    0.0598 N   0  0  0  1  0  0  0  0  0  0  0  0
    3.3428   -2.2356   -2.0317 C   0  0  0  1  0  0  0  0  0  0  0  0
    2.7931   -3.4209   -2.4822 C   0  0  0  1  0  0  0  0  0  0  0  0
    3.9694   -1.6706   -4.2757 C   0  0  0  1  0  0  0  0  0  0  0  0
    3.9342   -1.3604   -2.9293 C   0  0  0  1  0  0  0  0  0  0  0  0
    3.4180   -2.8594   -4.7277 C   0  0  0  1  0  0  0  0  0  0  0  0
    2.8284   -3.7320   -3.8326 C   0  0  0  1  0  0  0  0  0  0  0  0
   -1.2147    0.7731    2.1100 C   0  0  0  1  0  0  0  0  0  0  0  0
   -2.2130   -0.2237    2.7398 C   0  0  0  1  0  0  0  0  0  0  0  0
   -3.4172    0.5638    3.1910 C   0  0  0  1  0  0  0  0  0  0  0  0
   -4.1208    2.9337    2.4737 C   0  0  0  1  0  0  0  0  0  0  0  0
    1.1171   -0.3972    2.3203 N   0  0  0  1  0  0  0  0  0  0  0  0
    3.0235   -1.4797    1.5034 C   0  0  0  1  0  0  0  0  0  0  0  0
    2.4565   -1.4172    0.2140 C   0  0  0  1  0  0  0  0  0  0  0  0
    3.3608   -2.0067   -0.6254 N   0  0  0  1  0  0  0  0  0  0  0  0
    4.2230   -2.0917    1.3948 N   0  0  0  1  0  0  0  0  0  0  0  0
    4.4460   -2.4096    0.1673 N   0  0  0  1  0  0  0  0  0  0  0  0
    3.3976   -3.2698   -6.0107 O   0  0  0  1  0  0  0  0  0  0  0  0
   -0.5960    0.2108    0.9010 N   0  0  0  1  0  0  0  0  0  0  0  0
    4.1570   -2.4488   -6.9282 C   0  0  0  1  0  0  0  0  0  0  0  0
   -3.2041    1.8954    2.4384 N   0  0  0  1  0  0  0  0  0  0  0  0
   -2.0963    1.9591    1.7716 C   0  0  0  1  0  0  0  0  0  0  0  0
   -5.3477    2.8930    3.1098 C   0  0  0  1  0  0  0  0  0  0  0  0
   -6.1580    4.0115    3.0632 C   0  0  0  1  0  0  0  0  0  0  0  0
   -5.8194    5.1383    2.4294 N   0  0  0  1  0  0  0  0  0  0  0  0
   -4.6289    5.1623    1.8133 C   0  0  0  1  0  0  0  0  0  0  0  0
   -3.7543    4.0898    1.8128 C   0  0  0  1  0  0  0  0  0  0  0  0
    2.6748   -0.9626    3.5374 H   0  0  0  1  0  0  0  0  0  0  0  0
    2.3529   -4.0794   -1.8082 H   0  0  0  1  0  0  0  0  0  0  0  0
    4.4095   -1.0121   -4.9497 H   0  0  0  1  0  0  0  0  0  0  0  0
    4.3514   -0.4703   -2.5896 H   0  0  0  1  0  0  0  0  0  0  0  0
    2.4112   -4.6220   -4.1722 H   0  0  0  1  0  0  0  0  0  0  0  0
   -0.4510    1.0469    2.8077 H   0  0  0  1  0  0  0  0  0  0  0  0
   -2.5053   -0.9545    2.0151 H   0  0  0  1  0  0  0  0  0  0  0  0
   -1.7614   -0.7123    3.5777 H   0  0  0  1  0  0  0  0  0  0  0  0
   -3.4162    0.7083    4.2512 H   0  0  0  1  0  0  0  0  0  0  0  0
   -4.3293    0.0885    2.8961 H   0  0  0  1  0  0  0  0  0  0  0  0
   -1.0285    0.2445    0.0223 H   0  0  0  1  0  0  0  0  0  0  0  0
    5.1714   -2.3842   -6.5939 H   0  0  0  1  0  0  0  0  0  0  0  0
    3.7308   -1.4681   -6.9653 H   0  0  0  1  0  0  0  0  0  0  0  0
    4.1305   -2.8869   -7.9041 H   0  0  0  1  0  0  0  0  0  0  0  0
   -1.5837    2.8640    2.0232 H   0  0  0  1  0  0  0  0  0  0  0  0
   -2.3132    1.9509    0.7238 H   0  0  0  1  0  0  0  0  0  0  0  0
   -5.6550    2.0368    3.6139 H   0  0  0  1  0  0  0  0  0  0  0  0
   -7.0784    3.9745    3.5461 H   0  0  0  1  0  0  0  0  0  0  0  0
   -4.3491    6.0291    1.3113 H   0  0  0  1  0  0  0  0  0  0  0  0
   -2.8385    4.1531    1.3240 H   0  0  0  1  0  0  0  0  0  0  0  0
  1  3  4  0  0  0  0
  1 14  4  0  0  0  0
  1 21  1  0  0  0  0
  2 14  4  0  0  0  0
  2 15  4  0  0  0  0
  2 30  1  0  0  0  0
  3 16  4  0  0  0  0
  4  5  4  0  0  0  0
  4  7  4  0  0  0  0
  4 17  1  0  0  0  0
  5  9  4  0  0  0  0
  5 31  1  0  0  0  0
  6  7  4  0  0  0  0
  6  8  4  0  0  0  0
  6 32  1  0  0  0  0
  7 33  1  0  0  0  0
  8  9  4  0  0  0  0
  8 20  1  0  0  0  0
  9 34  1  0  0  0  0
 10 11  1  0  0  0  0
 10 21  1  0  0  0  0
 10 24  1  0  0  0  0
 10 35  1  0  0  0  0
 11 12  1  0  0  0  0
 11 36  1  0  0  0  0
 11 37  1  0  0  0  0
 12 23  1  0  0  0  0
 12 38  1  0  0  0  0
 12 39  1  0  0  0  0
 13 23  1  0  0  0  0
 13 25  4  0  0  0  0
 13 29  4  0  0  0  0
 15 16  4  0  0  0  0
 15 18  4  0  0  0  0
 16 17  4  0  0  0  0
 17 19  4  0  0  0  0
 18 19  4  0  0  0  0
 20 22  1  0  0  0  0
 21 40  1  0  0  0  0
 22 41  1  0  0  0  0
 22 42  1  0  0  0  0
 22 43  1  0  0  0  0
 23 24  1  0  0  0  0
 24 44  1  0  0  0  0
 24 45  1  0  0  0  0
 25 26  4  0  0  0  0
 25 46  1  0  0  0  0
 26 27  4  0  0  0  0
 26 47  1  0  0  0  0
 27 28  4  0  0  0  0
 28 29  4  0  0  0  0
 28 48  1  0  0  0  0
 29 49  1  0  0  0  0
M  END
> <ConfClashScore>
0 

> <ConfOneFourInteractionScore>
-0.991755 

> <ConfScore>
0.0109817 

> <ConfScorePBest>
0.00379316 

> <ConfTolerance>
0.436103 

> <HETNAM>
     OWQ A 303  OWQ                                                       

> <pdb_OW>
Q_303 -16.5129 3.80749 7.62812 0.15963 1.39178 -0.28144 -3.20151 0 0 0 -1.30514 0 0 0 0 0 0 0 0 -8.31393

$$$$
6yky_lig_1.pdb
 OpenBabel04162415593D

 49 53  0  0  0  0  0  0  0  0999 V2000
    0.7741    0.3840    0.6597 C   0  0  0  1  0  0  0  0  0  0  0  0
    1.5904    2.4641    0.0972 C   0  0  0  1  0  0  0  0  0  0  0  0
    1.3674   -0.2025   -0.3576 N   0  0  0  1  0  0  0  0  0  0  0  0
    3.0911   -0.9878   -3.0480 C   0  0  0  1  0  0  0  0  0  0  0  0
    3.9143   -0.9641   -4.1579 C   0  0  0  1  0  0  0  0  0  0  0  0
    2.6272   -3.3072   -3.4388 C   0  0  0  1  0  0  0  0  0  0  0  0
    2.4445   -2.1603   -2.6894 C   0  0  0  1  0  0  0  0  0  0  0  0
    3.4528   -3.2835   -4.5521 C   0  0  0  1  0  0  0  0  0  0  0  0
    4.0974   -2.1143   -4.9095 C   0  0  0  1  0  0  0  0  0  0  0  0
   -0.6583    0.2393    2.7054 C   0  0  0  1  0  0  0  0  0  0  0  0
   -1.6619   -0.7818    3.2858 C   0  0  0  1  0  0  0  0  0  0  0  0
   -2.9032   -0.0233    3.6826 C   0  0  0  1  0  0  0  0  0  0  0  0
   -3.6346    2.3415    2.9391 C   0  0  0  1  0  0  0  0  0  0  0  0
    0.8781    1.6816    0.8875 N   0  0  0  1  0  0  0  0  0  0  0  0
    2.2433    1.8925   -1.0008 C   0  0  0  1  0  0  0  0  0  0  0  0
    2.1046    0.5043   -1.2054 C   0  0  0  1  0  0  0  0  0  0  0  0
    2.8306    0.2134   -2.3272 N   0  0  0  1  0  0  0  0  0  0  0  0
    3.0309    2.3757   -1.9863 N   0  0  0  1  0  0  0  0  0  0  0  0
    3.3878    1.4212   -2.7733 N   0  0  0  1  0  0  0  0  0  0  0  0
    3.6277   -4.4059   -5.2894 O   0  0  0  1  0  0  0  0  0  0  0  0
    0.0253   -0.3025    1.5301 N   0  0  0  1  0  0  0  0  0  0  0  0
    3.1216   -5.6345   -4.7445 C   0  0  0  1  0  0  0  0  0  0  0  0
   -2.6857    1.3153    2.9438 N   0  0  0  1  0  0  0  0  0  0  0  0
   -1.5500    1.4063    2.3293 C   0  0  0  1  0  0  0  0  0  0  0  0
   -3.4222    3.5616    2.3243 C   0  0  0  1  0  0  0  0  0  0  0  0
   -4.4238    4.5125    2.3708 C   0  0  0  1  0  0  0  0  0  0  0  0
   -5.5948    4.3171    2.9848 N   0  0  0  1  0  0  0  0  0  0  0  0
   -5.7854    3.1313    3.5803 C   0  0  0  1  0  0  0  0  0  0  0  0
   -4.8386    2.1219    3.5793 C   0  0  0  1  0  0  0  0  0  0  0  0
    1.6646    3.4839    0.2869 H   0  0  0  1  0  0  0  0  0  0  0  0
    4.3962   -0.0833   -4.4293 H   0  0  0  1  0  0  0  0  0  0  0  0
    2.1452   -4.1879   -3.1675 H   0  0  0  1  0  0  0  0  0  0  0  0
    1.8219   -2.1770   -1.8565 H   0  0  0  1  0  0  0  0  0  0  0  0
    4.7200   -2.0976   -5.7424 H   0  0  0  1  0  0  0  0  0  0  0  0
    0.0658    0.5278    3.4384 H   0  0  0  1  0  0  0  0  0  0  0  0
   -1.2386   -1.2631    4.1427 H   0  0  0  1  0  0  0  0  0  0  0  0
   -1.9038   -1.5166    2.5466 H   0  0  0  1  0  0  0  0  0  0  0  0
   -2.9547    0.1176    4.7421 H   0  0  0  1  0  0  0  0  0  0  0  0
   -3.7898   -0.5180    3.3446 H   0  0  0  1  0  0  0  0  0  0  0  0
   -0.0754   -1.2631    1.3644 H   0  0  0  1  0  0  0  0  0  0  0  0
    2.0751   -5.5329   -4.5460 H   0  0  0  1  0  0  0  0  0  0  0  0
    3.6368   -5.8596   -3.8341 H   0  0  0  1  0  0  0  0  0  0  0  0
    3.2758   -6.4264   -5.4474 H   0  0  0  1  0  0  0  0  0  0  0  0
   -1.7179    1.3968    1.2726 H   0  0  0  1  0  0  0  0  0  0  0  0
   -1.0702    2.3216    2.6066 H   0  0  0  1  0  0  0  0  0  0  0  0
   -2.5256    3.7600    1.8362 H   0  0  0  1  0  0  0  0  0  0  0  0
   -4.2580    5.4270    1.9041 H   0  0  0  1  0  0  0  0  0  0  0  0
   -6.6889    2.9616    4.0668 H   0  0  0  1  0  0  0  0  0  0  0  0
   -5.0299    1.2153    4.0517 H   0  0  0  1  0  0  0  0  0  0  0  0
  1  3  4  0  0  0  0
  1 14  4  0  0  0  0
  1 21  1  0  0  0  0
  2 14  4  0  0  0  0
  2 15  4  0  0  0  0
  2 30  1  0  0  0  0
  3 16  4  0  0  0  0
  4  5  4  0  0  0  0
  4  7  4  0  0  0  0
  4 17  1  0  0  0  0
  5  9  4  0  0  0  0
  5 31  1  0  0  0  0
  6  7  4  0  0  0  0
  6  8  4  0  0  0  0
  6 32  1  0  0  0  0
  7 33  1  0  0  0  0
  8  9  4  0  0  0  0
  8 20  1  0  0  0  0
  9 34  1  0  0  0  0
 10 11  1  0  0  0  0
 10 21  1  0  0  0  0
 10 24  1  0  0  0  0
 10 35  1  0  0  0  0
 11 12  1  0  0  0  0
 11 36  1  0  0  0  0
 11 37  1  0  0  0  0
 12 23  1  0  0  0  0
 12 38  1  0  0  0  0
 12 39  1  0  0  0  0
 13 23  1  0  0  0  0
 13 25  4  0  0  0  0
 13 29  4  0  0  0  0
 15 16  4  0  0  0  0
 15 18  4  0  0  0  0
 16 17  4  0  0  0  0
 17 19  4  0  0  0  0
 18 19  4  0  0  0  0
 20 22  1  0  0  0  0
 21 40  1  0  0  0  0
 22 41  1  0  0  0  0
 22 42  1  0  0  0  0
 22 43  1  0  0  0  0
 23 24  1  0  0  0  0
 24 44  1  0  0  0  0
 24 45  1  0  0  0  0
 25 26  4  0  0  0  0
 25 46  1  0  0  0  0
 26 27  4  0  0  0  0
 26 47  1  0  0  0  0
 27 28  4  0  0  0  0
 28 29  4  0  0  0  0
 28 48  1  0  0  0  0
 29 49  1  0  0  0  0
M  END
> <ConfClashScore>
0 

> <ConfOneFourInteractionScore>
-0.987833 

> <ConfScore>
0.0131026 

> <ConfScorePBest>
0.00377983 

> <ConfTolerance>
0.356417 

> <HETNAM>
     OWQ A 303  OWQ                                                       

> <pdb_OW>
Q_303 -16.5129 3.80749 7.62812 0.15963 1.39178 -0.28144 -3.20151 0 0 0 -1.30514 0 0 0 0 0 0 0 0 -8.31393

$$$$
6yky_lig_1.pdb
 OpenBabel04162415593D

 49 53  0  0  0  0  0  0  0  0999 V2000
    0.6206   -0.5523    1.1354 C   0  0  0  1  0  0  0  0  0  0  0  0
    1.7251   -1.9129    2.6316 C   0  0  0  1  0  0  0  0  0  0  0  0
    1.3398   -0.9697    0.1158 N   0  0  0  1  0  0  0  0  0  0  0  0
    3.5104   -2.3384   -1.9067 C   0  0  0  1  0  0  0  0  0  0  0  0
    2.5234   -2.4547   -2.8672 C   0  0  0  1  0  0  0  0  0  0  0  0
    5.1578   -2.0749   -3.6283 C   0  0  0  1  0  0  0  0  0  0  0  0
    4.8299   -2.1509   -2.2878 C   0  0  0  1  0  0  0  0  0  0  0  0
    4.1680   -2.1915   -4.5918 C   0  0  0  1  0  0  0  0  0  0  0  0
    2.8524   -2.3785   -4.2116 C   0  0  0  1  0  0  0  0  0  0  0  0
   -1.2021    0.9060    1.9679 C   0  0  0  1  0  0  0  0  0  0  0  0
   -2.2486   -0.1161    2.3850 C   0  0  0  1  0  0  0  0  0  0  0  0
   -3.3698    0.7258    2.9976 C   0  0  0  1  0  0  0  0  0  0  0  0
   -4.1128    3.0636    2.4526 C   0  0  0  1  0  0  0  0  0  0  0  0
    0.8024   -1.0069    2.3629 N   0  0  0  1  0  0  0  0  0  0  0  0
    2.5193   -2.3922    1.5837 C   0  0  0  1  0  0  0  0  0  0  0  0
    2.2906   -1.8793    0.2904 C   0  0  0  1  0  0  0  0  0  0  0  0
    3.1883   -2.5061   -0.5289 N   0  0  0  1  0  0  0  0  0  0  0  0
    3.5251   -3.2899    1.4970 N   0  0  0  1  0  0  0  0  0  0  0  0
    3.9343   -3.3771    0.2793 N   0  0  0  1  0  0  0  0  0  0  0  0
    4.6089   -2.1067   -5.8694 O   0  0  0  1  0  0  0  0  0  0  0  0
   -0.3383    0.3738    0.9213 N   0  0  0  1  0  0  0  0  0  0  0  0
    3.6459   -2.3268   -6.9118 C   0  0  0  1  0  0  0  0  0  0  0  0
   -3.2318    2.0186    2.3089 N   0  0  0  1  0  0  0  0  0  0  0  0
   -2.0403    2.0605    1.4489 C   0  0  0  1  0  0  0  0  0  0  0  0
   -5.3581    2.9807    3.0476 C   0  0  0  1  0  0  0  0  0  0  0  0
   -6.1353    4.1208    3.1241 C   0  0  0  1  0  0  0  0  0  0  0  0
   -5.7475    5.3079    2.6481 N   0  0  0  1  0  0  0  0  0  0  0  0
   -4.5397    5.3728    2.0700 C   0  0  0  1  0  0  0  0  0  0  0  0
   -3.6955    4.2822    1.9542 C   0  0  0  1  0  0  0  0  0  0  0  0
    1.8586   -2.2628    3.6018 H   0  0  0  1  0  0  0  0  0  0  0  0
    1.5340   -2.5994   -2.5813 H   0  0  0  1  0  0  0  0  0  0  0  0
    6.1472   -1.9302   -3.9142 H   0  0  0  1  0  0  0  0  0  0  0  0
    5.5731   -2.0674   -1.5650 H   0  0  0  1  0  0  0  0  0  0  0  0
    2.1092   -2.4620   -4.9343 H   0  0  0  1  0  0  0  0  0  0  0  0
   -0.6060    1.2087    2.8034 H   0  0  0  1  0  0  0  0  0  0  0  0
   -2.6045   -0.6628    1.5369 H   0  0  0  1  0  0  0  0  0  0  0  0
   -1.8478   -0.7971    3.1065 H   0  0  0  1  0  0  0  0  0  0  0  0
   -4.3272    0.2885    2.8050 H   0  0  0  1  0  0  0  0  0  0  0  0
   -3.2337    0.8367    4.0531 H   0  0  0  1  0  0  0  0  0  0  0  0
   -0.4608    0.7080    0.0083 H   0  0  0  1  0  0  0  0  0  0  0  0
    4.1250   -2.2408   -7.8647 H   0  0  0  1  0  0  0  0  0  0  0  0
    2.8670   -1.5969   -6.8374 H   0  0  0  1  0  0  0  0  0  0  0  0
    3.2281   -3.3066   -6.8101 H   0  0  0  1  0  0  0  0  0  0  0  0
   -1.5218    2.9904    1.5558 H   0  0  0  1  0  0  0  0  0  0  0  0
   -2.3024    1.9138    0.4219 H   0  0  0  1  0  0  0  0  0  0  0  0
   -5.7034    2.0774    3.4303 H   0  0  0  1  0  0  0  0  0  0  0  0
   -7.0698    4.0514    3.5752 H   0  0  0  1  0  0  0  0  0  0  0  0
   -4.2217    6.2871    1.6900 H   0  0  0  1  0  0  0  0  0  0  0  0
   -2.7646    4.3785    1.5005 H   0  0  0  1  0  0  0  0  0  0  0  0
  1  3  4  0  0  0  0
  1 14  4  0  0  0  0
  1 21  1  0  0  0  0
  2 14  4  0  0  0  0
  2 15  4  0  0  0  0
  2 30  1  0  0  0  0
  3 16  4  0  0  0  0
  4  5  4  0  0  0  0
  4  7  4  0  0  0  0
  4 17  1  0  0  0  0
  5  9  4  0  0  0  0
  5 31  1  0  0  0  0
  6  7  4  0  0  0  0
  6  8  4  0  0  0  0
  6 32  1  0  0  0  0
  7 33  1  0  0  0  0
  8  9  4  0  0  0  0
  8 20  1  0  0  0  0
  9 34  1  0  0  0  0
 10 11  1  0  0  0  0
 10 21  1  0  0  0  0
 10 24  1  0  0  0  0
 10 35  1  0  0  0  0
 11 12  1  0  0  0  0
 11 36  1  0  0  0  0
 11 37  1  0  0  0  0
 12 23  1  0  0  0  0
 12 38  1  0  0  0  0
 12 39  1  0  0  0  0
 13 23  1  0  0  0  0
 13 25  4  0  0  0  0
 13 29  4  0  0  0  0
 15 16  4  0  0  0  0
 15 18  4  0  0  0  0
 16 17  4  0  0  0  0
 17 19  4  0  0  0  0
 18 19  4  0  0  0  0
 20 22  1  0  0  0  0
 21 40  1  0  0  0  0
 22 41  1  0  0  0  0
 22 42  1  0  0  0  0
 22 43  1  0  0  0  0
 23 24  1  0  0  0  0
 24 44  1  0  0  0  0
 24 45  1  0  0  0  0
 25 26  4  0  0  0  0
 25 46  1  0  0  0  0
 26 27  4  0  0  0  0
 26 47  1  0  0  0  0
 27 28  4  0  0  0  0
 28 29  4  0  0  0  0
 28 48  1  0  0  0  0
 29 49  1  0  0  0  0
M  END
> <ConfClashScore>
0 

> <ConfOneFourInteractionScore>
-0.986948 

> <ConfScore>
0.0138405 

> <ConfScorePBest>
0.0037665 

> <ConfTolerance>
0.45949 

> <HETNAM>
     OWQ A 303  OWQ                                                       

> <pdb_OW>
Q_303 -16.5129 3.80749 7.62812 0.15963 1.39178 -0.28144 -3.20151 0 0 0 -1.30514 0 0 0 0 0 0 0 0 -8.31393

$$$$
6yky_lig_1.pdb
 OpenBabel04162415593D

 49 53  0  0  0  0  0  0  0  0999 V2000
    1.3039   -2.5776   -1.7938 C   0  0  0  1  0  0  0  0  0  0  0  0
    3.1918   -2.5601   -3.1148 C   0  0  0  1  0  0  0  0  0  0  0  0
    1.6645   -1.4942   -1.1404 N   0  0  0  1  0  0  0  0  0  0  0  0
    3.0322    1.1951   -0.0023 C   0  0  0  1  0  0  0  0  0  0  0  0
    1.8063    1.0051    0.6070 C   0  0  0  1  0  0  0  0  0  0  0  0
    3.2713    3.2953    1.1288 C   0  0  0  1  0  0  0  0  0  0  0  0
    3.7646    2.3431    0.2568 C   0  0  0  1  0  0  0  0  0  0  0  0
    2.0417    3.1048    1.7400 C   0  0  0  1  0  0  0  0  0  0  0  0
    1.3116    1.9601    1.4814 C   0  0  0  1  0  0  0  0  0  0  0  0
   -0.7556   -2.6372   -0.4496 C   0  0  0  1  0  0  0  0  0  0  0  0
   -1.8048   -3.6801    0.0257 C   0  0  0  1  0  0  0  0  0  0  0  0
   -3.0485   -2.9020    0.5039 C   0  0  0  1  0  0  0  0  0  0  0  0
   -3.6388   -0.4457    0.1618 C   0  0  0  1  0  0  0  0  0  0  0  0
    2.0422   -3.1023   -2.7562 N   0  0  0  1  0  0  0  0  0  0  0  0
    3.6242   -1.4055   -2.4525 C   0  0  0  1  0  0  0  0  0  0  0  0
    2.8047   -0.8804   -1.4323 C   0  0  0  1  0  0  0  0  0  0  0  0
    3.4522    0.2278   -0.9605 N   0  0  0  1  0  0  0  0  0  0  0  0
    4.7118   -0.6108   -2.5549 N   0  0  0  1  0  0  0  0  0  0  0  0
    4.6391    0.3481   -1.6988 N   0  0  0  1  0  0  0  0  0  0  0  0
    1.6418    4.0102    2.6594 O   0  0  0  1  0  0  0  0  0  0  0  0
    0.1255   -3.1824   -1.4673 N   0  0  0  1  0  0  0  0  0  0  0  0
    2.4089    5.2223    2.8461 C   0  0  0  1  0  0  0  0  0  0  0  0
   -2.8481   -1.5561   -0.1039 N   0  0  0  1  0  0  0  0  0  0  0  0
   -1.6988   -1.5624   -1.0238 C   0  0  0  1  0  0  0  0  0  0  0  0
   -3.4674    0.7279   -0.5487 C   0  0  0  1  0  0  0  0  0  0  0  0
   -4.2785    1.8074   -0.2547 C   0  0  0  1  0  0  0  0  0  0  0  0
   -5.2251    1.7800    0.6884 N   0  0  0  1  0  0  0  0  0  0  0  0
   -5.3775    0.6372    1.3724 C   0  0  0  1  0  0  0  0  0  0  0  0
   -4.6119   -0.4923    1.1410 C   0  0  0  1  0  0  0  0  0  0  0  0
    3.7640   -2.9824   -3.8737 H   0  0  0  1  0  0  0  0  0  0  0  0
    1.2550    0.1456    0.4094 H   0  0  0  1  0  0  0  0  0  0  0  0
    3.8226    4.1548    1.3263 H   0  0  0  1  0  0  0  0  0  0  0  0
    4.6852    2.4879   -0.2048 H   0  0  0  1  0  0  0  0  0  0  0  0
    0.3910    1.8153    1.9430 H   0  0  0  1  0  0  0  0  0  0  0  0
   -0.1716   -2.2608    0.3641 H   0  0  0  1  0  0  0  0  0  0  0  0
   -1.4046   -4.2597    0.8312 H   0  0  0  1  0  0  0  0  0  0  0  0
   -2.0684   -4.3281   -0.7840 H   0  0  0  1  0  0  0  0  0  0  0  0
   -3.0788   -2.8421    1.5718 H   0  0  0  1  0  0  0  0  0  0  0  0
   -3.9487   -3.3564    0.1460 H   0  0  0  1  0  0  0  0  0  0  0  0
   -0.1332   -4.0058   -1.9314 H   0  0  0  1  0  0  0  0  0  0  0  0
    3.4522    5.0021    2.7561 H   0  0  0  1  0  0  0  0  0  0  0  0
    2.2118    5.6226    3.8186 H   0  0  0  1  0  0  0  0  0  0  0  0
    2.1304    5.9386    2.1017 H   0  0  0  1  0  0  0  0  0  0  0  0
   -2.0085   -1.8208   -2.0148 H   0  0  0  1  0  0  0  0  0  0  0  0
   -1.2194   -0.6060   -1.0373 H   0  0  0  1  0  0  0  0  0  0  0  0
   -2.7417    0.7970   -1.2905 H   0  0  0  1  0  0  0  0  0  0  0  0
   -4.1455    2.6861   -0.7950 H   0  0  0  1  0  0  0  0  0  0  0  0
   -6.1064    0.5974    2.1131 H   0  0  0  1  0  0  0  0  0  0  0  0
   -4.7663   -1.3595    1.6938 H   0  0  0  1  0  0  0  0  0  0  0  0
  1  3  4  0  0  0  0
  1 14  4  0  0  0  0
  1 21  1  0  0  0  0
  2 14  4  0  0  0  0
  2 15  4  0  0  0  0
  2 30  1  0  0  0  0
  3 16  4  0  0  0  0
  4  5  4  0  0  0  0
  4  7  4  0  0  0  0
  4 17  1  0  0  0  0
  5  9  4  0  0  0  0
  5 31  1  0  0  0  0
  6  7  4  0  0  0  0
  6  8  4  0  0  0  0
  6 32  1  0  0  0  0
  7 33  1  0  0  0  0
  8  9  4  0  0  0  0
  8 20  1  0  0  0  0
  9 34  1  0  0  0  0
 10 11  1  0  0  0  0
 10 21  1  0  0  0  0
 10 24  1  0  0  0  0
 10 35  1  0  0  0  0
 11 12  1  0  0  0  0
 11 36  1  0  0  0  0
 11 37  1  0  0  0  0
 12 23  1  0  0  0  0
 12 38  1  0  0  0  0
 12 39  1  0  0  0  0
 13 23  1  0  0  0  0
 13 25  4  0  0  0  0
 13 29  4  0  0  0  0
 15 16  4  0  0  0  0
 15 18  4  0  0  0  0
 16 17  4  0  0  0  0
 17 19  4  0  0  0  0
 18 19  4  0  0  0  0
 20 22  1  0  0  0  0
 21 40  1  0  0  0  0
 22 41  1  0  0  0  0
 22 42  1  0  0  0  0
 22 43  1  0  0  0  0
 23 24  1  0  0  0  0
 24 44  1  0  0  0  0
 24 45  1  0  0  0  0
 25 26  4  0  0  0  0
 25 46  1  0  0  0  0
 26 27  4  0  0  0  0
 26 47  1  0  0  0  0
 27 28  4  0  0  0  0
 28 29  4  0  0  0  0
 28 48  1  0  0  0  0
 29 49  1  0  0  0  0
M  END
> <ConfClashScore>
0 

> <ConfOneFourInteractionScore>
-0.984874 

> <ConfScore>
0.0141938 

> <ConfScorePBest>
0.00375317 

> <ConfTolerance>
0.416977 

> <HETNAM>
     OWQ A 303  OWQ                                                       

> <pdb_OW>
Q_303 -16.5129 3.80749 7.62812 0.15963 1.39178 -0.28144 -3.20151 0 0 0 -1.30514 0 0 0 0 0 0 0 0 -8.31393

$$$$
6yky_lig_1.pdb
 OpenBabel04162415593D

 49 53  0  0  0  0  0  0  0  0999 V2000
    0.5068   -0.0352    0.8061 C   0  0  0  1  0  0  0  0  0  0  0  0
    1.9470    1.7006    1.2772 C   0  0  0  1  0  0  0  0  0  0  0  0
    1.2951   -0.5313   -0.1230 N   0  0  0  1  0  0  0  0  0  0  0  0
    3.6257   -1.1566   -2.3259 C   0  0  0  1  0  0  0  0  0  0  0  0
    3.6135   -2.5060   -2.0273 C   0  0  0  1  0  0  0  0  0  0  0  0
    4.1218   -1.6654   -4.6155 C   0  0  0  1  0  0  0  0  0  0  0  0
    3.8829   -0.7355   -3.6213 C   0  0  0  1  0  0  0  0  0  0  0  0
    4.1096   -3.0189   -4.3162 C   0  0  0  1  0  0  0  0  0  0  0  0
    3.8532   -3.4386   -3.0245 C   0  0  0  1  0  0  0  0  0  0  0  0
   -1.5437   -0.1121    2.1332 C   0  0  0  1  0  0  0  0  0  0  0  0
   -2.6042   -1.1362    2.6239 C   0  0  0  1  0  0  0  0  0  0  0  0
   -3.8177   -0.3355    3.1409 C   0  0  0  1  0  0  0  0  0  0  0  0
   -4.3792    2.1651    2.8462 C   0  0  0  1  0  0  0  0  0  0  0  0
    0.8174    1.0509    1.4919 N   0  0  0  1  0  0  0  0  0  0  0  0
    2.8236    1.2165    0.2995 C   0  0  0  1  0  0  0  0  0  0  0  0
    2.4516    0.0548   -0.4076 C   0  0  0  1  0  0  0  0  0  0  0  0
    3.4690   -0.1946   -1.2866 N   0  0  0  1  0  0  0  0  0  0  0  0
    4.0259    1.6151   -0.1700 N   0  0  0  1  0  0  0  0  0  0  0  0
    4.4263    0.8128   -1.0940 N   0  0  0  1  0  0  0  0  0  0  0  0
    4.3489   -3.9298   -5.2893 O   0  0  0  1  0  0  0  0  0  0  0  0
   -0.6908   -0.6724    1.0761 N   0  0  0  1  0  0  0  0  0  0  0  0
    4.6429   -3.4262   -6.6016 C   0  0  0  1  0  0  0  0  0  0  0  0
   -3.6018    1.0120    2.5422 N   0  0  0  1  0  0  0  0  0  0  0  0
   -2.4761    0.9898    1.5938 C   0  0  0  1  0  0  0  0  0  0  0  0
   -5.5608    2.5179    2.2210 C   0  0  0  1  0  0  0  0  0  0  0  0
   -6.2098    3.6685    2.6268 C   0  0  0  1  0  0  0  0  0  0  0  0
   -5.7527    4.4670    3.5962 N   0  0  0  1  0  0  0  0  0  0  0  0
   -4.6038    4.1152    4.1908 C   0  0  0  1  0  0  0  0  0  0  0  0
   -3.8911    2.9789    3.8499 C   0  0  0  1  0  0  0  0  0  0  0  0
    2.1803    2.5544    1.8234 H   0  0  0  1  0  0  0  0  0  0  0  0
    3.4245   -2.8217   -1.0546 H   0  0  0  1  0  0  0  0  0  0  0  0
    4.3108   -1.3497   -5.5882 H   0  0  0  1  0  0  0  0  0  0  0  0
    3.8960    0.2800   -3.8450 H   0  0  0  1  0  0  0  0  0  0  0  0
    3.8400   -4.4541   -2.8007 H   0  0  0  1  0  0  0  0  0  0  0  0
   -0.9313    0.2423    2.9359 H   0  0  0  1  0  0  0  0  0  0  0  0
   -2.9025   -1.7693    1.8144 H   0  0  0  1  0  0  0  0  0  0  0  0
   -2.1976   -1.7333    3.4132 H   0  0  0  1  0  0  0  0  0  0  0  0
   -3.8202   -0.2865    4.2098 H   0  0  0  1  0  0  0  0  0  0  0  0
   -4.7366   -0.7657    2.8010 H   0  0  0  1  0  0  0  0  0  0  0  0
   -0.9617   -1.4719    0.5783 H   0  0  0  1  0  0  0  0  0  0  0  0
    5.6858   -3.1968   -6.6708 H   0  0  0  1  0  0  0  0  0  0  0  0
    4.0704   -2.5400   -6.7798 H   0  0  0  1  0  0  0  0  0  0  0  0
    4.3917   -4.1666   -7.3321 H   0  0  0  1  0  0  0  0  0  0  0  0
   -1.9755    1.9353    1.5781 H   0  0  0  1  0  0  0  0  0  0  0  0
   -2.8160    0.7492    0.6082 H   0  0  0  1  0  0  0  0  0  0  0  0
   -5.9538    1.9285    1.4596 H   0  0  0  1  0  0  0  0  0  0  0  0
   -7.0993    3.9262    2.1536 H   0  0  0  1  0  0  0  0  0  0  0  0
   -4.2299    4.7259    4.9450 H   0  0  0  1  0  0  0  0  0  0  0  0
   -3.0050    2.7422    4.3401 H   0  0  0  1  0  0  0  0  0  0  0  0
  1  3  4  0  0  0  0
  1 14  4  0  0  0  0
  1 21  1  0  0  0  0
  2 14  4  0  0  0  0
  2 15  4  0  0  0  0
  2 30  1  0  0  0  0
  3 16  4  0  0  0  0
  4  5  4  0  0  0  0
  4  7  4  0  0  0  0
  4 17  1  0  0  0  0
  5  9  4  0  0  0  0
  5 31  1  0  0  0  0
  6  7  4  0  0  0  0
  6  8  4  0  0  0  0
  6 32  1  0  0  0  0
  7 33  1  0  0  0  0
  8  9  4  0  0  0  0
  8 20  1  0  0  0  0
  9 34  1  0  0  0  0
 10 11  1  0  0  0  0
 10 21  1  0  0  0  0
 10 24  1  0  0  0  0
 10 35  1  0  0  0  0
 11 12  1  0  0  0  0
 11 36  1  0  0  0  0
 11 37  1  0  0  0  0
 12 23  1  0  0  0  0
 12 38  1  0  0  0  0
 12 39  1  0  0  0  0
 13 23  1  0  0  0  0
 13 25  4  0  0  0  0
 13 29  4  0  0  0  0
 15 16  4  0  0  0  0
 15 18  4  0  0  0  0
 16 17  4  0  0  0  0
 17 19  4  0  0  0  0
 18 19  4  0  0  0  0
 20 22  1  0  0  0  0
 21 40  1  0  0  0  0
 22 41  1  0  0  0  0
 22 42  1  0  0  0  0
 22 43  1  0  0  0  0
 23 24  1  0  0  0  0
 24 44  1  0  0  0  0
 24 45  1  0  0  0  0
 25 26  4  0  0  0  0
 25 46  1  0  0  0  0
 26 27  4  0  0  0  0
 26 47  1  0  0  0  0
 27 28  4  0  0  0  0
 28 29  4  0  0  0  0
 28 48  1  0  0  0  0
 29 49  1  0  0  0  0
M  END
> <ConfClashScore>
0 

> <ConfOneFourInteractionScore>
-0.986948 

> <ConfScore>
0.014729 

> <ConfScorePBest>
0.00373984 

> <ConfTolerance>
0.424868 

> <HETNAM>
     OWQ A 303  OWQ                                                       

> <pdb_OW>
Q_303 -16.5129 3.80749 7.62812 0.15963 1.39178 -0.28144 -3.20151 0 0 0 -1.30514 0 0 0 0 0 0 0 0 -8.31393

$$$$
6yky_lig_1.pdb
 OpenBabel04162415593D

 49 53  0  0  0  0  0  0  0  0999 V2000
    1.0941    0.2378    0.8618 C   0  0  0  1  0  0  0  0  0  0  0  0
    2.9587    1.5489    1.1993 C   0  0  0  1  0  0  0  0  0  0  0  0
    1.6121   -0.3516   -0.1942 N   0  0  0  1  0  0  0  0  0  0  0  0
    3.4402   -1.3990   -2.6770 C   0  0  0  1  0  0  0  0  0  0  0  0
    4.1325   -1.2845   -3.8677 C   0  0  0  1  0  0  0  0  0  0  0  0
    2.2384   -3.2788   -3.5540 C   0  0  0  1  0  0  0  0  0  0  0  0
    2.4898   -2.3959   -2.5208 C   0  0  0  1  0  0  0  0  0  0  0  0
    2.9327   -3.1641   -4.7483 C   0  0  0  1  0  0  0  0  0  0  0  0
    3.8803   -2.1700   -4.9039 C   0  0  0  1  0  0  0  0  0  0  0  0
   -0.7985    0.4341    2.4773 C   0  0  0  1  0  0  0  0  0  0  0  0
   -1.8129   -0.5875    3.0376 C   0  0  0  1  0  0  0  0  0  0  0  0
   -3.0415    0.1778    3.4604 C   0  0  0  1  0  0  0  0  0  0  0  0
   -3.7370    2.5625    2.7806 C   0  0  0  1  0  0  0  0  0  0  0  0
    1.7437    1.1639    1.5451 N   0  0  0  1  0  0  0  0  0  0  0  0
    3.5581    0.9545    0.0830 C   0  0  0  1  0  0  0  0  0  0  0  0
    2.8285   -0.0289   -0.6162 C   0  0  0  1  0  0  0  0  0  0  0  0
    3.6328   -0.4362   -1.6444 N   0  0  0  1  0  0  0  0  0  0  0  0
    4.7495    1.0996   -0.5371 N   0  0  0  1  0  0  0  0  0  0  0  0
    4.8212    0.3029   -1.5460 N   0  0  0  1  0  0  0  0  0  0  0  0
    2.8105   -4.0743   -5.7436 O   0  0  0  1  0  0  0  0  0  0  0  0
   -0.1315   -0.0850    1.2897 N   0  0  0  1  0  0  0  0  0  0  0  0
    1.7234   -5.0079   -5.6492 C   0  0  0  1  0  0  0  0  0  0  0  0
   -2.8095    1.5315    2.7543 N   0  0  0  1  0  0  0  0  0  0  0  0
   -1.6759    1.6223    2.1358 C   0  0  0  1  0  0  0  0  0  0  0  0
   -3.3946    3.8297    2.3463 C   0  0  0  1  0  0  0  0  0  0  0  0
   -4.3506    4.8268    2.3860 C   0  0  0  1  0  0  0  0  0  0  0  0
   -5.5971    4.6326    2.8275 N   0  0  0  1  0  0  0  0  0  0  0  0
   -5.9140    3.4002    3.2496 C   0  0  0  1  0  0  0  0  0  0  0  0
   -5.0206    2.3433    3.2411 C   0  0  0  1  0  0  0  0  0  0  0  0
    3.4597    2.2787    1.7451 H   0  0  0  1  0  0  0  0  0  0  0  0
    4.8427   -0.5340   -3.9863 H   0  0  0  1  0  0  0  0  0  0  0  0
    1.5282   -4.0293   -3.4355 H   0  0  0  1  0  0  0  0  0  0  0  0
    1.9660   -2.4795   -1.6262 H   0  0  0  1  0  0  0  0  0  0  0  0
    4.4041   -2.0864   -5.7984 H   0  0  0  1  0  0  0  0  0  0  0  0
   -0.0665    0.6940    3.2132 H   0  0  0  1  0  0  0  0  0  0  0  0
   -2.0689   -1.3000    2.2815 H   0  0  0  1  0  0  0  0  0  0  0  0
   -1.3918   -1.0960    3.8796 H   0  0  0  1  0  0  0  0  0  0  0  0
   -3.0853    0.2925    4.5234 H   0  0  0  1  0  0  0  0  0  0  0  0
   -3.9366   -0.2961    3.1152 H   0  0  0  1  0  0  0  0  0  0  0  0
   -0.6302   -0.7348    0.7517 H   0  0  0  1  0  0  0  0  0  0  0  0
    1.5478   -5.2489   -4.6215 H   0  0  0  1  0  0  0  0  0  0  0  0
    1.9712   -5.8991   -6.1870 H   0  0  0  1  0  0  0  0  0  0  0  0
    0.8411   -4.5712   -6.0686 H   0  0  0  1  0  0  0  0  0  0  0  0
   -1.8496    1.6418    1.0802 H   0  0  0  1  0  0  0  0  0  0  0  0
   -1.1820    2.5237    2.4332 H   0  0  0  1  0  0  0  0  0  0  0  0
   -2.4357    4.0288    1.9964 H   0  0  0  1  0  0  0  0  0  0  0  0
   -4.0867    5.7769    2.0555 H   0  0  0  1  0  0  0  0  0  0  0  0
   -6.8781    3.2302    3.6005 H   0  0  0  1  0  0  0  0  0  0  0  0
   -5.3102    1.4019    3.5752 H   0  0  0  1  0  0  0  0  0  0  0  0
  1  3  4  0  0  0  0
  1 14  4  0  0  0  0
  1 21  1  0  0  0  0
  2 14  4  0  0  0  0
  2 15  4  0  0  0  0
  2 30  1  0  0  0  0
  3 16  4  0  0  0  0
  4  5  4  0  0  0  0
  4  7  4  0  0  0  0
  4 17  1  0  0  0  0
  5  9  4  0  0  0  0
  5 31  1  0  0  0  0
  6  7  4  0  0  0  0
  6  8  4  0  0  0  0
  6 32  1  0  0  0  0
  7 33  1  0  0  0  0
  8  9  4  0  0  0  0
  8 20  1  0  0  0  0
  9 34  1  0  0  0  0
 10 11  1  0  0  0  0
 10 21  1  0  0  0  0
 10 24  1  0  0  0  0
 10 35  1  0  0  0  0
 11 12  1  0  0  0  0
 11 36  1  0  0  0  0
 11 37  1  0  0  0  0
 12 23  1  0  0  0  0
 12 38  1  0  0  0  0
 12 39  1  0  0  0  0
 13 23  1  0  0  0  0
 13 25  4  0  0  0  0
 13 29  4  0  0  0  0
 15 16  4  0  0  0  0
 15 18  4  0  0  0  0
 16 17  4  0  0  0  0
 17 19  4  0  0  0  0
 18 19  4  0  0  0  0
 20 22  1  0  0  0  0
 21 40  1  0  0  0  0
 22 41  1  0  0  0  0
 22 42  1  0  0  0  0
 22 43  1  0  0  0  0
 23 24  1  0  0  0  0
 24 44  1  0  0  0  0
 24 45  1  0  0  0  0
 25 26  4  0  0  0  0
 25 46  1  0  0  0  0
 26 27  4  0  0  0  0
 26 47  1  0  0  0  0
 27 28  4  0  0  0  0
 28 29  4  0  0  0  0
 28 48  1  0  0  0  0
 29 49  1  0  0  0  0
M  END
> <ConfClashScore>
0 

> <ConfOneFourInteractionScore>
-0.984874 

> <ConfScore>
0.0148565 

> <ConfScorePBest>
0.00372651 

> <ConfTolerance>
0.533053 

> <HETNAM>
     OWQ A 303  OWQ                                                       

> <pdb_OW>
Q_303 -16.5129 3.80749 7.62812 0.15963 1.39178 -0.28144 -3.20151 0 0 0 -1.30514 0 0 0 0 0 0 0 0 -8.31393

$$$$
6yky_lig_1.pdb
 OpenBabel04162415593D

 49 53  0  0  0  0  0  0  0  0999 V2000
    1.1981   -2.6137   -1.7638 C   0  0  0  1  0  0  0  0  0  0  0  0
    3.0714   -2.6903   -3.1033 C   0  0  0  1  0  0  0  0  0  0  0  0
    1.5394   -1.4605   -1.2304 N   0  0  0  1  0  0  0  0  0  0  0  0
    2.9385    1.3379   -0.3278 C   0  0  0  1  0  0  0  0  0  0  0  0
    1.6830    1.9139   -0.3747 C   0  0  0  1  0  0  0  0  0  0  0  0
    3.5826    2.8765    1.3941 C   0  0  0  1  0  0  0  0  0  0  0  0
    3.8906    1.8216    0.5559 C   0  0  0  1  0  0  0  0  0  0  0  0
    2.3234    3.4543    1.3473 C   0  0  0  1  0  0  0  0  0  0  0  0
    1.3742    2.9719    0.4660 C   0  0  0  1  0  0  0  0  0  0  0  0
   -0.8217   -2.6625   -0.3364 C   0  0  0  1  0  0  0  0  0  0  0  0
   -1.8754   -3.7036    0.1327 C   0  0  0  1  0  0  0  0  0  0  0  0
   -3.1109   -2.9225    0.6273 C   0  0  0  1  0  0  0  0  0  0  0  0
   -3.6835   -0.4616    0.3165 C   0  0  0  1  0  0  0  0  0  0  0  0
    1.9389   -3.2183   -2.6761 N   0  0  0  1  0  0  0  0  0  0  0  0
    3.4828   -1.4638   -2.5694 C   0  0  0  1  0  0  0  0  0  0  0  0
    2.6615   -0.8545   -1.5986 C   0  0  0  1  0  0  0  0  0  0  0  0
    3.2872    0.3110   -1.2520 N   0  0  0  1  0  0  0  0  0  0  0  0
    4.5500   -0.6594   -2.7671 N   0  0  0  1  0  0  0  0  0  0  0  0
    4.4632    0.3811   -2.0138 N   0  0  0  1  0  0  0  0  0  0  0  0
    1.9116    4.4864    2.1090 O   0  0  0  1  0  0  0  0  0  0  0  0
    0.0498   -3.2019   -1.3658 N   0  0  0  1  0  0  0  0  0  0  0  0
    2.8915    4.9812    3.0510 C   0  0  0  1  0  0  0  0  0  0  0  0
   -2.9045   -1.5709    0.0342 N   0  0  0  1  0  0  0  0  0  0  0  0
   -1.7607   -1.5745   -0.8925 C   0  0  0  1  0  0  0  0  0  0  0  0
   -4.6502   -0.0386   -0.5769 C   0  0  0  1  0  0  0  0  0  0  0  0
   -5.4733    1.0117   -0.2175 C   0  0  0  1  0  0  0  0  0  0  0  0
   -5.3835    1.6480    0.9543 N   0  0  0  1  0  0  0  0  0  0  0  0
   -4.4390    1.2303    1.8091 C   0  0  0  1  0  0  0  0  0  0  0  0
   -3.5755    0.1848    1.5324 C   0  0  0  1  0  0  0  0  0  0  0  0
    3.6457   -3.1758   -3.8217 H   0  0  0  1  0  0  0  0  0  0  0  0
    0.9700    1.5535   -1.0406 H   0  0  0  1  0  0  0  0  0  0  0  0
    4.2955    3.2369    2.0600 H   0  0  0  1  0  0  0  0  0  0  0  0
    4.8366    1.3908    0.5883 H   0  0  0  1  0  0  0  0  0  0  0  0
    0.4282    3.4027    0.4336 H   0  0  0  1  0  0  0  0  0  0  0  0
   -0.2304   -2.2997    0.4782 H   0  0  0  1  0  0  0  0  0  0  0  0
   -2.1482   -4.3401   -0.6829 H   0  0  0  1  0  0  0  0  0  0  0  0
   -1.4747   -4.2953    0.9291 H   0  0  0  1  0  0  0  0  0  0  0  0
   -3.1346   -2.8749    1.6959 H   0  0  0  1  0  0  0  0  0  0  0  0
   -4.0163   -3.3664    0.2693 H   0  0  0  1  0  0  0  0  0  0  0  0
   -0.2111   -4.0424   -1.7968 H   0  0  0  1  0  0  0  0  0  0  0  0
    2.4872    5.8186    3.5803 H   0  0  0  1  0  0  0  0  0  0  0  0
    3.7718    5.2842    2.5235 H   0  0  0  1  0  0  0  0  0  0  0  0
    3.1405    4.2067    3.7461 H   0  0  0  1  0  0  0  0  0  0  0  0
   -2.0779   -1.8190   -1.8847 H   0  0  0  1  0  0  0  0  0  0  0  0
   -1.2745   -0.6213   -0.8976 H   0  0  0  1  0  0  0  0  0  0  0  0
   -4.7559   -0.5020   -1.5019 H   0  0  0  1  0  0  0  0  0  0  0  0
   -6.1997    1.3229   -0.8936 H   0  0  0  1  0  0  0  0  0  0  0  0
   -4.3510    1.7154    2.7248 H   0  0  0  1  0  0  0  0  0  0  0  0
   -2.8588   -0.1085    2.2266 H   0  0  0  1  0  0  0  0  0  0  0  0
  1  3  4  0  0  0  0
  1 14  4  0  0  0  0
  1 21  1  0  0  0  0
  2 14  4  0  0  0  0
  2 15  4  0  0  0  0
  2 30  1  0  0  0  0
  3 16  4  0  0  0  0
  4  5  4  0  0  0  0
  4  7  4  0  0  0  0
  4 17  1  0  0  0  0
  5  9  4  0  0  0  0
  5 31  1  0  0  0  0
  6  7  4  0  0  0  0
  6  8  4  0  0  0  0
  6 32  1  0  0  0  0
  7 33  1  0  0  0  0
  8  9  4  0  0  0  0
  8 20  1  0  0  0  0
  9 34  1  0  0  0  0
 10 11  1  0  0  0  0
 10 21  1  0  0  0  0
 10 24  1  0  0  0  0
 10 35  1  0  0  0  0
 11 12  1  0  0  0  0
 11 36  1  0  0  0  0
 11 37  1  0  0  0  0
 12 23  1  0  0  0  0
 12 38  1  0  0  0  0
 12 39  1  0  0  0  0
 13 23  1  0  0  0  0
 13 25  4  0  0  0  0
 13 29  4  0  0  0  0
 15 16  4  0  0  0  0
 15 18  4  0  0  0  0
 16 17  4  0  0  0  0
 17 19  4  0  0  0  0
 18 19  4  0  0  0  0
 20 22  1  0  0  0  0
 21 40  1  0  0  0  0
 22 41  1  0  0  0  0
 22 42  1  0  0  0  0
 22 43  1  0  0  0  0
 23 24  1  0  0  0  0
 24 44  1  0  0  0  0
 24 45  1  0  0  0  0
 25 26  4  0  0  0  0
 25 46  1  0  0  0  0
 26 27  4  0  0  0  0
 26 47  1  0  0  0  0
 27 28  4  0  0  0  0
 28 29  4  0  0  0  0
 28 48  1  0  0  0  0
 29 49  1  0  0  0  0
M  END
> <ConfClashScore>
0 

> <ConfOneFourInteractionScore>
-0.986948 

> <ConfScore>
0.0162183 

> <ConfScorePBest>
0.00371319 

> <ConfTolerance>
0.454262 

> <HETNAM>
     OWQ A 303  OWQ                                                       

> <pdb_OW>
Q_303 -16.5129 3.80749 7.62812 0.15963 1.39178 -0.28144 -3.20151 0 0 0 -1.30514 0 0 0 0 0 0 0 0 -8.31393

$$$$
6yky_lig_1.pdb
 OpenBabel04162415593D

 49 53  0  0  0  0  0  0  0  0999 V2000
    1.2834   -1.2779   -2.7027 C   0  0  0  1  0  0  0  0  0  0  0  0
    3.2848   -2.2217   -3.3453 C   0  0  0  1  0  0  0  0  0  0  0  0
    1.6591   -1.1629   -1.4471 N   0  0  0  1  0  0  0  0  0  0  0  0
    3.1594   -1.2634    1.4537 C   0  0  0  1  0  0  0  0  0  0  0  0
    2.1025   -0.4014    1.6772 C   0  0  0  1  0  0  0  0  0  0  0  0
    3.5889   -1.3516    3.8106 C   0  0  0  1  0  0  0  0  0  0  0  0
    3.9055   -1.7371    2.5216 C   0  0  0  1  0  0  0  0  0  0  0  0
    2.5288   -0.4870    4.0350 C   0  0  0  1  0  0  0  0  0  0  0  0
    1.7851   -0.0148    2.9700 C   0  0  0  1  0  0  0  0  0  0  0  0
   -0.9433   -0.3315   -2.0614 C   0  0  0  1  0  0  0  0  0  0  0  0
   -1.9318   -1.4305   -1.6401 C   0  0  0  1  0  0  0  0  0  0  0  0
   -3.1481   -0.6025   -1.1976 C   0  0  0  1  0  0  0  0  0  0  0  0
   -3.4271    1.9753   -1.1435 C   0  0  0  1  0  0  0  0  0  0  0  0
    2.0693   -1.7923   -3.6323 N   0  0  0  1  0  0  0  0  0  0  0  0
    3.7361   -2.1233   -2.0243 C   0  0  0  1  0  0  0  0  0  0  0  0
    2.8641   -1.5680   -1.0654 C   0  0  0  1  0  0  0  0  0  0  0  0
    3.5435   -1.5908    0.1211 N   0  0  0  1  0  0  0  0  0  0  0  0
    4.8840   -2.4528   -1.3927 N   0  0  0  1  0  0  0  0  0  0  0  0
    4.8008   -2.1544   -0.1430 N   0  0  0  1  0  0  0  0  0  0  0  0
    2.3172   -0.1765    5.3360 O   0  0  0  1  0  0  0  0  0  0  0  0
    0.0537   -0.8457   -3.0040 N   0  0  0  1  0  0  0  0  0  0  0  0
    1.1162    0.5450    5.6515 C   0  0  0  1  0  0  0  0  0  0  0  0
   -2.8592    0.7922   -1.6475 N   0  0  0  1  0  0  0  0  0  0  0  0
   -1.8594    0.6808   -2.7258 C   0  0  0  1  0  0  0  0  0  0  0  0
   -4.5663    2.4663   -1.7540 C   0  0  0  1  0  0  0  0  0  0  0  0
   -5.1354    3.6265   -1.2643 C   0  0  0  1  0  0  0  0  0  0  0  0
   -4.6393    4.3070   -0.2265 N   0  0  0  1  0  0  0  0  0  0  0  0
   -3.5321    3.8220    0.3532 C   0  0  0  1  0  0  0  0  0  0  0  0
   -2.8997    2.6659   -0.0698 C   0  0  0  1  0  0  0  0  0  0  0  0
    3.8939   -2.6247   -4.0857 H   0  0  0  1  0  0  0  0  0  0  0  0
    1.5453   -0.0428    0.8756 H   0  0  0  1  0  0  0  0  0  0  0  0
    4.1460   -1.7102    4.6122 H   0  0  0  1  0  0  0  0  0  0  0  0
    4.7033   -2.3826    2.3530 H   0  0  0  1  0  0  0  0  0  0  0  0
    0.9873    0.6307    3.1386 H   0  0  0  1  0  0  0  0  0  0  0  0
   -0.4477    0.0914   -1.2127 H   0  0  0  1  0  0  0  0  0  0  0  0
   -1.5436   -2.0154   -0.8326 H   0  0  0  1  0  0  0  0  0  0  0  0
   -2.1747   -2.0720   -2.4613 H   0  0  0  1  0  0  0  0  0  0  0  0
   -3.2586   -0.6379   -0.1339 H   0  0  0  1  0  0  0  0  0  0  0  0
   -4.0398   -0.9690   -1.6617 H   0  0  0  1  0  0  0  0  0  0  0  0
   -0.2059   -0.8761   -3.9485 H   0  0  0  1  0  0  0  0  0  0  0  0
    0.2704    0.0186    5.2610 H   0  0  0  1  0  0  0  0  0  0  0  0
    1.1615    1.5208    5.2148 H   0  0  0  1  0  0  0  0  0  0  0  0
    1.0219    0.6330    6.7137 H   0  0  0  1  0  0  0  0  0  0  0  0
   -1.3649    1.6101   -2.9174 H   0  0  0  1  0  0  0  0  0  0  0  0
   -2.2837    0.3080   -3.6346 H   0  0  0  1  0  0  0  0  0  0  0  0
   -4.9870    1.9719   -2.5665 H   0  0  0  1  0  0  0  0  0  0  0  0
   -5.9935    3.9885   -1.7270 H   0  0  0  1  0  0  0  0  0  0  0  0
   -3.1287    4.3396    1.1599 H   0  0  0  1  0  0  0  0  0  0  0  0
   -2.0437    2.3236    0.4115 H   0  0  0  1  0  0  0  0  0  0  0  0
  1  3  4  0  0  0  0
  1 14  4  0  0  0  0
  1 21  1  0  0  0  0
  2 14  4  0  0  0  0
  2 15  4  0  0  0  0
  2 30  1  0  0  0  0
  3 16  4  0  0  0  0
  4  5  4  0  0  0  0
  4  7  4  0  0  0  0
  4 17  1  0  0  0  0
  5  9  4  0  0  0  0
  5 31  1  0  0  0  0
  6  7  4  0  0  0  0
  6  8  4  0  0  0  0
  6 32  1  0  0  0  0
  7 33  1  0  0  0  0
  8  9  4  0  0  0  0
  8 20  1  0  0  0  0
  9 34  1  0  0  0  0
 10 11  1  0  0  0  0
 10 21  1  0  0  0  0
 10 24  1  0  0  0  0
 10 35  1  0  0  0  0
 11 12  1  0  0  0  0
 11 36  1  0  0  0  0
 11 37  1  0  0  0  0
 12 23  1  0  0  0  0
 12 38  1  0  0  0  0
 12 39  1  0  0  0  0
 13 23  1  0  0  0  0
 13 25  4  0  0  0  0
 13 29  4  0  0  0  0
 15 16  4  0  0  0  0
 15 18  4  0  0  0  0
 16 17  4  0  0  0  0
 17 19  4  0  0  0  0
 18 19  4  0  0  0  0
 20 22  1  0  0  0  0
 21 40  1  0  0  0  0
 22 41  1  0  0  0  0
 22 42  1  0  0  0  0
 22 43  1  0  0  0  0
 23 24  1  0  0  0  0
 24 44  1  0  0  0  0
 24 45  1  0  0  0  0
 25 26  4  0  0  0  0
 25 46  1  0  0  0  0
 26 27  4  0  0  0  0
 26 47  1  0  0  0  0
 27 28  4  0  0  0  0
 28 29  4  0  0  0  0
 28 48  1  0  0  0  0
 29 49  1  0  0  0  0
M  END
> <ConfClashScore>
0 

> <ConfOneFourInteractionScore>
-0.986948 

> <ConfScore>
0.0167923 

> <ConfScorePBest>
0.00369986 

> <ConfTolerance>
0.374523 

> <HETNAM>
     OWQ A 303  OWQ                                                       

> <pdb_OW>
Q_303 -16.5129 3.80749 7.62812 0.15963 1.39178 -0.28144 -3.20151 0 0 0 -1.30514 0 0 0 0 0 0 0 0 -8.31393

$$$$
6yky_lig_1.pdb
 OpenBabel04162415593D

 49 53  0  0  0  0  0  0  0  0999 V2000
    0.4364   -2.3619   -1.8279 C   0  0  0  1  0  0  0  0  0  0  0  0
    1.8033   -2.6764   -3.6561 C   0  0  0  1  0  0  0  0  0  0  0  0
    1.1520   -1.3542   -1.3769 N   0  0  0  1  0  0  0  0  0  0  0  0
    3.4145    0.9735   -0.8024 C   0  0  0  1  0  0  0  0  0  0  0  0
    3.4951    0.5471    0.5098 C   0  0  0  1  0  0  0  0  0  0  0  0
    3.6401    3.2481   -0.0794 C   0  0  0  1  0  0  0  0  0  0  0  0
    3.4844    2.3262   -1.0973 C   0  0  0  1  0  0  0  0  0  0  0  0
    3.7210    2.8205    1.2367 C   0  0  0  1  0  0  0  0  0  0  0  0
    3.6513    1.4718    1.5305 C   0  0  0  1  0  0  0  0  0  0  0  0
   -1.0041   -2.0253    0.1377 C   0  0  0  1  0  0  0  0  0  0  0  0
   -1.7993   -2.8458    0.9057 C   0  0  0  1  0  0  0  0  0  0  0  0
   -3.1030   -2.1673    1.2045 C   0  0  0  1  0  0  0  0  0  0  0  0
   -4.0486    0.0324    0.4024 C   0  0  0  1  0  0  0  0  0  0  0  0
    0.7473   -3.0103   -2.9367 N   0  0  0  1  0  0  0  0  0  0  0  0
    2.6004   -1.6110   -3.2223 C   0  0  0  1  0  0  0  0  0  0  0  0
    2.2313   -0.9478   -2.0340 C   0  0  0  1  0  0  0  0  0  0  0  0
    3.1641    0.0338   -1.8438 N   0  0  0  1  0  0  0  0  0  0  0  0
    3.7183   -1.0165   -3.6935 N   0  0  0  1  0  0  0  0  0  0  0  0
    4.0695   -0.0558   -2.9117 N   0  0  0  1  0  0  0  0  0  0  0  0
    3.8684    3.7242    2.2345 O   0  0  0  1  0  0  0  0  0  0  0  0
   -0.6568   -2.7150   -1.0922 N   0  0  0  1  0  0  0  0  0  0  0  0
    3.8359    3.2260    3.5811 C   0  0  0  1  0  0  0  0  0  0  0  0
   -3.0164   -0.9162    0.4700 N   0  0  0  1  0  0  0  0  0  0  0  0
   -1.7103   -0.7677   -0.1945 C   0  0  0  1  0  0  0  0  0  0  0  0
   -4.0505    1.1329    1.2393 C   0  0  0  1  0  0  0  0  0  0  0  0
   -5.0841    2.0444    1.1365 C   0  0  0  1  0  0  0  0  0  0  0  0
   -6.0917    1.9179    0.2676 N   0  0  0  1  0  0  0  0  0  0  0  0
   -6.0795    0.8439   -0.5347 C   0  0  0  1  0  0  0  0  0  0  0  0
   -5.0825   -0.1153   -0.5016 C   0  0  0  1  0  0  0  0  0  0  0  0
    2.0377   -3.1945   -4.5269 H   0  0  0  1  0  0  0  0  0  0  0  0
    3.4386   -0.4675    0.7313 H   0  0  0  1  0  0  0  0  0  0  0  0
    3.6966    4.2627   -0.3009 H   0  0  0  1  0  0  0  0  0  0  0  0
    3.4197    2.6473   -2.0844 H   0  0  0  1  0  0  0  0  0  0  0  0
    3.7160    1.1506    2.5176 H   0  0  0  1  0  0  0  0  0  0  0  0
   -0.1121   -1.7932    0.6812 H   0  0  0  1  0  0  0  0  0  0  0  0
   -1.2967   -3.0669    1.8241 H   0  0  0  1  0  0  0  0  0  0  0  0
   -1.9874   -3.7550    0.3737 H   0  0  0  1  0  0  0  0  0  0  0  0
   -3.2074   -1.9870    2.2541 H   0  0  0  1  0  0  0  0  0  0  0  0
   -3.9273   -2.7559    0.8595 H   0  0  0  1  0  0  0  0  0  0  0  0
   -1.2223   -3.4532   -1.4017 H   0  0  0  1  0  0  0  0  0  0  0  0
    2.9277    2.6828    3.7391 H   0  0  0  1  0  0  0  0  0  0  0  0
    3.8841    4.0467    4.2660 H   0  0  0  1  0  0  0  0  0  0  0  0
    4.6717    2.5775    3.7414 H   0  0  0  1  0  0  0  0  0  0  0  0
   -1.1813    0.0797    0.1886 H   0  0  0  1  0  0  0  0  0  0  0  0
   -1.8301   -0.6655   -1.2529 H   0  0  0  1  0  0  0  0  0  0  0  0
   -3.2884    1.2722    1.9331 H   0  0  0  1  0  0  0  0  0  0  0  0
   -5.0775    2.8710    1.7675 H   0  0  0  1  0  0  0  0  0  0  0  0
   -6.8571    0.7259   -1.2151 H   0  0  0  1  0  0  0  0  0  0  0  0
   -5.1111   -0.9319   -1.1451 H   0  0  0  1  0  0  0  0  0  0  0  0
  1  3  4  0  0  0  0
  1 14  4  0  0  0  0
  1 21  1  0  0  0  0
  2 14  4  0  0  0  0
  2 15  4  0  0  0  0
  2 30  1  0  0  0  0
  3 16  4  0  0  0  0
  4  5  4  0  0  0  0
  4  7  4  0  0  0  0
  4 17  1  0  0  0  0
  5  9  4  0  0  0  0
  5 31  1  0  0  0  0
  6  7  4  0  0  0  0
  6  8  4  0  0  0  0
  6 32  1  0  0  0  0
  7 33  1  0  0  0  0
  8  9  4  0  0  0  0
  8 20  1  0  0  0  0
  9 34  1  0  0  0  0
 10 11  1  0  0  0  0
 10 21  1  0  0  0  0
 10 24  1  0  0  0  0
 10 35  1  0  0  0  0
 11 12  1  0  0  0  0
 11 36  1  0  0  0  0
 11 37  1  0  0  0  0
 12 23  1  0  0  0  0
 12 38  1  0  0  0  0
 12 39  1  0  0  0  0
 13 23  1  0  0  0  0
 13 25  4  0  0  0  0
 13 29  4  0  0  0  0
 15 16  4  0  0  0  0
 15 18  4  0  0  0  0
 16 17  4  0  0  0  0
 17 19  4  0  0  0  0
 18 19  4  0  0  0  0
 20 22  1  0  0  0  0
 21 40  1  0  0  0  0
 22 41  1  0  0  0  0
 22 42  1  0  0  0  0
 22 43  1  0  0  0  0
 23 24  1  0  0  0  0
 24 44  1  0  0  0  0
 24 45  1  0  0  0  0
 25 26  4  0  0  0  0
 25 46  1  0  0  0  0
 26 27  4  0  0  0  0
 26 47  1  0  0  0  0
 27 28  4  0  0  0  0
 28 29  4  0  0  0  0
 28 48  1  0  0  0  0
 29 49  1  0  0  0  0
M  END
> <ConfClashScore>
0 

> <ConfOneFourInteractionScore>
-0.983869 

> <ConfScore>
0.0169674 

> <ConfScorePBest>
0.00368653 

> <ConfTolerance>
0.551199 

> <HETNAM>
     OWQ A 303  OWQ                                                       

> <pdb_OW>
Q_303 -16.5129 3.80749 7.62812 0.15963 1.39178 -0.28144 -3.20151 0 0 0 -1.30514 0 0 0 0 0 0 0 0 -8.31393

$$$$
6yky_lig_1.pdb
 OpenBabel04162415593D

 49 53  0  0  0  0  0  0  0  0999 V2000
   -0.0443   -0.2696   -2.4883 C   0  0  0  1  0  0  0  0  0  0  0  0
   -0.0490   -1.9233   -4.0928 C   0  0  0  1  0  0  0  0  0  0  0  0
    0.5735   -1.0270   -1.6077 N   0  0  0  1  0  0  0  0  0  0  0  0
    2.2159   -3.3671    0.0031 C   0  0  0  1  0  0  0  0  0  0  0  0
    1.4457   -3.2897    1.1480 C   0  0  0  1  0  0  0  0  0  0  0  0
    4.2049   -3.4049    1.3409 C   0  0  0  1  0  0  0  0  0  0  0  0
    3.5976   -3.4221    0.0994 C   0  0  0  1  0  0  0  0  0  0  0  0
    3.4325   -3.3272    2.4894 C   0  0  0  1  0  0  0  0  0  0  0  0
    2.0548   -3.2724    2.3931 C   0  0  0  1  0  0  0  0  0  0  0  0
   -0.0544    1.5884   -0.8617 C   0  0  0  1  0  0  0  0  0  0  0  0
   -0.7187    0.8312    0.2506 C   0  0  0  1  0  0  0  0  0  0  0  0
   -2.1567    1.4200    0.2153 C   0  0  0  1  0  0  0  0  0  0  0  0
   -2.8521    3.7758   -0.1011 C   0  0  0  1  0  0  0  0  0  0  0  0
   -0.3506   -0.6991   -3.7000 N   0  0  0  1  0  0  0  0  0  0  0  0
    0.6090   -2.7723   -3.1957 C   0  0  0  1  0  0  0  0  0  0  0  0
    0.9162   -2.2723   -1.9137 C   0  0  0  1  0  0  0  0  0  0  0  0
    1.5457   -3.2901   -1.2520 N   0  0  0  1  0  0  0  0  0  0  0  0
    1.0556   -4.0459   -3.2571 N   0  0  0  1  0  0  0  0  0  0  0  0
    1.6053   -4.3745   -2.1402 N   0  0  0  1  0  0  0  0  0  0  0  0
    4.1373   -3.3121    3.6456 O   0  0  0  1  0  0  0  0  0  0  0  0
   -0.3768    0.9877   -2.1443 N   0  0  0  1  0  0  0  0  0  0  0  0
    3.4171   -3.0033    4.8492 C   0  0  0  1  0  0  0  0  0  0  0  0
   -1.9126    2.7708   -0.2185 N   0  0  0  1  0  0  0  0  0  0  0  0
   -0.5963    2.9877   -0.7895 C   0  0  0  1  0  0  0  0  0  0  0  0
   -2.6410    5.0053   -0.6971 C   0  0  0  1  0  0  0  0  0  0  0  0
   -3.6457    5.9525   -0.6408 C   0  0  0  1  0  0  0  0  0  0  0  0
   -4.8184    5.7447   -0.0345 N   0  0  0  1  0  0  0  0  0  0  0  0
   -5.0079    4.5497    0.5429 C   0  0  0  1  0  0  0  0  0  0  0  0
   -4.0580    3.5433    0.5310 C   0  0  0  1  0  0  0  0  0  0  0  0
   -0.2954   -2.2497   -5.0491 H   0  0  0  1  0  0  0  0  0  0  0  0
    0.4092   -3.2444    1.0755 H   0  0  0  1  0  0  0  0  0  0  0  0
    5.2413   -3.4502    1.4134 H   0  0  0  1  0  0  0  0  0  0  0  0
    4.1773   -3.4763   -0.7623 H   0  0  0  1  0  0  0  0  0  0  0  0
    1.4751   -3.2182    3.2548 H   0  0  0  1  0  0  0  0  0  0  0  0
    1.0070    1.5931   -0.7262 H   0  0  0  1  0  0  0  0  0  0  0  0
   -0.7232   -0.2213    0.0577 H   0  0  0  1  0  0  0  0  0  0  0  0
   -0.2426    1.0201    1.1900 H   0  0  0  1  0  0  0  0  0  0  0  0
   -2.7760    0.8935   -0.4806 H   0  0  0  1  0  0  0  0  0  0  0  0
   -2.6101    1.3982    1.1843 H   0  0  0  1  0  0  0  0  0  0  0  0
   -0.8655    1.5305   -2.7978 H   0  0  0  1  0  0  0  0  0  0  0  0
    4.0916   -3.0066    5.6798 H   0  0  0  1  0  0  0  0  0  0  0  0
    2.6545   -3.7372    5.0064 H   0  0  0  1  0  0  0  0  0  0  0  0
    2.9687   -2.0361    4.7580 H   0  0  0  1  0  0  0  0  0  0  0  0
    0.0054    3.6055   -0.1561 H   0  0  0  1  0  0  0  0  0  0  0  0
   -0.6621    3.4298   -1.7616 H   0  0  0  1  0  0  0  0  0  0  0  0
   -1.7430    5.2135   -1.1787 H   0  0  0  1  0  0  0  0  0  0  0  0
   -3.4807    6.8742   -1.0935 H   0  0  0  1  0  0  0  0  0  0  0  0
   -5.9128    4.3702    1.0232 H   0  0  0  1  0  0  0  0  0  0  0  0
   -4.2485    2.6294    0.9893 H   0  0  0  1  0  0  0  0  0  0  0  0
  1  3  4  0  0  0  0
  1 14  4  0  0  0  0
  1 21  1  0  0  0  0
  2 14  4  0  0  0  0
  2 15  4  0  0  0  0
  2 30  1  0  0  0  0
  3 16  4  0  0  0  0
  4  5  4  0  0  0  0
  4  7  4  0  0  0  0
  4 17  1  0  0  0  0
  5  9  4  0  0  0  0
  5 31  1  0  0  0  0
  6  7  4  0  0  0  0
  6  8  4  0  0  0  0
  6 32  1  0  0  0  0
  7 33  1  0  0  0  0
  8  9  4  0  0  0  0
  8 20  1  0  0  0  0
  9 34  1  0  0  0  0
 10 11  1  0  0  0  0
 10 21  1  0  0  0  0
 10 24  1  0  0  0  0
 10 35  1  0  0  0  0
 11 12  1  0  0  0  0
 11 36  1  0  0  0  0
 11 37  1  0  0  0  0
 12 23  1  0  0  0  0
 12 38  1  0  0  0  0
 12 39  1  0  0  0  0
 13 23  1  0  0  0  0
 13 25  4  0  0  0  0
 13 29  4  0  0  0  0
 15 16  4  0  0  0  0
 15 18  4  0  0  0  0
 16 17  4  0  0  0  0
 17 19  4  0  0  0  0
 18 19  4  0  0  0  0
 20 22  1  0  0  0  0
 21 40  1  0  0  0  0
 22 41  1  0  0  0  0
 22 42  1  0  0  0  0
 22 43  1  0  0  0  0
 23 24  1  0  0  0  0
 24 44  1  0  0  0  0
 24 45  1  0  0  0  0
 25 26  4  0  0  0  0
 25 46  1  0  0  0  0
 26 27  4  0  0  0  0
 26 47  1  0  0  0  0
 27 28  4  0  0  0  0
 28 29  4  0  0  0  0
 28 48  1  0  0  0  0
 29 49  1  0  0  0  0
M  END
> <ConfClashScore>
0 

> <ConfOneFourInteractionScore>
-0.984874 

> <ConfScore>
0.0178809 

> <ConfScorePBest>
0.0036732 

> <ConfTolerance>
0.614965 

> <HETNAM>
     OWQ A 303  OWQ                                                       

> <pdb_OW>
Q_303 -16.5129 3.80749 7.62812 0.15963 1.39178 -0.28144 -3.20151 0 0 0 -1.30514 0 0 0 0 0 0 0 0 -8.31393

$$$$
6yky_lig_1.pdb
 OpenBabel04162415593D

 49 53  0  0  0  0  0  0  0  0999 V2000
    0.6723   -0.1604    0.9516 C   0  0  0  1  0  0  0  0  0  0  0  0
    2.4149    0.1198    2.4330 C   0  0  0  1  0  0  0  0  0  0  0  0
    1.4574   -0.6320    0.0071 N   0  0  0  1  0  0  0  0  0  0  0  0
    3.9731   -1.6185   -1.8811 C   0  0  0  1  0  0  0  0  0  0  0  0
    4.2413   -0.6506   -2.8304 C   0  0  0  1  0  0  0  0  0  0  0  0
    3.8407   -3.2775   -3.6067 C   0  0  0  1  0  0  0  0  0  0  0  0
    3.7699   -2.9334   -2.2699 C   0  0  0  1  0  0  0  0  0  0  0  0
    4.1097   -2.3067   -4.5590 C   0  0  0  1  0  0  0  0  0  0  0  0
    4.3123   -0.9957   -4.1711 C   0  0  0  1  0  0  0  0  0  0  0  0
   -1.5714    0.5041    1.7225 C   0  0  0  1  0  0  0  0  0  0  0  0
   -2.6201   -0.5393    2.1975 C   0  0  0  1  0  0  0  0  0  0  0  0
   -3.8649    0.2381    2.6740 C   0  0  0  1  0  0  0  0  0  0  0  0
   -4.4868    2.7355    2.3395 C   0  0  0  1  0  0  0  0  0  0  0  0
    1.1313    0.2076    2.1350 N   0  0  0  1  0  0  0  0  0  0  0  0
    3.2956   -0.3754    1.4647 C   0  0  0  1  0  0  0  0  0  0  0  0
    2.7623   -0.7560    0.2162 C   0  0  0  1  0  0  0  0  0  0  0  0
    3.8214   -1.1955   -0.5289 N   0  0  0  1  0  0  0  0  0  0  0  0
    4.6280   -0.5952    1.4258 N   0  0  0  1  0  0  0  0  0  0  0  0
    4.9626   -1.0724    0.2777 N   0  0  0  1  0  0  0  0  0  0  0  0
    4.1739   -2.6429   -5.8693 O   0  0  0  1  0  0  0  0  0  0  0  0
   -0.6822   -0.0451    0.6984 N   0  0  0  1  0  0  0  0  0  0  0  0
    4.1039   -4.0404   -6.1923 C   0  0  0  1  0  0  0  0  0  0  0  0
   -3.6651    1.5838    2.0654 N   0  0  0  1  0  0  0  0  0  0  0  0
   -2.5150    1.5777    1.1466 C   0  0  0  1  0  0  0  0  0  0  0  0
   -4.1104    3.6594    3.2967 C   0  0  0  1  0  0  0  0  0  0  0  0
   -4.9711    4.6997    3.5910 C   0  0  0  1  0  0  0  0  0  0  0  0
   -6.1581    4.8614    2.9986 N   0  0  0  1  0  0  0  0  0  0  0  0
   -6.5122    3.9559    2.0756 C   0  0  0  1  0  0  0  0  0  0  0  0
   -5.7107    2.8861    1.7172 C   0  0  0  1  0  0  0  0  0  0  0  0
    2.7639    0.4126    3.3679 H   0  0  0  1  0  0  0  0  0  0  0  0
    4.3898    0.3367   -2.5390 H   0  0  0  1  0  0  0  0  0  0  0  0
    3.6922   -4.2647   -3.8981 H   0  0  0  1  0  0  0  0  0  0  0  0
    3.5641   -3.6610   -1.5559 H   0  0  0  1  0  0  0  0  0  0  0  0
    4.5180   -0.2681   -4.8851 H   0  0  0  1  0  0  0  0  0  0  0  0
   -0.9884    0.8817    2.5364 H   0  0  0  1  0  0  0  0  0  0  0  0
   -2.2202   -1.1179    3.0038 H   0  0  0  1  0  0  0  0  0  0  0  0
   -2.8824   -1.1880    1.3881 H   0  0  0  1  0  0  0  0  0  0  0  0
   -3.8962    0.2988    3.7418 H   0  0  0  1  0  0  0  0  0  0  0  0
   -4.7644   -0.2173    2.3156 H   0  0  0  1  0  0  0  0  0  0  0  0
   -1.0461   -0.3307   -0.1655 H   0  0  0  1  0  0  0  0  0  0  0  0
    4.9560   -4.5441   -5.7858 H   0  0  0  1  0  0  0  0  0  0  0  0
    4.0927   -4.1603   -7.2555 H   0  0  0  1  0  0  0  0  0  0  0  0
    3.2110   -4.4582   -5.7763 H   0  0  0  1  0  0  0  0  0  0  0  0
   -2.8235    1.3184    0.1554 H   0  0  0  1  0  0  0  0  0  0  0  0
   -2.0363    2.5346    1.1328 H   0  0  0  1  0  0  0  0  0  0  0  0
   -3.1968    3.5731    3.7860 H   0  0  0  1  0  0  0  0  0  0  0  0
   -4.6802    5.3923    4.3103 H   0  0  0  1  0  0  0  0  0  0  0  0
   -7.4341    4.0625    1.6061 H   0  0  0  1  0  0  0  0  0  0  0  0
   -6.0239    2.2085    0.9931 H   0  0  0  1  0  0  0  0  0  0  0  0
  1  3  4  0  0  0  0
  1 14  4  0  0  0  0
  1 21  1  0  0  0  0
  2 14  4  0  0  0  0
  2 15  4  0  0  0  0
  2 30  1  0  0  0  0
  3 16  4  0  0  0  0
  4  5  4  0  0  0  0
  4  7  4  0  0  0  0
  4 17  1  0  0  0  0
  5  9  4  0  0  0  0
  5 31  1  0  0  0  0
  6  7  4  0  0  0  0
  6  8  4  0  0  0  0
  6 32  1  0  0  0  0
  7 33  1  0  0  0  0
  8  9  4  0  0  0  0
  8 20  1  0  0  0  0
  9 34  1  0  0  0  0
 10 11  1  0  0  0  0
 10 21  1  0  0  0  0
 10 24  1  0  0  0  0
 10 35  1  0  0  0  0
 11 12  1  0  0  0  0
 11 36  1  0  0  0  0
 11 37  1  0  0  0  0
 12 23  1  0  0  0  0
 12 38  1  0  0  0  0
 12 39  1  0  0  0  0
 13 23  1  0  0  0  0
 13 25  4  0  0  0  0
 13 29  4  0  0  0  0
 15 16  4  0  0  0  0
 15 18  4  0  0  0  0
 16 17  4  0  0  0  0
 17 19  4  0  0  0  0
 18 19  4  0  0  0  0
 20 22  1  0  0  0  0
 21 40  1  0  0  0  0
 22 41  1  0  0  0  0
 22 42  1  0  0  0  0
 22 43  1  0  0  0  0
 23 24  1  0  0  0  0
 24 44  1  0  0  0  0
 24 45  1  0  0  0  0
 25 26  4  0  0  0  0
 25 46  1  0  0  0  0
 26 27  4  0  0  0  0
 26 47  1  0  0  0  0
 27 28  4  0  0  0  0
 28 29  4  0  0  0  0
 28 48  1  0  0  0  0
 29 49  1  0  0  0  0
M  END
> <ConfClashScore>
0 

> <ConfOneFourInteractionScore>
-0.991755 

> <ConfScore>
0.0192231 

> <ConfScorePBest>
0.00365987 

> <ConfTolerance>
0.376708 

> <HETNAM>
     OWQ A 303  OWQ                                                       

> <pdb_OW>
Q_303 -16.5129 3.80749 7.62812 0.15963 1.39178 -0.28144 -3.20151 0 0 0 -1.30514 0 0 0 0 0 0 0 0 -8.31393

$$$$
6yky_lig_1.pdb
 OpenBabel04162415593D

 49 53  0  0  0  0  0  0  0  0999 V2000
   -0.6767   -1.2748   -1.7981 C   0  0  0  1  0  0  0  0  0  0  0  0
   -0.0611   -2.4305   -3.6941 C   0  0  0  1  0  0  0  0  0  0  0  0
    0.5619   -1.1865   -1.3636 N   0  0  0  1  0  0  0  0  0  0  0  0
    3.7803   -1.4665   -0.8164 C   0  0  0  1  0  0  0  0  0  0  0  0
    3.8481   -2.2942    0.2884 C   0  0  0  1  0  0  0  0  0  0  0  0
    5.2552    0.0896    0.2562 C   0  0  0  1  0  0  0  0  0  0  0  0
    4.4828   -0.2716   -0.8315 C   0  0  0  1  0  0  0  0  0  0  0  0
    5.3233   -0.7405    1.3643 C   0  0  0  1  0  0  0  0  0  0  0  0
    4.6228   -1.9319    1.3792 C   0  0  0  1  0  0  0  0  0  0  0  0
   -1.4539   -0.1344    0.2155 C   0  0  0  1  0  0  0  0  0  0  0  0
   -2.1848   -0.8762    1.3290 C   0  0  0  1  0  0  0  0  0  0  0  0
   -3.6137   -0.3205    1.2715 C   0  0  0  1  0  0  0  0  0  0  0  0
   -4.4612    1.9719    0.5668 C   0  0  0  1  0  0  0  0  0  0  0  0
   -0.9876   -1.8789   -2.9316 N   0  0  0  1  0  0  0  0  0  0  0  0
    1.2741   -2.3659   -3.2797 C   0  0  0  1  0  0  0  0  0  0  0  0
    1.5598   -1.7118   -2.0637 C   0  0  0  1  0  0  0  0  0  0  0  0
    2.9151   -1.7930   -1.9004 N   0  0  0  1  0  0  0  0  0  0  0  0
    2.4433   -2.8074   -3.7925 N   0  0  0  1  0  0  0  0  0  0  0  0
    3.4157   -2.4884   -3.0113 N   0  0  0  1  0  0  0  0  0  0  0  0
    6.0380   -0.4916    2.4834 O   0  0  0  1  0  0  0  0  0  0  0  0
   -1.7369   -0.7374   -1.0909 N   0  0  0  1  0  0  0  0  0  0  0  0
    6.5382    0.8331    2.7229 C   0  0  0  1  0  0  0  0  0  0  0  0
   -3.4242    1.0274    0.7057 N   0  0  0  1  0  0  0  0  0  0  0  0
   -2.0246    1.2776    0.3003 C   0  0  0  1  0  0  0  0  0  0  0  0
   -5.2324    1.9334   -0.5801 C   0  0  0  1  0  0  0  0  0  0  0  0
   -6.2543    2.8522   -0.7251 C   0  0  0  1  0  0  0  0  0  0  0  0
   -6.5386    3.7854    0.1885 N   0  0  0  1  0  0  0  0  0  0  0  0
   -5.7801    3.8140    1.2936 C   0  0  0  1  0  0  0  0  0  0  0  0
   -4.7399    2.9302    1.5217 C   0  0  0  1  0  0  0  0  0  0  0  0
   -0.3183   -2.9032   -4.5841 H   0  0  0  1  0  0  0  0  0  0  0  0
    3.3178   -3.1888    0.3013 H   0  0  0  1  0  0  0  0  0  0  0  0
    5.7855    0.9842    0.2433 H   0  0  0  1  0  0  0  0  0  0  0  0
    4.4286    0.3531   -1.6613 H   0  0  0  1  0  0  0  0  0  0  0  0
    4.6770   -2.5566    2.2089 H   0  0  0  1  0  0  0  0  0  0  0  0
   -0.3976   -0.1315    0.3863 H   0  0  0  1  0  0  0  0  0  0  0  0
   -2.1798   -1.9311    1.1497 H   0  0  0  1  0  0  0  0  0  0  0  0
   -1.7361   -0.6733    2.2789 H   0  0  0  1  0  0  0  0  0  0  0  0
   -4.0458   -0.2696    2.2490 H   0  0  0  1  0  0  0  0  0  0  0  0
   -4.2337   -0.9195    0.6377 H   0  0  0  1  0  0  0  0  0  0  0  0
   -2.6480   -0.7590   -1.4513 H   0  0  0  1  0  0  0  0  0  0  0  0
    7.0751    1.1733    1.8621 H   0  0  0  1  0  0  0  0  0  0  0  0
    7.1932    0.8192    3.5690 H   0  0  0  1  0  0  0  0  0  0  0  0
    5.7191    1.4938    2.9162 H   0  0  0  1  0  0  0  0  0  0  0  0
   -1.5074    1.8612    1.0331 H   0  0  0  1  0  0  0  0  0  0  0  0
   -1.9782    1.7718   -0.6475 H   0  0  0  1  0  0  0  0  0  0  0  0
   -5.0468    1.2263   -1.3198 H   0  0  0  1  0  0  0  0  0  0  0  0
   -6.8318    2.8157   -1.5892 H   0  0  0  1  0  0  0  0  0  0  0  0
   -5.9834    4.5355    2.0145 H   0  0  0  1  0  0  0  0  0  0  0  0
   -4.1787    2.9864    2.3955 H   0  0  0  1  0  0  0  0  0  0  0  0
  1  3  4  0  0  0  0
  1 14  4  0  0  0  0
  1 21  1  0  0  0  0
  2 14  4  0  0  0  0
  2 15  4  0  0  0  0
  2 30  1  0  0  0  0
  3 16  4  0  0  0  0
  4  5  4  0  0  0  0
  4  7  4  0  0  0  0
  4 17  1  0  0  0  0
  5  9  4  0  0  0  0
  5 31  1  0  0  0  0
  6  7  4  0  0  0  0
  6  8  4  0  0  0  0
  6 32  1  0  0  0  0
  7 33  1  0  0  0  0
  8  9  4  0  0  0  0
  8 20  1  0  0  0  0
  9 34  1  0  0  0  0
 10 11  1  0  0  0  0
 10 21  1  0  0  0  0
 10 24  1  0  0  0  0
 10 35  1  0  0  0  0
 11 12  1  0  0  0  0
 11 36  1  0  0  0  0
 11 37  1  0  0  0  0
 12 23  1  0  0  0  0
 12 38  1  0  0  0  0
 12 39  1  0  0  0  0
 13 23  1  0  0  0  0
 13 25  4  0  0  0  0
 13 29  4  0  0  0  0
 15 16  4  0  0  0  0
 15 18  4  0  0  0  0
 16 17  4  0  0  0  0
 17 19  4  0  0  0  0
 18 19  4  0  0  0  0
 20 22  1  0  0  0  0
 21 40  1  0  0  0  0
 22 41  1  0  0  0  0
 22 42  1  0  0  0  0
 22 43  1  0  0  0  0
 23 24  1  0  0  0  0
 24 44  1  0  0  0  0
 24 45  1  0  0  0  0
 25 26  4  0  0  0  0
 25 46  1  0  0  0  0
 26 27  4  0  0  0  0
 26 47  1  0  0  0  0
 27 28  4  0  0  0  0
 28 29  4  0  0  0  0
 28 48  1  0  0  0  0
 29 49  1  0  0  0  0
M  END
> <ConfClashScore>
0 

> <ConfOneFourInteractionScore>
-0.986948 

> <ConfScore>
0.0194471 

> <ConfScorePBest>
0.00364655 

> <ConfTolerance>
0.602141 

> <HETNAM>
     OWQ A 303  OWQ                                                       

> <pdb_OW>
Q_303 -16.5129 3.80749 7.62812 0.15963 1.39178 -0.28144 -3.20151 0 0 0 -1.30514 0 0 0 0 0 0 0 0 -8.31393

$$$$
6yky_lig_1.pdb
 OpenBabel04162415593D

 49 53  0  0  0  0  0  0  0  0999 V2000
    0.1629   -1.3802   -2.2514 C   0  0  0  1  0  0  0  0  0  0  0  0
    1.7352   -2.0698   -3.7882 C   0  0  0  1  0  0  0  0  0  0  0  0
    1.0728   -1.0708   -1.3530 N   0  0  0  1  0  0  0  0  0  0  0  0
    3.8192   -0.5272    0.3756 C   0  0  0  1  0  0  0  0  0  0  0  0
    5.1487   -0.4344    0.7414 C   0  0  0  1  0  0  0  0  0  0  0  0
    3.1633    0.1691    2.5738 C   0  0  0  1  0  0  0  0  0  0  0  0
    2.8249   -0.2276    1.2938 C   0  0  0  1  0  0  0  0  0  0  0  0
    4.4968    0.2623    2.9409 C   0  0  0  1  0  0  0  0  0  0  0  0
    5.4880   -0.0365    2.0252 C   0  0  0  1  0  0  0  0  0  0  0  0
   -1.8067   -0.6730   -0.7578 C   0  0  0  1  0  0  0  0  0  0  0  0
   -2.8212   -1.6948   -0.1979 C   0  0  0  1  0  0  0  0  0  0  0  0
   -4.0501   -0.9297    0.2244 C   0  0  0  1  0  0  0  0  0  0  0  0
   -4.7297    1.4369   -0.4563 C   0  0  0  1  0  0  0  0  0  0  0  0
    0.4778   -1.8670   -3.4390 N   0  0  0  1  0  0  0  0  0  0  0  0
    2.7446   -1.7577   -2.8705 C   0  0  0  1  0  0  0  0  0  0  0  0
    2.3628   -1.2408   -1.6154 C   0  0  0  1  0  0  0  0  0  0  0  0
    3.5241   -1.0274   -0.9256 N   0  0  0  1  0  0  0  0  0  0  0  0
    4.0932   -1.8347   -2.8893 N   0  0  0  1  0  0  0  0  0  0  0  0
    4.5742   -1.4164   -1.7707 N   0  0  0  1  0  0  0  0  0  0  0  0
    4.8229    0.5534    4.2227 O   0  0  0  1  0  0  0  0  0  0  0  0
   -1.1354   -1.1950   -1.9517 N   0  0  0  1  0  0  0  0  0  0  0  0
    6.2173    0.5335    4.5657 C   0  0  0  1  0  0  0  0  0  0  0  0
   -3.8181    0.4240   -0.4817 N   0  0  0  1  0  0  0  0  0  0  0  0
   -2.6842    0.5150   -1.0997 C   0  0  0  1  0  0  0  0  0  0  0  0
   -5.9099    1.3710    0.2608 C   0  0  0  1  0  0  0  0  0  0  0  0
   -6.7695    2.4525    0.2270 C   0  0  0  1  0  0  0  0  0  0  0  0
   -6.5221    3.5664   -0.4689 N   0  0  0  1  0  0  0  0  0  0  0  0
   -5.3762    3.6149   -1.1631 C   0  0  0  1  0  0  0  0  0  0  0  0
   -4.4575    2.5801   -1.1822 C   0  0  0  1  0  0  0  0  0  0  0  0
    1.9704   -2.4534   -4.7258 H   0  0  0  1  0  0  0  0  0  0  0  0
    5.8946   -0.6630    0.0537 H   0  0  0  1  0  0  0  0  0  0  0  0
    2.4175    0.3978    3.2616 H   0  0  0  1  0  0  0  0  0  0  0  0
    1.8244   -0.3013    1.0196 H   0  0  0  1  0  0  0  0  0  0  0  0
    6.4885    0.0373    2.2993 H   0  0  0  1  0  0  0  0  0  0  0  0
   -1.0751   -0.4128   -0.0216 H   0  0  0  1  0  0  0  0  0  0  0  0
   -3.0768   -2.4074   -0.9540 H   0  0  0  1  0  0  0  0  0  0  0  0
   -2.4003   -2.2031    0.6444 H   0  0  0  1  0  0  0  0  0  0  0  0
   -4.0944   -0.8149    1.2873 H   0  0  0  1  0  0  0  0  0  0  0  0
   -4.9450   -1.4038   -0.1212 H   0  0  0  1  0  0  0  0  0  0  0  0
   -1.7494   -1.4594   -2.6682 H   0  0  0  1  0  0  0  0  0  0  0  0
    6.3423    0.8737    5.5725 H   0  0  0  1  0  0  0  0  0  0  0  0
    6.7567    1.1769    3.9025 H   0  0  0  1  0  0  0  0  0  0  0  0
    6.5917   -0.4650    4.4778 H   0  0  0  1  0  0  0  0  0  0  0  0
   -2.8575    0.5344   -2.1554 H   0  0  0  1  0  0  0  0  0  0  0  0
   -2.1907    1.4165   -0.8022 H   0  0  0  1  0  0  0  0  0  0  0  0
   -6.1463    0.5235    0.8153 H   0  0  0  1  0  0  0  0  0  0  0  0
   -7.6542    2.3968    0.7709 H   0  0  0  1  0  0  0  0  0  0  0  0
   -5.1675    4.4719   -1.7141 H   0  0  0  1  0  0  0  0  0  0  0  0
   -3.5788    2.6616   -1.7326 H   0  0  0  1  0  0  0  0  0  0  0  0
  1  3  4  0  0  0  0
  1 14  4  0  0  0  0
  1 21  1  0  0  0  0
  2 14  4  0  0  0  0
  2 15  4  0  0  0  0
  2 30  1  0  0  0  0
  3 16  4  0  0  0  0
  4  5  4  0  0  0  0
  4  7  4  0  0  0  0
  4 17  1  0  0  0  0
  5  9  4  0  0  0  0
  5 31  1  0  0  0  0
  6  7  4  0  0  0  0
  6  8  4  0  0  0  0
  6 32  1  0  0  0  0
  7 33  1  0  0  0  0
  8  9  4  0  0  0  0
  8 20  1  0  0  0  0
  9 34  1  0  0  0  0
 10 11  1  0  0  0  0
 10 21  1  0  0  0  0
 10 24  1  0  0  0  0
 10 35  1  0  0  0  0
 11 12  1  0  0  0  0
 11 36  1  0  0  0  0
 11 37  1  0  0  0  0
 12 23  1  0  0  0  0
 12 38  1  0  0  0  0
 12 39  1  0  0  0  0
 13 23  1  0  0  0  0
 13 25  4  0  0  0  0
 13 29  4  0  0  0  0
 15 16  4  0  0  0  0
 15 18  4  0  0  0  0
 16 17  4  0  0  0  0
 17 19  4  0  0  0  0
 18 19  4  0  0  0  0
 20 22  1  0  0  0  0
 21 40  1  0  0  0  0
 22 41  1  0  0  0  0
 22 42  1  0  0  0  0
 22 43  1  0  0  0  0
 23 24  1  0  0  0  0
 24 44  1  0  0  0  0
 24 45  1  0  0  0  0
 25 26  4  0  0  0  0
 25 46  1  0  0  0  0
 26 27  4  0  0  0  0
 26 47  1  0  0  0  0
 27 28  4  0  0  0  0
 28 29  4  0  0  0  0
 28 48  1  0  0  0  0
 29 49  1  0  0  0  0
M  END
> <ConfClashScore>
0 

> <ConfOneFourInteractionScore>
-0.986948 

> <ConfScore>
0.020056 

> <ConfScorePBest>
0.00363322 

> <ConfTolerance>
0.600868 

> <HETNAM>
     OWQ A 303  OWQ                                                       

> <pdb_OW>
Q_303 -16.5129 3.80749 7.62812 0.15963 1.39178 -0.28144 -3.20151 0 0 0 -1.30514 0 0 0 0 0 0 0 0 -8.31393

$$$$
6yky_lig_1.pdb
 OpenBabel04162415593D

 49 53  0  0  0  0  0  0  0  0999 V2000
    0.6499   -2.2791   -1.8930 C   0  0  0  1  0  0  0  0  0  0  0  0
    2.3501   -2.9907   -3.2757 C   0  0  0  1  0  0  0  0  0  0  0  0
    1.4461   -1.4939   -1.1998 N   0  0  0  1  0  0  0  0  0  0  0  0
    3.9061    0.2126    0.0806 C   0  0  0  1  0  0  0  0  0  0  0  0
    2.7953    0.9785    0.3801 C   0  0  0  1  0  0  0  0  0  0  0  0
    5.1724    1.3976    1.7358 C   0  0  0  1  0  0  0  0  0  0  0  0
    5.0972    0.4242    0.7575 C   0  0  0  1  0  0  0  0  0  0  0  0
    4.0583    2.1659    2.0363 C   0  0  0  1  0  0  0  0  0  0  0  0
    2.8709    1.9548    1.3613 C   0  0  0  1  0  0  0  0  0  0  0  0
   -1.2661   -1.7572   -0.3715 C   0  0  0  1  0  0  0  0  0  0  0  0
   -2.2514   -2.7502    0.2842 C   0  0  0  1  0  0  0  0  0  0  0  0
   -3.4649   -1.9667    0.7171 C   0  0  0  1  0  0  0  0  0  0  0  0
   -4.2147    0.3934   -0.0582 C   0  0  0  1  0  0  0  0  0  0  0  0
    1.0828   -3.0107   -2.9048 N   0  0  0  1  0  0  0  0  0  0  0  0
    3.2417   -2.1725   -2.5727 C   0  0  0  1  0  0  0  0  0  0  0  0
    2.7363   -1.4093   -1.5003 C   0  0  0  1  0  0  0  0  0  0  0  0
    3.8005   -0.7135   -0.9971 N   0  0  0  1  0  0  0  0  0  0  0  0
    4.5638   -1.9134   -2.6733 N   0  0  0  1  0  0  0  0  0  0  0  0
    4.9172   -1.0677   -1.7691 N   0  0  0  1  0  0  0  0  0  0  0  0
    4.1207    3.2004    2.9080 O   0  0  0  1  0  0  0  0  0  0  0  0
   -0.6436   -2.3399   -1.5630 N   0  0  0  1  0  0  0  0  0  0  0  0
    2.9447    4.0130    3.0472 C   0  0  0  1  0  0  0  0  0  0  0  0
   -3.2691   -0.6519   -0.0689 N   0  0  0  1  0  0  0  0  0  0  0  0
   -2.1627   -0.5911   -0.7384 C   0  0  0  1  0  0  0  0  0  0  0  0
   -4.2421    1.2402    1.0344 C   0  0  0  1  0  0  0  0  0  0  0  0
   -5.1625    2.2708    1.0537 C   0  0  0  1  0  0  0  0  0  0  0  0
   -6.0367    2.4939    0.0676 N   0  0  0  1  0  0  0  0  0  0  0  0
   -6.0019    1.6626   -0.9836 C   0  0  0  1  0  0  0  0  0  0  0  0
   -5.1114    0.6082   -1.0866 C   0  0  0  1  0  0  0  0  0  0  0  0
    2.6788   -3.5710   -4.0738 H   0  0  0  1  0  0  0  0  0  0  0  0
    1.9029    0.8224   -0.1306 H   0  0  0  1  0  0  0  0  0  0  0  0
    6.0648    1.5537    2.2464 H   0  0  0  1  0  0  0  0  0  0  0  0
    5.9341   -0.1495    0.5292 H   0  0  0  1  0  0  0  0  0  0  0  0
    2.0340    2.5284    1.5895 H   0  0  0  1  0  0  0  0  0  0  0  0
   -0.5053   -1.4566    0.3182 H   0  0  0  1  0  0  0  0  0  0  0  0
   -1.7930   -3.2121    1.1335 H   0  0  0  1  0  0  0  0  0  0  0  0
   -2.5353   -3.5025   -0.4217 H   0  0  0  1  0  0  0  0  0  0  0  0
   -3.4648   -1.7958    1.7733 H   0  0  0  1  0  0  0  0  0  0  0  0
   -4.3713   -2.4606    0.4353 H   0  0  0  1  0  0  0  0  0  0  0  0
   -1.2341   -2.8220   -2.1788 H   0  0  0  1  0  0  0  0  0  0  0  0
    2.0774    3.3865    3.0619 H   0  0  0  1  0  0  0  0  0  0  0  0
    2.8804    4.6912    2.2221 H   0  0  0  1  0  0  0  0  0  0  0  0
    3.0001    4.5665    3.9611 H   0  0  0  1  0  0  0  0  0  0  0  0
   -1.6612    0.3261   -0.5101 H   0  0  0  1  0  0  0  0  0  0  0  0
   -2.3805   -0.6281   -1.7853 H   0  0  0  1  0  0  0  0  0  0  0  0
   -3.5825    1.1041    1.8268 H   0  0  0  1  0  0  0  0  0  0  0  0
   -5.1756    2.9052    1.8776 H   0  0  0  1  0  0  0  0  0  0  0  0
   -6.6769    1.8176   -1.7594 H   0  0  0  1  0  0  0  0  0  0  0  0
   -5.1173   -0.0107   -1.9224 H   0  0  0  1  0  0  0  0  0  0  0  0
  1  3  4  0  0  0  0
  1 14  4  0  0  0  0
  1 21  1  0  0  0  0
  2 14  4  0  0  0  0
  2 15  4  0  0  0  0
  2 30  1  0  0  0  0
  3 16  4  0  0  0  0
  4  5  4  0  0  0  0
  4  7  4  0  0  0  0
  4 17  1  0  0  0  0
  5  9  4  0  0  0  0
  5 31  1  0  0  0  0
  6  7  4  0  0  0  0
  6  8  4  0  0  0  0
  6 32  1  0  0  0  0
  7 33  1  0  0  0  0
  8  9  4  0  0  0  0
  8 20  1  0  0  0  0
  9 34  1  0  0  0  0
 10 11  1  0  0  0  0
 10 21  1  0  0  0  0
 10 24  1  0  0  0  0
 10 35  1  0  0  0  0
 11 12  1  0  0  0  0
 11 36  1  0  0  0  0
 11 37  1  0  0  0  0
 12 23  1  0  0  0  0
 12 38  1  0  0  0  0
 12 39  1  0  0  0  0
 13 23  1  0  0  0  0
 13 25  4  0  0  0  0
 13 29  4  0  0  0  0
 15 16  4  0  0  0  0
 15 18  4  0  0  0  0
 16 17  4  0  0  0  0
 17 19  4  0  0  0  0
 18 19  4  0  0  0  0
 20 22  1  0  0  0  0
 21 40  1  0  0  0  0
 22 41  1  0  0  0  0
 22 42  1  0  0  0  0
 22 43  1  0  0  0  0
 23 24  1  0  0  0  0
 24 44  1  0  0  0  0
 24 45  1  0  0  0  0
 25 26  4  0  0  0  0
 25 46  1  0  0  0  0
 26 27  4  0  0  0  0
 26 47  1  0  0  0  0
 27 28  4  0  0  0  0
 28 29  4  0  0  0  0
 28 48  1  0  0  0  0
 29 49  1  0  0  0  0
M  END
> <ConfClashScore>
0 

> <ConfOneFourInteractionScore>
-0.986948 

> <ConfScore>
0.0211977 

> <ConfScorePBest>
0.00361989 

> <ConfTolerance>
0.505576 

> <HETNAM>
     OWQ A 303  OWQ                                                       

> <pdb_OW>
Q_303 -16.5129 3.80749 7.62812 0.15963 1.39178 -0.28144 -3.20151 0 0 0 -1.30514 0 0 0 0 0 0 0 0 -8.31393

$$$$
6yky_lig_1.pdb
 OpenBabel04162415593D

 49 53  0  0  0  0  0  0  0  0999 V2000
    1.9149   -0.3078   -2.5778 C   0  0  0  1  0  0  0  0  0  0  0  0
    3.3243   -1.9680   -3.3308 C   0  0  0  1  0  0  0  0  0  0  0  0
    1.7680   -0.8696   -1.3972 N   0  0  0  1  0  0  0  0  0  0  0  0
    1.8321   -2.7440    1.2647 C   0  0  0  1  0  0  0  0  0  0  0  0
    2.3842   -3.4135    2.3403 C   0  0  0  1  0  0  0  0  0  0  0  0
   -0.0103   -2.0561    2.6357 C   0  0  0  1  0  0  0  0  0  0  0  0
    0.6317   -2.0665    1.4118 C   0  0  0  1  0  0  0  0  0  0  0  0
    0.5434   -2.7276    3.7147 C   0  0  0  1  0  0  0  0  0  0  0  0
    1.7403   -3.4030    3.5677 C   0  0  0  1  0  0  0  0  0  0  0  0
    0.3834    1.4307   -1.7346 C   0  0  0  1  0  0  0  0  0  0  0  0
   -0.6414    0.4083   -1.2671 C   0  0  0  1  0  0  0  0  0  0  0  0
   -1.7591    1.2535   -0.6528 C   0  0  0  1  0  0  0  0  0  0  0  0
   -2.5502    3.5763   -1.2429 C   0  0  0  1  0  0  0  0  0  0  0  0
    2.6709   -0.8367   -3.5240 N   0  0  0  1  0  0  0  0  0  0  0  0
    3.2038   -2.6088   -2.0925 C   0  0  0  1  0  0  0  0  0  0  0  0
    2.3868   -2.0088   -1.1124 C   0  0  0  1  0  0  0  0  0  0  0  0
    2.4450   -2.8280   -0.0189 N   0  0  0  1  0  0  0  0  0  0  0  0
    3.7128   -3.7430   -1.5639 N   0  0  0  1  0  0  0  0  0  0  0  0
    3.2885   -3.8965   -0.3581 N   0  0  0  1  0  0  0  0  0  0  0  0
   -0.1769   -2.6516    4.8589 O   0  0  0  1  0  0  0  0  0  0  0  0
    1.2350    0.8774   -2.7908 N   0  0  0  1  0  0  0  0  0  0  0  0
    0.2104   -3.5179    5.9369 C   0  0  0  1  0  0  0  0  0  0  0  0
   -1.6519    2.5286   -1.3790 N   0  0  0  1  0  0  0  0  0  0  0  0
   -0.4799    2.5609   -2.2660 C   0  0  0  1  0  0  0  0  0  0  0  0
   -3.5389    3.7840   -2.1867 C   0  0  0  1  0  0  0  0  0  0  0  0
   -4.4156    4.8376   -2.0101 C   0  0  0  1  0  0  0  0  0  0  0  0
   -4.3578    5.6752   -0.9702 N   0  0  0  1  0  0  0  0  0  0  0  0
   -3.3916    5.4647   -0.0651 C   0  0  0  1  0  0  0  0  0  0  0  0
   -2.4746    4.4325   -0.1617 C   0  0  0  1  0  0  0  0  0  0  0  0
    3.9161   -2.3743   -4.0833 H   0  0  0  1  0  0  0  0  0  0  0  0
    3.2828   -3.9251    2.2288 H   0  0  0  1  0  0  0  0  0  0  0  0
   -0.9089   -1.5445    2.7473 H   0  0  0  1  0  0  0  0  0  0  0  0
    0.2142   -1.5660    0.6013 H   0  0  0  1  0  0  0  0  0  0  0  0
    2.1578   -3.9035    4.3782 H   0  0  0  1  0  0  0  0  0  0  0  0
    0.9938    1.7629   -0.9210 H   0  0  0  1  0  0  0  0  0  0  0  0
   -0.2167   -0.2481   -0.5366 H   0  0  0  1  0  0  0  0  0  0  0  0
   -1.0089   -0.1653   -2.0921 H   0  0  0  1  0  0  0  0  0  0  0  0
   -1.6014    1.3946    0.3960 H   0  0  0  1  0  0  0  0  0  0  0  0
   -2.7151    0.8001   -0.8124 H   0  0  0  1  0  0  0  0  0  0  0  0
    1.3226    1.3465   -3.6468 H   0  0  0  1  0  0  0  0  0  0  0  0
   -0.3568   -3.2757    6.8112 H   0  0  0  1  0  0  0  0  0  0  0  0
    1.2527   -3.3887    6.1411 H   0  0  0  1  0  0  0  0  0  0  0  0
    0.0238   -4.5349    5.6614 H   0  0  0  1  0  0  0  0  0  0  0  0
    0.0295    3.4992   -2.1956 H   0  0  0  1  0  0  0  0  0  0  0  0
   -0.7625    2.3833   -3.2826 H   0  0  0  1  0  0  0  0  0  0  0  0
   -3.6213    3.1592   -3.0140 H   0  0  0  1  0  0  0  0  0  0  0  0
   -5.1583    4.9862   -2.7227 H   0  0  0  1  0  0  0  0  0  0  0  0
   -3.3279    6.1083    0.7494 H   0  0  0  1  0  0  0  0  0  0  0  0
   -1.7427    4.3041    0.5658 H   0  0  0  1  0  0  0  0  0  0  0  0
  1  3  4  0  0  0  0
  1 14  4  0  0  0  0
  1 21  1  0  0  0  0
  2 14  4  0  0  0  0
  2 15  4  0  0  0  0
  2 30  1  0  0  0  0
  3 16  4  0  0  0  0
  4  5  4  0  0  0  0
  4  7  4  0  0  0  0
  4 17  1  0  0  0  0
  5  9  4  0  0  0  0
  5 31  1  0  0  0  0
  6  7  4  0  0  0  0
  6  8  4  0  0  0  0
  6 32  1  0  0  0  0
  7 33  1  0  0  0  0
  8  9  4  0  0  0  0
  8 20  1  0  0  0  0
  9 34  1  0  0  0  0
 10 11  1  0  0  0  0
 10 21  1  0  0  0  0
 10 24  1  0  0  0  0
 10 35  1  0  0  0  0
 11 12  1  0  0  0  0
 11 36  1  0  0  0  0
 11 37  1  0  0  0  0
 12 23  1  0  0  0  0
 12 38  1  0  0  0  0
 12 39  1  0  0  0  0
 13 23  1  0  0  0  0
 13 25  4  0  0  0  0
 13 29  4  0  0  0  0
 15 16  4  0  0  0  0
 15 18  4  0  0  0  0
 16 17  4  0  0  0  0
 17 19  4  0  0  0  0
 18 19  4  0  0  0  0
 20 22  1  0  0  0  0
 21 40  1  0  0  0  0
 22 41  1  0  0  0  0
 22 42  1  0  0  0  0
 22 43  1  0  0  0  0
 23 24  1  0  0  0  0
 24 44  1  0  0  0  0
 24 45  1  0  0  0  0
 25 26  4  0  0  0  0
 25 46  1  0  0  0  0
 26 27  4  0  0  0  0
 26 47  1  0  0  0  0
 27 28  4  0  0  0  0
 28 29  4  0  0  0  0
 28 48  1  0  0  0  0
 29 49  1  0  0  0  0
M  END
> <ConfClashScore>
0 

> <ConfOneFourInteractionScore>
-0.987833 

> <ConfScore>
0.0220477 

> <ConfScorePBest>
0.00360656 

> <ConfTolerance>
0.433528 

> <HETNAM>
     OWQ A 303  OWQ                                                       

> <pdb_OW>
Q_303 -16.5129 3.80749 7.62812 0.15963 1.39178 -0.28144 -3.20151 0 0 0 -1.30514 0 0 0 0 0 0 0 0 -8.31393

$$$$
6yky_lig_1.pdb
 OpenBabel04162415593D

 49 53  0  0  0  0  0  0  0  0999 V2000
    1.0805   -0.5809    1.2051 C   0  0  0  1  0  0  0  0  0  0  0  0
    2.9199   -1.3087    2.3867 C   0  0  0  1  0  0  0  0  0  0  0  0
    1.5710   -0.9861    0.0536 N   0  0  0  1  0  0  0  0  0  0  0  0
    3.3590   -2.0681   -2.4166 C   0  0  0  1  0  0  0  0  0  0  0  0
    4.3996   -1.6693   -3.2340 C   0  0  0  1  0  0  0  0  0  0  0  0
    1.9220   -2.2431   -4.3275 C   0  0  0  1  0  0  0  0  0  0  0  0
    2.1176   -2.3529   -2.9637 C   0  0  0  1  0  0  0  0  0  0  0  0
    2.9656   -1.8430   -5.1475 C   0  0  0  1  0  0  0  0  0  0  0  0
    4.2033   -1.5592   -4.6017 C   0  0  0  1  0  0  0  0  0  0  0  0
   -0.7373    0.5673    2.4197 C   0  0  0  1  0  0  0  0  0  0  0  0
   -1.7355   -0.4292    3.0502 C   0  0  0  1  0  0  0  0  0  0  0  0
   -2.9390    0.3587    3.5025 C   0  0  0  1  0  0  0  0  0  0  0  0
   -3.6640    2.7534    2.7867 C   0  0  0  1  0  0  0  0  0  0  0  0
    1.7314   -0.7345    2.3449 N   0  0  0  1  0  0  0  0  0  0  0  0
    3.4894   -1.7591    1.1903 C   0  0  0  1  0  0  0  0  0  0  0  0
    2.7596   -1.5744   -0.0020 C   0  0  0  1  0  0  0  0  0  0  0  0
    3.5326   -2.0953   -1.0026 N   0  0  0  1  0  0  0  0  0  0  0  0
    4.6502   -2.3714    0.8700 N   0  0  0  1  0  0  0  0  0  0  0  0
    4.7030   -2.5796   -0.3995 N   0  0  0  1  0  0  0  0  0  0  0  0
    2.8388   -1.7108   -6.4893 O   0  0  0  1  0  0  0  0  0  0  0  0
   -0.1271    0.0114    1.2244 N   0  0  0  1  0  0  0  0  0  0  0  0
    1.5818   -2.0915   -7.0702 C   0  0  0  1  0  0  0  0  0  0  0  0
   -2.7261    1.6902    2.7497 N   0  0  0  1  0  0  0  0  0  0  0  0
   -1.6188    1.7536    2.0821 C   0  0  0  1  0  0  0  0  0  0  0  0
   -4.9948    2.4630    2.5495 C   0  0  0  1  0  0  0  0  0  0  0  0
   -5.9027    3.5034    2.4950 C   0  0  0  1  0  0  0  0  0  0  0  0
   -5.5618    4.7855    2.6573 N   0  0  0  1  0  0  0  0  0  0  0  0
   -4.2675    5.0530    2.8823 C   0  0  0  1  0  0  0  0  0  0  0  0
   -3.2930    4.0731    2.9562 C   0  0  0  1  0  0  0  0  0  0  0  0
    3.4223   -1.4239    3.2900 H   0  0  0  1  0  0  0  0  0  0  0  0
    5.3298   -1.4518   -2.8229 H   0  0  0  1  0  0  0  0  0  0  0  0
    0.9918   -2.4605   -4.7386 H   0  0  0  1  0  0  0  0  0  0  0  0
    1.3335   -2.6491   -2.3481 H   0  0  0  1  0  0  0  0  0  0  0  0
    4.9875   -1.2630   -5.2173 H   0  0  0  1  0  0  0  0  0  0  0  0
    0.0270    0.8407    3.1168 H   0  0  0  1  0  0  0  0  0  0  0  0
   -2.0287   -1.1599    2.3256 H   0  0  0  1  0  0  0  0  0  0  0  0
   -1.2834   -0.9181    3.8877 H   0  0  0  1  0  0  0  0  0  0  0  0
   -2.9372    0.5031    4.5627 H   0  0  0  1  0  0  0  0  0  0  0  0
   -3.8516   -0.1163    3.2083 H   0  0  0  1  0  0  0  0  0  0  0  0
   -0.6246    0.0715    0.3822 H   0  0  0  1  0  0  0  0  0  0  0  0
    1.6634   -2.0805   -8.1371 H   0  0  0  1  0  0  0  0  0  0  0  0
    0.8238   -1.4013   -6.7637 H   0  0  0  1  0  0  0  0  0  0  0  0
    1.3216   -3.0764   -6.7428 H   0  0  0  1  0  0  0  0  0  0  0  0
   -1.1056    2.6583    2.3333 H   0  0  0  1  0  0  0  0  0  0  0  0
   -1.8365    1.7456    1.0345 H   0  0  0  1  0  0  0  0  0  0  0  0
   -5.3067    1.4801    2.4146 H   0  0  0  1  0  0  0  0  0  0  0  0
   -6.9024    3.2772    2.3187 H   0  0  0  1  0  0  0  0  0  0  0  0
   -3.9819    6.0451    3.0074 H   0  0  0  1  0  0  0  0  0  0  0  0
   -2.3003    4.3255    3.1358 H   0  0  0  1  0  0  0  0  0  0  0  0
  1  3  4  0  0  0  0
  1 14  4  0  0  0  0
  1 21  1  0  0  0  0
  2 14  4  0  0  0  0
  2 15  4  0  0  0  0
  2 30  1  0  0  0  0
  3 16  4  0  0  0  0
  4  5  4  0  0  0  0
  4  7  4  0  0  0  0
  4 17  1  0  0  0  0
  5  9  4  0  0  0  0
  5 31  1  0  0  0  0
  6  7  4  0  0  0  0
  6  8  4  0  0  0  0
  6 32  1  0  0  0  0
  7 33  1  0  0  0  0
  8  9  4  0  0  0  0
  8 20  1  0  0  0  0
  9 34  1  0  0  0  0
 10 11  1  0  0  0  0
 10 21  1  0  0  0  0
 10 24  1  0  0  0  0
 10 35  1  0  0  0  0
 11 12  1  0  0  0  0
 11 36  1  0  0  0  0
 11 37  1  0  0  0  0
 12 23  1  0  0  0  0
 12 38  1  0  0  0  0
 12 39  1  0  0  0  0
 13 23  1  0  0  0  0
 13 25  4  0  0  0  0
 13 29  4  0  0  0  0
 15 16  4  0  0  0  0
 15 18  4  0  0  0  0
 16 17  4  0  0  0  0
 17 19  4  0  0  0  0
 18 19  4  0  0  0  0
 20 22  1  0  0  0  0
 21 40  1  0  0  0  0
 22 41  1  0  0  0  0
 22 42  1  0  0  0  0
 22 43  1  0  0  0  0
 23 24  1  0  0  0  0
 24 44  1  0  0  0  0
 24 45  1  0  0  0  0
 25 26  4  0  0  0  0
 25 46  1  0  0  0  0
 26 27  4  0  0  0  0
 26 47  1  0  0  0  0
 27 28  4  0  0  0  0
 28 29  4  0  0  0  0
 28 48  1  0  0  0  0
 29 49  1  0  0  0  0
M  END
> <ConfClashScore>
0 

> <ConfOneFourInteractionScore>
-0.986948 

> <ConfScore>
0.0220735 

> <ConfScorePBest>
0.00359323 

> <ConfTolerance>
0.556409 

> <HETNAM>
     OWQ A 303  OWQ                                                       

> <pdb_OW>
Q_303 -16.5129 3.80749 7.62812 0.15963 1.39178 -0.28144 -3.20151 0 0 0 -1.30514 0 0 0 0 0 0 0 0 -8.31393

$$$$
6yky_lig_1.pdb
 OpenBabel04162415593D

 49 53  0  0  0  0  0  0  0  0999 V2000
    1.6390    0.3810    0.4189 C   0  0  0  1  0  0  0  0  0  0  0  0
    3.1603    1.7176   -0.6804 C   0  0  0  1  0  0  0  0  0  0  0  0
    1.3099   -0.2681   -0.6770 N   0  0  0  1  0  0  0  0  0  0  0  0
    1.0716   -1.5464   -3.6611 C   0  0  0  1  0  0  0  0  0  0  0  0
    0.2931   -1.3903   -4.7923 C   0  0  0  1  0  0  0  0  0  0  0  0
    0.3521   -3.8258   -3.4775 C   0  0  0  1  0  0  0  0  0  0  0  0
    1.0992   -2.7651   -3.0011 C   0  0  0  1  0  0  0  0  0  0  0  0
   -0.4289   -3.6695   -4.6121 C   0  0  0  1  0  0  0  0  0  0  0  0
   -0.4562   -2.4542   -5.2700 C   0  0  0  1  0  0  0  0  0  0  0  0
    1.2675    0.6630    2.8778 C   0  0  0  1  0  0  0  0  0  0  0  0
    0.5116   -0.0830    3.9730 C   0  0  0  1  0  0  0  0  0  0  0  0
   -0.9069    0.4533    3.8483 C   0  0  0  1  0  0  0  0  0  0  0  0
   -1.7364    2.7887    3.2988 C   0  0  0  1  0  0  0  0  0  0  0  0
    2.5389    1.3488    0.4250 N   0  0  0  1  0  0  0  0  0  0  0  0
    2.8486    1.0602   -1.8760 C   0  0  0  1  0  0  0  0  0  0  0  0
    1.8826    0.0339   -1.8358 C   0  0  0  1  0  0  0  0  0  0  0  0
    1.7713   -0.4306   -3.1171 N   0  0  0  1  0  0  0  0  0  0  0  0
    3.2742    1.1730   -3.1531 N   0  0  0  1  0  0  0  0  0  0  0  0
    2.6646    0.3180   -3.8980 N   0  0  0  1  0  0  0  0  0  0  0  0
   -1.1998   -4.6263   -5.1644 O   0  0  0  1  0  0  0  0  0  0  0  0
    1.0386    0.0487    1.5759 N   0  0  0  1  0  0  0  0  0  0  0  0
   -1.2112   -5.8877   -4.4565 C   0  0  0  1  0  0  0  0  0  0  0  0
   -0.7171    1.8264    3.3559 N   0  0  0  1  0  0  0  0  0  0  0  0
    0.6744    2.0701    2.9291 C   0  0  0  1  0  0  0  0  0  0  0  0
   -2.6556    2.9169    2.2739 C   0  0  0  1  0  0  0  0  0  0  0  0
   -3.6088    3.9140    2.3570 C   0  0  0  1  0  0  0  0  0  0  0  0
   -3.6898    4.7699    3.3802 N   0  0  0  1  0  0  0  0  0  0  0  0
   -2.7896    4.6368    4.3648 C   0  0  0  1  0  0  0  0  0  0  0  0
   -1.8043    3.6650    4.3642 C   0  0  0  1  0  0  0  0  0  0  0  0
    3.8667    2.4807   -0.6629 H   0  0  0  1  0  0  0  0  0  0  0  0
    0.2693   -0.4748   -5.2850 H   0  0  0  1  0  0  0  0  0  0  0  0
    0.3759   -4.7413   -2.9848 H   0  0  0  1  0  0  0  0  0  0  0  0
    1.6820   -2.8812   -2.1476 H   0  0  0  1  0  0  0  0  0  0  0  0
   -1.0389   -2.3380   -6.1235 H   0  0  0  1  0  0  0  0  0  0  0  0
    2.3174    0.6831    3.0836 H   0  0  0  1  0  0  0  0  0  0  0  0
    0.9203    0.1354    4.9374 H   0  0  0  1  0  0  0  0  0  0  0  0
    0.5378   -1.1394    3.8049 H   0  0  0  1  0  0  0  0  0  0  0  0
   -1.4745   -0.1271    3.1512 H   0  0  0  1  0  0  0  0  0  0  0  0
   -1.3999    0.4531    4.7980 H   0  0  0  1  0  0  0  0  0  0  0  0
    0.3824   -0.6783    1.5400 H   0  0  0  1  0  0  0  0  0  0  0  0
   -1.9270   -6.5434   -4.9065 H   0  0  0  1  0  0  0  0  0  0  0  0
   -1.4754   -5.7198   -3.4333 H   0  0  0  1  0  0  0  0  0  0  0  0
   -0.2395   -6.3329   -4.5060 H   0  0  0  1  0  0  0  0  0  0  0  0
    0.7056    2.5361    1.9664 H   0  0  0  1  0  0  0  0  0  0  0  0
    1.1931    2.6806    3.6384 H   0  0  0  1  0  0  0  0  0  0  0  0
   -2.6301    2.2751    1.4560 H   0  0  0  1  0  0  0  0  0  0  0  0
   -4.2985    4.0029    1.5836 H   0  0  0  1  0  0  0  0  0  0  0  0
   -2.8339    5.2960    5.1680 H   0  0  0  1  0  0  0  0  0  0  0  0
   -1.1278    3.5959    5.1511 H   0  0  0  1  0  0  0  0  0  0  0  0
  1  3  4  0  0  0  0
  1 14  4  0  0  0  0
  1 21  1  0  0  0  0
  2 14  4  0  0  0  0
  2 15  4  0  0  0  0
  2 30  1  0  0  0  0
  3 16  4  0  0  0  0
  4  5  4  0  0  0  0
  4  7  4  0  0  0  0
  4 17  1  0  0  0  0
  5  9  4  0  0  0  0
  5 31  1  0  0  0  0
  6  7  4  0  0  0  0
  6  8  4  0  0  0  0
  6 32  1  0  0  0  0
  7 33  1  0  0  0  0
  8  9  4  0  0  0  0
  8 20  1  0  0  0  0
  9 34  1  0  0  0  0
 10 11  1  0  0  0  0
 10 21  1  0  0  0  0
 10 24  1  0  0  0  0
 10 35  1  0  0  0  0
 11 12  1  0  0  0  0
 11 36  1  0  0  0  0
 11 37  1  0  0  0  0
 12 23  1  0  0  0  0
 12 38  1  0  0  0  0
 12 39  1  0  0  0  0
 13 23  1  0  0  0  0
 13 25  4  0  0  0  0
 13 29  4  0  0  0  0
 15 16  4  0  0  0  0
 15 18  4  0  0  0  0
 16 17  4  0  0  0  0
 17 19  4  0  0  0  0
 18 19  4  0  0  0  0
 20 22  1  0  0  0  0
 21 40  1  0  0  0  0
 22 41  1  0  0  0  0
 22 42  1  0  0  0  0
 22 43  1  0  0  0  0
 23 24  1  0  0  0  0
 24 44  1  0  0  0  0
 24 45  1  0  0  0  0
 25 26  4  0  0  0  0
 25 46  1  0  0  0  0
 26 27  4  0  0  0  0
 26 47  1  0  0  0  0
 27 28  4  0  0  0  0
 28 29  4  0  0  0  0
 28 48  1  0  0  0  0
 29 49  1  0  0  0  0
M  END
> <ConfClashScore>
0 

> <ConfOneFourInteractionScore>
-0.986948 

> <ConfScore>
0.0221528 

> <ConfScorePBest>
0.0035799 

> <ConfTolerance>
0.65899 

> <HETNAM>
     OWQ A 303  OWQ                                                       

> <pdb_OW>
Q_303 -16.5129 3.80749 7.62812 0.15963 1.39178 -0.28144 -3.20151 0 0 0 -1.30514 0 0 0 0 0 0 0 0 -8.31393

$$$$
6yky_lig_1.pdb
 OpenBabel04162415593D

 49 53  0  0  0  0  0  0  0  0999 V2000
    0.3923   -0.3213    0.8577 C   0  0  0  1  0  0  0  0  0  0  0  0
    1.7409   -0.7994    2.6638 C   0  0  0  1  0  0  0  0  0  0  0  0
    1.2413   -0.8390   -0.0038 N   0  0  0  1  0  0  0  0  0  0  0  0
    3.7663   -2.2685   -1.5551 C   0  0  0  1  0  0  0  0  0  0  0  0
    4.9519   -2.9330   -1.8062 C   0  0  0  1  0  0  0  0  0  0  0  0
    3.3688   -2.0827   -3.9120 C   0  0  0  1  0  0  0  0  0  0  0  0
    2.9748   -1.8404   -2.6095 C   0  0  0  1  0  0  0  0  0  0  0  0
    4.5579   -2.7491   -4.1640 C   0  0  0  1  0  0  0  0  0  0  0  0
    5.3469   -3.1759   -3.1125 C   0  0  0  1  0  0  0  0  0  0  0  0
   -1.7722    0.7308    1.3681 C   0  0  0  1  0  0  0  0  0  0  0  0
   -2.7611   -0.3677    1.7895 C   0  0  0  1  0  0  0  0  0  0  0  0
   -3.9764    0.4609    2.2336 C   0  0  0  1  0  0  0  0  0  0  0  0
   -4.2438    3.0188    2.2811 C   0  0  0  1  0  0  0  0  0  0  0  0
    0.6287   -0.2984    2.1577 N   0  0  0  1  0  0  0  0  0  0  0  0
    2.6797   -1.3632    1.7923 C   0  0  0  1  0  0  0  0  0  0  0  0
    2.3860   -1.3659    0.4132 C   0  0  0  1  0  0  0  0  0  0  0  0
    3.4522   -1.9647   -0.1989 N   0  0  0  1  0  0  0  0  0  0  0  0
    3.8864   -1.9480    1.9558 N   0  0  0  1  0  0  0  0  0  0  0  0
    4.3600   -2.3082    0.8141 N   0  0  0  1  0  0  0  0  0  0  0  0
    5.0479   -3.0379   -5.3929 O   0  0  0  1  0  0  0  0  0  0  0  0
   -0.7851    0.2210    0.4326 N   0  0  0  1  0  0  0  0  0  0  0  0
    4.2294   -2.6963   -6.5225 C   0  0  0  1  0  0  0  0  0  0  0  0
   -3.6868    1.8558    1.7844 N   0  0  0  1  0  0  0  0  0  0  0  0
   -2.6881    1.7443    0.7051 C   0  0  0  1  0  0  0  0  0  0  0  0
   -5.2622    3.6595    1.5999 C   0  0  0  1  0  0  0  0  0  0  0  0
   -5.7933    4.8179    2.1343 C   0  0  0  1  0  0  0  0  0  0  0  0
   -5.3712    5.3589    3.2812 N   0  0  0  1  0  0  0  0  0  0  0  0
   -4.3804    4.7297    3.9290 C   0  0  0  1  0  0  0  0  0  0  0  0
   -3.7941    3.5640    3.4679 C   0  0  0  1  0  0  0  0  0  0  0  0
    1.9155   -0.7755    3.6887 H   0  0  0  1  0  0  0  0  0  0  0  0
    5.5477   -3.2506   -1.0151 H   0  0  0  1  0  0  0  0  0  0  0  0
    2.7730   -1.7650   -4.7030 H   0  0  0  1  0  0  0  0  0  0  0  0
    2.0847   -1.3368   -2.4205 H   0  0  0  1  0  0  0  0  0  0  0  0
    6.2371   -3.6795   -3.3014 H   0  0  0  1  0  0  0  0  0  0  0  0
   -1.2755    1.1527    2.2167 H   0  0  0  1  0  0  0  0  0  0  0  0
   -2.3727   -0.9534    2.5963 H   0  0  0  1  0  0  0  0  0  0  0  0
   -3.0053   -1.0085    0.9681 H   0  0  0  1  0  0  0  0  0  0  0  0
   -4.0860    0.4249    3.2974 H   0  0  0  1  0  0  0  0  0  0  0  0
   -4.8688    0.0955    1.7700 H   0  0  0  1  0  0  0  0  0  0  0  0
   -0.9696    0.2678   -0.5287 H   0  0  0  1  0  0  0  0  0  0  0  0
    3.2453   -3.0925   -6.3834 H   0  0  0  1  0  0  0  0  0  0  0  0
    4.6579   -3.1103   -7.4113 H   0  0  0  1  0  0  0  0  0  0  0  0
    4.1753   -1.6317   -6.6145 H   0  0  0  1  0  0  0  0  0  0  0  0
   -2.1930    2.6734    0.5138 H   0  0  0  1  0  0  0  0  0  0  0  0
   -3.1134    1.3724   -0.2035 H   0  0  0  1  0  0  0  0  0  0  0  0
   -5.6217    3.2768    0.7021 H   0  0  0  1  0  0  0  0  0  0  0  0
   -6.5607    5.2930    1.6176 H   0  0  0  1  0  0  0  0  0  0  0  0
   -4.0356    5.1374    4.8214 H   0  0  0  1  0  0  0  0  0  0  0  0
   -3.0295    3.1071    4.0047 H   0  0  0  1  0  0  0  0  0  0  0  0
  1  3  4  0  0  0  0
  1 14  4  0  0  0  0
  1 21  1  0  0  0  0
  2 14  4  0  0  0  0
  2 15  4  0  0  0  0
  2 30  1  0  0  0  0
  3 16  4  0  0  0  0
  4  5  4  0  0  0  0
  4  7  4  0  0  0  0
  4 17  1  0  0  0  0
  5  9  4  0  0  0  0
  5 31  1  0  0  0  0
  6  7  4  0  0  0  0
  6  8  4  0  0  0  0
  6 32  1  0  0  0  0
  7 33  1  0  0  0  0
  8  9  4  0  0  0  0
  8 20  1  0  0  0  0
  9 34  1  0  0  0  0
 10 11  1  0  0  0  0
 10 21  1  0  0  0  0
 10 24  1  0  0  0  0
 10 35  1  0  0  0  0
 11 12  1  0  0  0  0
 11 36  1  0  0  0  0
 11 37  1  0  0  0  0
 12 23  1  0  0  0  0
 12 38  1  0  0  0  0
 12 39  1  0  0  0  0
 13 23  1  0  0  0  0
 13 25  4  0  0  0  0
 13 29  4  0  0  0  0
 15 16  4  0  0  0  0
 15 18  4  0  0  0  0
 16 17  4  0  0  0  0
 17 19  4  0  0  0  0
 18 19  4  0  0  0  0
 20 22  1  0  0  0  0
 21 40  1  0  0  0  0
 22 41  1  0  0  0  0
 22 42  1  0  0  0  0
 22 43  1  0  0  0  0
 23 24  1  0  0  0  0
 24 44  1  0  0  0  0
 24 45  1  0  0  0  0
 25 26  4  0  0  0  0
 25 46  1  0  0  0  0
 26 27  4  0  0  0  0
 26 47  1  0  0  0  0
 27 28  4  0  0  0  0
 28 29  4  0  0  0  0
 28 48  1  0  0  0  0
 29 49  1  0  0  0  0
M  END
> <ConfClashScore>
0 

> <ConfOneFourInteractionScore>
-0.986948 

> <ConfScore>
0.02405 

> <ConfScorePBest>
0.00356658 

> <ConfTolerance>
0.412057 

> <HETNAM>
     OWQ A 303  OWQ                                                       

> <pdb_OW>
Q_303 -16.5129 3.80749 7.62812 0.15963 1.39178 -0.28144 -3.20151 0 0 0 -1.30514 0 0 0 0 0 0 0 0 -8.31393

$$$$
6yky_lig_1.pdb
 OpenBabel04162415593D

 49 53  0  0  0  0  0  0  0  0999 V2000
    1.2739   -2.5663   -1.6463 C   0  0  0  1  0  0  0  0  0  0  0  0
    2.6351   -2.4709   -3.5030 C   0  0  0  1  0  0  0  0  0  0  0  0
    1.5816   -1.3438   -1.2699 N   0  0  0  1  0  0  0  0  0  0  0  0
    2.6414    1.6842   -0.9437 C   0  0  0  1  0  0  0  0  0  0  0  0
    3.0903    1.5979    0.3605 C   0  0  0  1  0  0  0  0  0  0  0  0
    1.4483    3.6919   -0.4026 C   0  0  0  1  0  0  0  0  0  0  0  0
    1.8171    2.7313   -1.3254 C   0  0  0  1  0  0  0  0  0  0  0  0
    1.8985    3.6055    0.9056 C   0  0  0  1  0  0  0  0  0  0  0  0
    2.7204    2.5614    1.2859 C   0  0  0  1  0  0  0  0  0  0  0  0
   -0.2542   -2.7604    0.2838 C   0  0  0  1  0  0  0  0  0  0  0  0
   -1.2686   -3.7819    0.8443 C   0  0  0  1  0  0  0  0  0  0  0  0
   -2.4970   -3.0165    1.2675 C   0  0  0  1  0  0  0  0  0  0  0  0
   -3.1994   -0.6238    0.5881 C   0  0  0  1  0  0  0  0  0  0  0  0
    1.7827   -3.1216   -2.7322 N   0  0  0  1  0  0  0  0  0  0  0  0
    2.9977   -1.1663   -3.1495 C   0  0  0  1  0  0  0  0  0  0  0  0
    2.4304   -0.6136   -1.9830 C   0  0  0  1  0  0  0  0  0  0  0  0
    2.9462    0.6481   -1.8732 N   0  0  0  1  0  0  0  0  0  0  0  0
    3.8168   -0.2364   -3.6875 N   0  0  0  1  0  0  0  0  0  0  0  0
    3.8069    0.8300   -2.9660 N   0  0  0  1  0  0  0  0  0  0  0  0
    1.4681    4.5989    1.7191 O   0  0  0  1  0  0  0  0  0  0  0  0
    0.4101   -3.2778   -0.8998 N   0  0  0  1  0  0  0  0  0  0  0  0
    1.7984    4.4951    3.1129 C   0  0  0  1  0  0  0  0  0  0  0  0
   -2.2650   -1.6628    0.5614 N   0  0  0  1  0  0  0  0  0  0  0  0
   -1.1315   -1.5721   -0.0575 C   0  0  0  1  0  0  0  0  0  0  0  0
   -3.3657    0.1454    1.7249 C   0  0  0  1  0  0  0  0  0  0  0  0
   -4.2981    1.1652    1.7068 C   0  0  0  1  0  0  0  0  0  0  0  0
   -5.0560    1.4491    0.6433 N   0  0  0  1  0  0  0  0  0  0  0  0
   -4.8874    0.6926   -0.4506 C   0  0  0  1  0  0  0  0  0  0  0  0
   -3.9747   -0.3454   -0.5205 C   0  0  0  1  0  0  0  0  0  0  0  0
    3.0287   -2.9188   -4.3551 H   0  0  0  1  0  0  0  0  0  0  0  0
    3.7055    0.8101    0.6477 H   0  0  0  1  0  0  0  0  0  0  0  0
    0.8331    4.4797   -0.6898 H   0  0  0  1  0  0  0  0  0  0  0  0
    1.4761    2.7939   -2.3059 H   0  0  0  1  0  0  0  0  0  0  0  0
    3.0614    2.4987    2.2664 H   0  0  0  1  0  0  0  0  0  0  0  0
    0.4780   -2.5006    1.0195 H   0  0  0  1  0  0  0  0  0  0  0  0
   -1.5249   -4.4944    0.0882 H   0  0  0  1  0  0  0  0  0  0  0  0
   -0.8473   -4.2905    1.6862 H   0  0  0  1  0  0  0  0  0  0  0  0
   -2.5405   -2.9018    2.3304 H   0  0  0  1  0  0  0  0  0  0  0  0
   -3.3922   -3.4902    0.9225 H   0  0  0  1  0  0  0  0  0  0  0  0
    0.2177   -4.1998   -1.1706 H   0  0  0  1  0  0  0  0  0  0  0  0
    1.3064    3.6434    3.5341 H   0  0  0  1  0  0  0  0  0  0  0  0
    1.4778    5.3799    3.6220 H   0  0  0  1  0  0  0  0  0  0  0  0
    2.8572    4.3846    3.2210 H   0  0  0  1  0  0  0  0  0  0  0  0
   -1.3055   -1.5525   -1.1130 H   0  0  0  1  0  0  0  0  0  0  0  0
   -0.6374   -0.6708    0.2399 H   0  0  0  1  0  0  0  0  0  0  0  0
   -2.7998   -0.0401    2.5776 H   0  0  0  1  0  0  0  0  0  0  0  0
   -4.4160    1.7412    2.5647 H   0  0  0  1  0  0  0  0  0  0  0  0
   -5.4708    0.8956   -1.2872 H   0  0  0  1  0  0  0  0  0  0  0  0
   -3.8746   -0.9052   -1.3913 H   0  0  0  1  0  0  0  0  0  0  0  0
  1  3  4  0  0  0  0
  1 14  4  0  0  0  0
  1 21  1  0  0  0  0
  2 14  4  0  0  0  0
  2 15  4  0  0  0  0
  2 30  1  0  0  0  0
  3 16  4  0  0  0  0
  4  5  4  0  0  0  0
  4  7  4  0  0  0  0
  4 17  1  0  0  0  0
  5  9  4  0  0  0  0
  5 31  1  0  0  0  0
  6  7  4  0  0  0  0
  6  8  4  0  0  0  0
  6 32  1  0  0  0  0
  7 33  1  0  0  0  0
  8  9  4  0  0  0  0
  8 20  1  0  0  0  0
  9 34  1  0  0  0  0
 10 11  1  0  0  0  0
 10 21  1  0  0  0  0
 10 24  1  0  0  0  0
 10 35  1  0  0  0  0
 11 12  1  0  0  0  0
 11 36  1  0  0  0  0
 11 37  1  0  0  0  0
 12 23  1  0  0  0  0
 12 38  1  0  0  0  0
 12 39  1  0  0  0  0
 13 23  1  0  0  0  0
 13 25  4  0  0  0  0
 13 29  4  0  0  0  0
 15 16  4  0  0  0  0
 15 18  4  0  0  0  0
 16 17  4  0  0  0  0
 17 19  4  0  0  0  0
 18 19  4  0  0  0  0
 20 22  1  0  0  0  0
 21 40  1  0  0  0  0
 22 41  1  0  0  0  0
 22 42  1  0  0  0  0
 22 43  1  0  0  0  0
 23 24  1  0  0  0  0
 24 44  1  0  0  0  0
 24 45  1  0  0  0  0
 25 26  4  0  0  0  0
 25 46  1  0  0  0  0
 26 27  4  0  0  0  0
 26 47  1  0  0  0  0
 27 28  4  0  0  0  0
 28 29  4  0  0  0  0
 28 48  1  0  0  0  0
 29 49  1  0  0  0  0
M  END
> <ConfClashScore>
0 

> <ConfOneFourInteractionScore>
-0.984874 

> <ConfScore>
0.024069 

> <ConfScorePBest>
0.00355325 

> <ConfTolerance>
0.493539 

> <HETNAM>
     OWQ A 303  OWQ                                                       

> <pdb_OW>
Q_303 -16.5129 3.80749 7.62812 0.15963 1.39178 -0.28144 -3.20151 0 0 0 -1.30514 0 0 0 0 0 0 0 0 -8.31393

$$$$
6yky_lig_1.pdb
 OpenBabel04162415593D

 49 53  0  0  0  0  0  0  0  0999 V2000
    0.3573    0.1539    0.6365 C   0  0  0  1  0  0  0  0  0  0  0  0
    0.9527    2.3195    0.1216 C   0  0  0  1  0  0  0  0  0  0  0  0
    1.0974   -0.3538   -0.3255 N   0  0  0  1  0  0  0  0  0  0  0  0
    3.1133   -0.9174   -2.8642 C   0  0  0  1  0  0  0  0  0  0  0  0
    2.5843   -2.1581   -2.5628 C   0  0  0  1  0  0  0  0  0  0  0  0
    4.6693   -1.9444   -4.3713 C   0  0  0  1  0  0  0  0  0  0  0  0
    4.1591   -0.8105   -3.7677 C   0  0  0  1  0  0  0  0  0  0  0  0
    4.1388   -3.1889   -4.0691 C   0  0  0  1  0  0  0  0  0  0  0  0
    3.0961   -3.2952   -3.1682 C   0  0  0  1  0  0  0  0  0  0  0  0
   -1.2405   -0.1636    2.4722 C   0  0  0  1  0  0  0  0  0  0  0  0
   -2.2940   -1.2048    2.9414 C   0  0  0  1  0  0  0  0  0  0  0  0
   -3.5299   -0.4240    3.4352 C   0  0  0  1  0  0  0  0  0  0  0  0
   -4.1203    2.0607    3.1295 C   0  0  0  1  0  0  0  0  0  0  0  0
    0.2819    1.4542    0.8601 N   0  0  0  1  0  0  0  0  0  0  0  0
    1.7564    1.8340   -0.9162 C   0  0  0  1  0  0  0  0  0  0  0  0
    1.8068    0.4395   -1.1187 C   0  0  0  1  0  0  0  0  0  0  0  0
    2.6500    0.2417   -2.1770 N   0  0  0  1  0  0  0  0  0  0  0  0
    2.5542    2.4118   -1.8407 N   0  0  0  1  0  0  0  0  0  0  0  0
    3.0876    1.5096   -2.5884 N   0  0  0  1  0  0  0  0  0  0  0  0
    4.5995   -4.2617   -4.7552 O   0  0  0  1  0  0  0  0  0  0  0  0
   -0.3686   -0.7029    1.4435 N   0  0  0  1  0  0  0  0  0  0  0  0
    5.6355   -4.0271   -5.7217 C   0  0  0  1  0  0  0  0  0  0  0  0
   -3.3238    0.9274    2.8416 N   0  0  0  1  0  0  0  0  0  0  0  0
   -2.1796    0.9239    1.9154 C   0  0  0  1  0  0  0  0  0  0  0  0
   -5.2292    2.3569    2.3587 C   0  0  0  1  0  0  0  0  0  0  0  0
   -5.9816    3.4713    2.6773 C   0  0  0  1  0  0  0  0  0  0  0  0
   -5.6922    4.2868    3.6959 N   0  0  0  1  0  0  0  0  0  0  0  0
   -4.6118    3.9901    4.4321 C   0  0  0  1  0  0  0  0  0  0  0  0
   -3.8053    2.8927    4.1859 C   0  0  0  1  0  0  0  0  0  0  0  0
    0.8852    3.3405    0.3074 H   0  0  0  1  0  0  0  0  0  0  0  0
    1.8023   -2.2386   -1.8819 H   0  0  0  1  0  0  0  0  0  0  0  0
    5.4512   -1.8639   -5.0522 H   0  0  0  1  0  0  0  0  0  0  0  0
    4.5597    0.1228   -3.9914 H   0  0  0  1  0  0  0  0  0  0  0  0
    2.6954   -4.2285   -2.9444 H   0  0  0  1  0  0  0  0  0  0  0  0
   -0.6496    0.1998    3.2868 H   0  0  0  1  0  0  0  0  0  0  0  0
   -2.5663   -1.8418    2.1259 H   0  0  0  1  0  0  0  0  0  0  0  0
   -1.8933   -1.7961    3.7381 H   0  0  0  1  0  0  0  0  0  0  0  0
   -3.5539   -0.3761    4.5039 H   0  0  0  1  0  0  0  0  0  0  0  0
   -4.4350   -0.8684    3.0772 H   0  0  0  1  0  0  0  0  0  0  0  0
   -0.2947   -1.6725    1.3216 H   0  0  0  1  0  0  0  0  0  0  0  0
    5.4528   -3.0996   -6.2230 H   0  0  0  1  0  0  0  0  0  0  0  0
    5.6430   -4.8232   -6.4365 H   0  0  0  1  0  0  0  0  0  0  0  0
    6.5825   -3.9835   -5.2255 H   0  0  0  1  0  0  0  0  0  0  0  0
   -2.4964    0.6788    0.9232 H   0  0  0  1  0  0  0  0  0  0  0  0
   -1.6939    1.8772    1.9100 H   0  0  0  1  0  0  0  0  0  0  0  0
   -5.4922    1.7524    1.5543 H   0  0  0  1  0  0  0  0  0  0  0  0
   -6.8158    3.6866    2.0946 H   0  0  0  1  0  0  0  0  0  0  0  0
   -4.3680    4.6149    5.2269 H   0  0  0  1  0  0  0  0  0  0  0  0
   -2.9777    2.6983    4.7851 H   0  0  0  1  0  0  0  0  0  0  0  0
  1  3  4  0  0  0  0
  1 14  4  0  0  0  0
  1 21  1  0  0  0  0
  2 14  4  0  0  0  0
  2 15  4  0  0  0  0
  2 30  1  0  0  0  0
  3 16  4  0  0  0  0
  4  5  4  0  0  0  0
  4  7  4  0  0  0  0
  4 17  1  0  0  0  0
  5  9  4  0  0  0  0
  5 31  1  0  0  0  0
  6  7  4  0  0  0  0
  6  8  4  0  0  0  0
  6 32  1  0  0  0  0
  7 33  1  0  0  0  0
  8  9  4  0  0  0  0
  8 20  1  0  0  0  0
  9 34  1  0  0  0  0
 10 11  1  0  0  0  0
 10 21  1  0  0  0  0
 10 24  1  0  0  0  0
 10 35  1  0  0  0  0
 11 12  1  0  0  0  0
 11 36  1  0  0  0  0
 11 37  1  0  0  0  0
 12 23  1  0  0  0  0
 12 38  1  0  0  0  0
 12 39  1  0  0  0  0
 13 23  1  0  0  0  0
 13 25  4  0  0  0  0
 13 29  4  0  0  0  0
 15 16  4  0  0  0  0
 15 18  4  0  0  0  0
 16 17  4  0  0  0  0
 17 19  4  0  0  0  0
 18 19  4  0  0  0  0
 20 22  1  0  0  0  0
 21 40  1  0  0  0  0
 22 41  1  0  0  0  0
 22 42  1  0  0  0  0
 22 43  1  0  0  0  0
 23 24  1  0  0  0  0
 24 44  1  0  0  0  0
 24 45  1  0  0  0  0
 25 26  4  0  0  0  0
 25 46  1  0  0  0  0
 26 27  4  0  0  0  0
 26 47  1  0  0  0  0
 27 28  4  0  0  0  0
 28 29  4  0  0  0  0
 28 48  1  0  0  0  0
 29 49  1  0  0  0  0
M  END
> <ConfClashScore>
0 

> <ConfOneFourInteractionScore>
-0.987833 

> <ConfScore>
0.0247963 

> <ConfScorePBest>
0.00353992 

> <ConfTolerance>
0.423414 

> <HETNAM>
     OWQ A 303  OWQ                                                       

> <pdb_OW>
Q_303 -16.5129 3.80749 7.62812 0.15963 1.39178 -0.28144 -3.20151 0 0 0 -1.30514 0 0 0 0 0 0 0 0 -8.31393

$$$$
6yky_lig_1.pdb
 OpenBabel04162415593D

 49 53  0  0  0  0  0  0  0  0999 V2000
    0.7248   -0.4067    1.1751 C   0  0  0  1  0  0  0  0  0  0  0  0
    2.1077   -1.6707    2.5164 C   0  0  0  1  0  0  0  0  0  0  0  0
    1.3093   -0.8123    0.0684 N   0  0  0  1  0  0  0  0  0  0  0  0
    3.1926   -2.2154   -2.2361 C   0  0  0  1  0  0  0  0  0  0  0  0
    3.3386   -3.3803   -2.9654 C   0  0  0  1  0  0  0  0  0  0  0  0
    3.3585   -0.9294   -4.2525 C   0  0  0  1  0  0  0  0  0  0  0  0
    3.2052   -0.9880   -2.8801 C   0  0  0  1  0  0  0  0  0  0  0  0
    3.5050   -2.0976   -4.9842 C   0  0  0  1  0  0  0  0  0  0  0  0
    3.4924   -3.3213   -4.3418 C   0  0  0  1  0  0  0  0  0  0  0  0
   -0.9787    0.9898    2.2705 C   0  0  0  1  0  0  0  0  0  0  0  0
   -1.9932   -0.0317    2.8311 C   0  0  0  1  0  0  0  0  0  0  0  0
   -3.2215    0.7337    3.2543 C   0  0  0  1  0  0  0  0  0  0  0  0
   -3.9260    3.1288    2.5750 C   0  0  0  1  0  0  0  0  0  0  0  0
    1.1080   -0.8203    2.3703 N   0  0  0  1  0  0  0  0  0  0  0  0
    2.7656   -2.1351    1.3718 C   0  0  0  1  0  0  0  0  0  0  0  0
    2.3233   -1.6674    0.1173 C   0  0  0  1  0  0  0  0  0  0  0  0
    3.1247   -2.2681   -0.8138 N   0  0  0  1  0  0  0  0  0  0  0  0
    3.7952   -2.9822    1.1540 N   0  0  0  1  0  0  0  0  0  0  0  0
    4.0267   -3.0791   -0.1088 N   0  0  0  1  0  0  0  0  0  0  0  0
    3.6641   -2.1091   -6.3289 O   0  0  0  1  0  0  0  0  0  0  0  0
   -0.3146    0.4725    1.0871 N   0  0  0  1  0  0  0  0  0  0  0  0
    3.4827   -3.3656   -7.0004 C   0  0  0  1  0  0  0  0  0  0  0  0
   -2.9895    2.0874    2.5482 N   0  0  0  1  0  0  0  0  0  0  0  0
   -1.8561    2.1781    1.9293 C   0  0  0  1  0  0  0  0  0  0  0  0
   -5.0539    3.1015    3.3743 C   0  0  0  1  0  0  0  0  0  0  0  0
   -5.8691    4.2166    3.4118 C   0  0  0  1  0  0  0  0  0  0  0  0
   -5.6269    5.3279    2.7099 N   0  0  0  1  0  0  0  0  0  0  0  0
   -4.5324    5.3390    1.9359 C   0  0  0  1  0  0  0  0  0  0  0  0
   -3.6601    4.2686    1.8417 C   0  0  0  1  0  0  0  0  0  0  0  0
    2.4000   -1.9888    3.4625 H   0  0  0  1  0  0  0  0  0  0  0  0
    3.3332   -4.3009   -2.4817 H   0  0  0  1  0  0  0  0  0  0  0  0
    3.3639   -0.0087   -4.7362 H   0  0  0  1  0  0  0  0  0  0  0  0
    3.0993   -0.1113   -2.3307 H   0  0  0  1  0  0  0  0  0  0  0  0
    3.5983   -4.1980   -4.8911 H   0  0  0  1  0  0  0  0  0  0  0  0
   -0.2465    1.2496    3.0062 H   0  0  0  1  0  0  0  0  0  0  0  0
   -2.2495   -0.7442    2.0750 H   0  0  0  1  0  0  0  0  0  0  0  0
   -1.5719   -0.5403    3.6729 H   0  0  0  1  0  0  0  0  0  0  0  0
   -3.2650    0.8484    4.3172 H   0  0  0  1  0  0  0  0  0  0  0  0
   -4.1168    0.2600    2.9093 H   0  0  0  1  0  0  0  0  0  0  0  0
   -0.6209    0.7626    0.2026 H   0  0  0  1  0  0  0  0  0  0  0  0
    2.6176   -3.8584   -6.6085 H   0  0  0  1  0  0  0  0  0  0  0  0
    4.3444   -3.9805   -6.8448 H   0  0  0  1  0  0  0  0  0  0  0  0
    3.3510   -3.1939   -8.0483 H   0  0  0  1  0  0  0  0  0  0  0  0
   -2.0301    2.1977    0.8738 H   0  0  0  1  0  0  0  0  0  0  0  0
   -1.3620    3.0794    2.2267 H   0  0  0  1  0  0  0  0  0  0  0  0
   -5.2844    2.2575    3.9367 H   0  0  0  1  0  0  0  0  0  0  0  0
   -6.7143    4.1898    4.0171 H   0  0  0  1  0  0  0  0  0  0  0  0
   -4.3289    6.1934    1.3790 H   0  0  0  1  0  0  0  0  0  0  0  0
   -2.8203    4.3216    1.2305 H   0  0  0  1  0  0  0  0  0  0  0  0
  1  3  4  0  0  0  0
  1 14  4  0  0  0  0
  1 21  1  0  0  0  0
  2 14  4  0  0  0  0
  2 15  4  0  0  0  0
  2 30  1  0  0  0  0
  3 16  4  0  0  0  0
  4  5  4  0  0  0  0
  4  7  4  0  0  0  0
  4 17  1  0  0  0  0
  5  9  4  0  0  0  0
  5 31  1  0  0  0  0
  6  7  4  0  0  0  0
  6  8  4  0  0  0  0
  6 32  1  0  0  0  0
  7 33  1  0  0  0  0
  8  9  4  0  0  0  0
  8 20  1  0  0  0  0
  9 34  1  0  0  0  0
 10 11  1  0  0  0  0
 10 21  1  0  0  0  0
 10 24  1  0  0  0  0
 10 35  1  0  0  0  0
 11 12  1  0  0  0  0
 11 36  1  0  0  0  0
 11 37  1  0  0  0  0
 12 23  1  0  0  0  0
 12 38  1  0  0  0  0
 12 39  1  0  0  0  0
 13 23  1  0  0  0  0
 13 25  4  0  0  0  0
 13 29  4  0  0  0  0
 15 16  4  0  0  0  0
 15 18  4  0  0  0  0
 16 17  4  0  0  0  0
 17 19  4  0  0  0  0
 18 19  4  0  0  0  0
 20 22  1  0  0  0  0
 21 40  1  0  0  0  0
 22 41  1  0  0  0  0
 22 42  1  0  0  0  0
 22 43  1  0  0  0  0
 23 24  1  0  0  0  0
 24 44  1  0  0  0  0
 24 45  1  0  0  0  0
 25 26  4  0  0  0  0
 25 46  1  0  0  0  0
 26 27  4  0  0  0  0
 26 47  1  0  0  0  0
 27 28  4  0  0  0  0
 28 29  4  0  0  0  0
 28 48  1  0  0  0  0
 29 49  1  0  0  0  0
M  END
> <ConfClashScore>
0 

> <ConfOneFourInteractionScore>
-0.986948 

> <ConfScore>
0.0248495 

> <ConfScorePBest>
0.00352659 

> <ConfTolerance>
0.44136 

> <HETNAM>
     OWQ A 303  OWQ                                                       

> <pdb_OW>
Q_303 -16.5129 3.80749 7.62812 0.15963 1.39178 -0.28144 -3.20151 0 0 0 -1.30514 0 0 0 0 0 0 0 0 -8.31393

$$$$
6yky_lig_1.pdb
 OpenBabel04162415593D

 49 53  0  0  0  0  0  0  0  0999 V2000
    1.8349   -2.8331   -1.1038 C   0  0  0  1  0  0  0  0  0  0  0  0
    3.5886   -2.7743   -2.5972 C   0  0  0  1  0  0  0  0  0  0  0  0
    1.8493   -1.5296   -0.9262 N   0  0  0  1  0  0  0  0  0  0  0  0
    2.3849    1.7149   -1.0351 C   0  0  0  1  0  0  0  0  0  0  0  0
    1.0491    1.9745   -1.2766 C   0  0  0  1  0  0  0  0  0  0  0  0
    2.5698    3.7775    0.1725 C   0  0  0  1  0  0  0  0  0  0  0  0
    3.1472    2.6189   -0.3118 C   0  0  0  1  0  0  0  0  0  0  0  0
    1.2300    4.0381   -0.0696 C   0  0  0  1  0  0  0  0  0  0  0  0
    0.4702    3.1365   -0.7908 C   0  0  0  1  0  0  0  0  0  0  0  0
    0.0630   -3.0409    0.6036 C   0  0  0  1  0  0  0  0  0  0  0  0
   -1.0035   -4.0787    1.0508 C   0  0  0  1  0  0  0  0  0  0  0  0
   -2.2303   -3.2931    1.5597 C   0  0  0  1  0  0  0  0  0  0  0  0
   -2.7836   -0.8054    1.3016 C   0  0  0  1  0  0  0  0  0  0  0  0
    2.6785   -3.4460   -1.9156 N   0  0  0  1  0  0  0  0  0  0  0  0
    3.6487   -1.3843   -2.4462 C   0  0  0  1  0  0  0  0  0  0  0  0
    2.7293   -0.7724   -1.5696 C   0  0  0  1  0  0  0  0  0  0  0  0
    3.0037    0.5667   -1.6089 N   0  0  0  1  0  0  0  0  0  0  0  0
    4.4261   -0.4113   -2.9698 N   0  0  0  1  0  0  0  0  0  0  0  0
    4.0737    0.7347   -2.5006 N   0  0  0  1  0  0  0  0  0  0  0  0
    0.7798    5.1984    0.4461 O   0  0  0  1  0  0  0  0  0  0  0  0
    0.9293   -3.5699   -0.4355 N   0  0  0  1  0  0  0  0  0  0  0  0
   -0.6345    5.4413    0.2640 C   0  0  0  1  0  0  0  0  0  0  0  0
   -2.0073   -1.9325    0.9939 N   0  0  0  1  0  0  0  0  0  0  0  0
   -0.8624   -1.9310    0.0685 C   0  0  0  1  0  0  0  0  0  0  0  0
   -2.4162    0.3735    0.6795 C   0  0  0  1  0  0  0  0  0  0  0  0
   -3.1459    1.5178    0.9399 C   0  0  0  1  0  0  0  0  0  0  0  0
   -4.1937    1.5485    1.7690 N   0  0  0  1  0  0  0  0  0  0  0  0
   -4.5361    0.3994    2.3686 C   0  0  0  1  0  0  0  0  0  0  0  0
   -3.8636   -0.7925    2.1625 C   0  0  0  1  0  0  0  0  0  0  0  0
    4.2470   -3.2681   -3.2331 H   0  0  0  1  0  0  0  0  0  0  0  0
    0.4783    1.2981   -1.8227 H   0  0  0  1  0  0  0  0  0  0  0  0
    3.1406    4.4539    0.7187 H   0  0  0  1  0  0  0  0  0  0  0  0
    4.1533    2.4254   -0.1335 H   0  0  0  1  0  0  0  0  0  0  0  0
   -0.5359    3.3300   -0.9691 H   0  0  0  1  0  0  0  0  0  0  0  0
    0.6575   -2.7015    1.4258 H   0  0  0  1  0  0  0  0  0  0  0  0
   -1.2828   -4.6955    0.2224 H   0  0  0  1  0  0  0  0  0  0  0  0
   -0.6107   -4.6909    1.8356 H   0  0  0  1  0  0  0  0  0  0  0  0
   -3.1404   -3.7190    1.1921 H   0  0  0  1  0  0  0  0  0  0  0  0
   -2.2546   -3.2666    2.6291 H   0  0  0  1  0  0  0  0  0  0  0  0
    0.8493   -4.5197   -0.6631 H   0  0  0  1  0  0  0  0  0  0  0  0
   -0.9144    6.3314    0.7878 H   0  0  0  1  0  0  0  0  0  0  0  0
   -1.1909    4.6119    0.6479 H   0  0  0  1  0  0  0  0  0  0  0  0
   -0.8444    5.5604   -0.7785 H   0  0  0  1  0  0  0  0  0  0  0  0
   -1.1813   -2.1520   -0.9287 H   0  0  0  1  0  0  0  0  0  0  0  0
   -0.3651   -0.9837    0.0828 H   0  0  0  1  0  0  0  0  0  0  0  0
   -1.6061    0.3986    0.0279 H   0  0  0  1  0  0  0  0  0  0  0  0
   -2.8653    2.4003    0.4664 H   0  0  0  1  0  0  0  0  0  0  0  0
   -5.3465    0.4038    3.0204 H   0  0  0  1  0  0  0  0  0  0  0  0
   -4.1656   -1.6620    2.6467 H   0  0  0  1  0  0  0  0  0  0  0  0
  1  3  4  0  0  0  0
  1 14  4  0  0  0  0
  1 21  1  0  0  0  0
  2 14  4  0  0  0  0
  2 15  4  0  0  0  0
  2 30  1  0  0  0  0
  3 16  4  0  0  0  0
  4  5  4  0  0  0  0
  4  7  4  0  0  0  0
  4 17  1  0  0  0  0
  5  9  4  0  0  0  0
  5 31  1  0  0  0  0
  6  7  4  0  0  0  0
  6  8  4  0  0  0  0
  6 32  1  0  0  0  0
  7 33  1  0  0  0  0
  8  9  4  0  0  0  0
  8 20  1  0  0  0  0
  9 34  1  0  0  0  0
 10 11  1  0  0  0  0
 10 21  1  0  0  0  0
 10 24  1  0  0  0  0
 10 35  1  0  0  0  0
 11 12  1  0  0  0  0
 11 36  1  0  0  0  0
 11 37  1  0  0  0  0
 12 23  1  0  0  0  0
 12 38  1  0  0  0  0
 12 39  1  0  0  0  0
 13 23  1  0  0  0  0
 13 25  4  0  0  0  0
 13 29  4  0  0  0  0
 15 16  4  0  0  0  0
 15 18  4  0  0  0  0
 16 17  4  0  0  0  0
 17 19  4  0  0  0  0
 18 19  4  0  0  0  0
 20 22  1  0  0  0  0
 21 40  1  0  0  0  0
 22 41  1  0  0  0  0
 22 42  1  0  0  0  0
 22 43  1  0  0  0  0
 23 24  1  0  0  0  0
 24 44  1  0  0  0  0
 24 45  1  0  0  0  0
 25 26  4  0  0  0  0
 25 46  1  0  0  0  0
 26 27  4  0  0  0  0
 26 47  1  0  0  0  0
 27 28  4  0  0  0  0
 28 29  4  0  0  0  0
 28 48  1  0  0  0  0
 29 49  1  0  0  0  0
M  END
> <ConfClashScore>
0 

> <ConfOneFourInteractionScore>
-0.987833 

> <ConfScore>
0.0251536 

> <ConfScorePBest>
0.00351326 

> <ConfTolerance>
0.395569 

> <HETNAM>
     OWQ A 303  OWQ                                                       

> <pdb_OW>
Q_303 -16.5129 3.80749 7.62812 0.15963 1.39178 -0.28144 -3.20151 0 0 0 -1.30514 0 0 0 0 0 0 0 0 -8.31393

$$$$
6yky_lig_1.pdb
 OpenBabel04162415593D

 49 53  0  0  0  0  0  0  0  0999 V2000
    2.0751   -2.6489   -1.4740 C   0  0  0  1  0  0  0  0  0  0  0  0
    3.8894   -2.2259   -2.8301 C   0  0  0  1  0  0  0  0  0  0  0  0
    1.9648   -1.3899   -1.1085 N   0  0  0  1  0  0  0  0  0  0  0  0
    2.2085    1.7777   -0.6047 C   0  0  0  1  0  0  0  0  0  0  0  0
    0.8633    1.9705   -0.8561 C   0  0  0  1  0  0  0  0  0  0  0  0
    2.1386    3.4765    1.0853 C   0  0  0  1  0  0  0  0  0  0  0  0
    2.8479    2.5336    0.3655 C   0  0  0  1  0  0  0  0  0  0  0  0
    0.7893    3.6701    0.8333 C   0  0  0  1  0  0  0  0  0  0  0  0
    0.1521    2.9162   -0.1341 C   0  0  0  1  0  0  0  0  0  0  0  0
    0.3001   -2.9828    0.1223 C   0  0  0  1  0  0  0  0  0  0  0  0
   -0.7605   -4.0069    0.6131 C   0  0  0  1  0  0  0  0  0  0  0  0
   -1.9739   -3.2061    1.1302 C   0  0  0  1  0  0  0  0  0  0  0  0
   -2.5361   -0.7044    0.8358 C   0  0  0  1  0  0  0  0  0  0  0  0
    3.0095   -3.0633   -2.3117 N   0  0  0  1  0  0  0  0  0  0  0  0
    3.8181   -0.8740   -2.4754 C   0  0  0  1  0  0  0  0  0  0  0  0
    2.8052   -0.4764   -1.5787 C   0  0  0  1  0  0  0  0  0  0  0  0
    2.9612    0.8711   -1.4059 N   0  0  0  1  0  0  0  0  0  0  0  0
    4.5313    0.2258   -2.8024 N   0  0  0  1  0  0  0  0  0  0  0  0
    4.0555    1.2564   -2.1949 N   0  0  0  1  0  0  0  0  0  0  0  0
    0.1440    4.6273    1.5808 O   0  0  0  1  0  0  0  0  0  0  0  0
    1.1509   -3.5419   -0.9323 N   0  0  0  1  0  0  0  0  0  0  0  0
   -1.2814    4.6633    1.3370 C   0  0  0  1  0  0  0  0  0  0  0  0
   -1.7580   -1.8586    0.5314 N   0  0  0  1  0  0  0  0  0  0  0  0
   -0.6323   -1.8809   -0.4170 C   0  0  0  1  0  0  0  0  0  0  0  0
   -2.3802    0.4585    0.1044 C   0  0  0  1  0  0  0  0  0  0  0  0
   -3.2200    1.5248    0.3643 C   0  0  0  1  0  0  0  0  0  0  0  0
   -4.1802    1.4944    1.2933 N   0  0  0  1  0  0  0  0  0  0  0  0
   -4.3173    0.3622    1.9980 C   0  0  0  1  0  0  0  0  0  0  0  0
   -3.5229   -0.7538    1.8010 C   0  0  0  1  0  0  0  0  0  0  0  0
    4.6201   -2.5642   -3.4883 H   0  0  0  1  0  0  0  0  0  0  0  0
    0.3846    1.4061   -1.5868 H   0  0  0  1  0  0  0  0  0  0  0  0
    2.6173    4.0409    1.8161 H   0  0  0  1  0  0  0  0  0  0  0  0
    3.8611    2.3912    0.5518 H   0  0  0  1  0  0  0  0  0  0  0  0
   -0.8612    3.0586   -0.3204 H   0  0  0  1  0  0  0  0  0  0  0  0
    0.9125   -2.6284    0.9250 H   0  0  0  1  0  0  0  0  0  0  0  0
   -1.0588   -4.6400   -0.1963 H   0  0  0  1  0  0  0  0  0  0  0  0
   -0.3537   -4.6040    1.4024 H   0  0  0  1  0  0  0  0  0  0  0  0
   -1.9763   -3.1571    2.1991 H   0  0  0  1  0  0  0  0  0  0  0  0
   -2.8928   -3.6363    0.7903 H   0  0  0  1  0  0  0  0  0  0  0  0
    1.0760   -4.4714   -1.2336 H   0  0  0  1  0  0  0  0  0  0  0  0
   -1.7341    3.7787    1.7338 H   0  0  0  1  0  0  0  0  0  0  0  0
   -1.4616    4.7141    0.2835 H   0  0  0  1  0  0  0  0  0  0  0  0
   -1.7029    5.5238    1.8133 H   0  0  0  1  0  0  0  0  0  0  0  0
   -0.1317   -0.9354   -0.4328 H   0  0  0  1  0  0  0  0  0  0  0  0
   -0.9723   -2.1215   -1.4026 H   0  0  0  1  0  0  0  0  0  0  0  0
   -1.6448    0.5294   -0.6276 H   0  0  0  1  0  0  0  0  0  0  0  0
   -3.0985    2.3954   -0.1916 H   0  0  0  1  0  0  0  0  0  0  0  0
   -5.0566    0.3205    2.7283 H   0  0  0  1  0  0  0  0  0  0  0  0
   -3.6662   -1.6132    2.3688 H   0  0  0  1  0  0  0  0  0  0  0  0
  1  3  4  0  0  0  0
  1 14  4  0  0  0  0
  1 21  1  0  0  0  0
  2 14  4  0  0  0  0
  2 15  4  0  0  0  0
  2 30  1  0  0  0  0
  3 16  4  0  0  0  0
  4  5  4  0  0  0  0
  4  7  4  0  0  0  0
  4 17  1  0  0  0  0
  5  9  4  0  0  0  0
  5 31  1  0  0  0  0
  6  7  4  0  0  0  0
  6  8  4  0  0  0  0
  6 32  1  0  0  0  0
  7 33  1  0  0  0  0
  8  9  4  0  0  0  0
  8 20  1  0  0  0  0
  9 34  1  0  0  0  0
 10 11  1  0  0  0  0
 10 21  1  0  0  0  0
 10 24  1  0  0  0  0
 10 35  1  0  0  0  0
 11 12  1  0  0  0  0
 11 36  1  0  0  0  0
 11 37  1  0  0  0  0
 12 23  1  0  0  0  0
 12 38  1  0  0  0  0
 12 39  1  0  0  0  0
 13 23  1  0  0  0  0
 13 25  4  0  0  0  0
 13 29  4  0  0  0  0
 15 16  4  0  0  0  0
 15 18  4  0  0  0  0
 16 17  4  0  0  0  0
 17 19  4  0  0  0  0
 18 19  4  0  0  0  0
 20 22  1  0  0  0  0
 21 40  1  0  0  0  0
 22 41  1  0  0  0  0
 22 42  1  0  0  0  0
 22 43  1  0  0  0  0
 23 24  1  0  0  0  0
 24 44  1  0  0  0  0
 24 45  1  0  0  0  0
 25 26  4  0  0  0  0
 25 46  1  0  0  0  0
 26 27  4  0  0  0  0
 26 47  1  0  0  0  0
 27 28  4  0  0  0  0
 28 29  4  0  0  0  0
 28 48  1  0  0  0  0
 29 49  1  0  0  0  0
M  END
> <ConfClashScore>
0 

> <ConfOneFourInteractionScore>
-0.984874 

> <ConfScore>
0.0251536 

> <ConfScorePBest>
0.00349994 

> <ConfTolerance>
0.464313 

> <HETNAM>
     OWQ A 303  OWQ                                                       

> <pdb_OW>
Q_303 -16.5129 3.80749 7.62812 0.15963 1.39178 -0.28144 -3.20151 0 0 0 -1.30514 0 0 0 0 0 0 0 0 -8.31393

$$$$
6yky_lig_1.pdb
 OpenBabel04162415593D

 49 53  0  0  0  0  0  0  0  0999 V2000
    0.6116    0.4689    0.5095 C   0  0  0  1  0  0  0  0  0  0  0  0
    1.3378    2.5602   -0.1296 C   0  0  0  1  0  0  0  0  0  0  0  0
    1.2876   -0.1353   -0.4438 N   0  0  0  1  0  0  0  0  0  0  0  0
    3.1597   -0.9845   -2.9691 C   0  0  0  1  0  0  0  0  0  0  0  0
    2.7166   -2.1689   -2.4114 C   0  0  0  1  0  0  0  0  0  0  0  0
    4.4064   -2.2180   -4.6037 C   0  0  0  1  0  0  0  0  0  0  0  0
    4.0080   -1.0090   -4.0652 C   0  0  0  1  0  0  0  0  0  0  0  0
    3.9620   -3.4060   -4.0444 C   0  0  0  1  0  0  0  0  0  0  0  0
    3.1162   -3.3813   -2.9515 C   0  0  0  1  0  0  0  0  0  0  0  0
   -0.9196    0.2807    2.4435 C   0  0  0  1  0  0  0  0  0  0  0  0
   -1.9503   -0.7273    2.9285 C   0  0  0  1  0  0  0  0  0  0  0  0
   -2.9992    0.1485    3.5903 C   0  0  0  1  0  0  0  0  0  0  0  0
   -3.9880    2.3112    2.7630 C   0  0  0  1  0  0  0  0  0  0  0  0
    0.6312    1.7807    0.6686 N   0  0  0  1  0  0  0  0  0  0  0  0
    2.0765    1.9700   -1.1614 C   0  0  0  1  0  0  0  0  0  0  0  0
    2.0263    0.5671   -1.2940 C   0  0  0  1  0  0  0  0  0  0  0  0
    2.8233    0.2598   -2.3618 N   0  0  0  1  0  0  0  0  0  0  0  0
    2.8849    2.4452   -2.1338 N   0  0  0  1  0  0  0  0  0  0  0  0
    3.3341    1.4726   -2.8480 N   0  0  0  1  0  0  0  0  0  0  0  0
    4.4198   -4.5192   -4.6496 O   0  0  0  1  0  0  0  0  0  0  0  0
   -0.1267   -0.2742    1.3535 N   0  0  0  1  0  0  0  0  0  0  0  0
    4.2071   -5.7469   -3.9147 C   0  0  0  1  0  0  0  0  0  0  0  0
   -2.9787    1.3683    2.7700 N   0  0  0  1  0  0  0  0  0  0  0  0
   -1.7560    1.4661    1.9574 C   0  0  0  1  0  0  0  0  0  0  0  0
   -5.1035    2.1436    1.9635 C   0  0  0  1  0  0  0  0  0  0  0  0
   -6.0914    3.1094    1.9901 C   0  0  0  1  0  0  0  0  0  0  0  0
   -6.0260    4.2069    2.7500 N   0  0  0  1  0  0  0  0  0  0  0  0
   -4.9369    4.3587    3.5169 C   0  0  0  1  0  0  0  0  0  0  0  0
   -3.9026    3.4399    3.5545 C   0  0  0  1  0  0  0  0  0  0  0  0
    1.3452    3.5913    0.0057 H   0  0  0  1  0  0  0  0  0  0  0  0
    2.0834   -2.1505   -1.5866 H   0  0  0  1  0  0  0  0  0  0  0  0
    5.0396   -2.2364   -5.4285 H   0  0  0  1  0  0  0  0  0  0  0  0
    4.3446   -0.1178   -4.4823 H   0  0  0  1  0  0  0  0  0  0  0  0
    2.7796   -4.2726   -2.5344 H   0  0  0  1  0  0  0  0  0  0  0  0
   -0.2717    0.5755    3.2424 H   0  0  0  1  0  0  0  0  0  0  0  0
   -1.5198   -1.4094    3.6315 H   0  0  0  1  0  0  0  0  0  0  0  0
   -2.3678   -1.2747    2.1093 H   0  0  0  1  0  0  0  0  0  0  0  0
   -2.7359    0.3633    4.6049 H   0  0  0  1  0  0  0  0  0  0  0  0
   -3.9621   -0.3173    3.5621 H   0  0  0  1  0  0  0  0  0  0  0  0
   -0.1317   -1.2461    1.2281 H   0  0  0  1  0  0  0  0  0  0  0  0
    4.7809   -5.7267   -3.0118 H   0  0  0  1  0  0  0  0  0  0  0  0
    4.5145   -6.5786   -4.5137 H   0  0  0  1  0  0  0  0  0  0  0  0
    3.1688   -5.8437   -3.6751 H   0  0  0  1  0  0  0  0  0  0  0  0
   -1.2497    2.3918    2.1356 H   0  0  0  1  0  0  0  0  0  0  0  0
   -1.9797    1.3763    0.9150 H   0  0  0  1  0  0  0  0  0  0  0  0
   -5.1972    1.3064    1.3536 H   0  0  0  1  0  0  0  0  0  0  0  0
   -6.9288    2.9754    1.3880 H   0  0  0  1  0  0  0  0  0  0  0  0
   -4.8657    5.2083    4.1125 H   0  0  0  1  0  0  0  0  0  0  0  0
   -3.0769    3.5963    4.1671 H   0  0  0  1  0  0  0  0  0  0  0  0
  1  3  4  0  0  0  0
  1 14  4  0  0  0  0
  1 21  1  0  0  0  0
  2 14  4  0  0  0  0
  2 15  4  0  0  0  0
  2 30  1  0  0  0  0
  3 16  4  0  0  0  0
  4  5  4  0  0  0  0
  4  7  4  0  0  0  0
  4 17  1  0  0  0  0
  5  9  4  0  0  0  0
  5 31  1  0  0  0  0
  6  7  4  0  0  0  0
  6  8  4  0  0  0  0
  6 32  1  0  0  0  0
  7 33  1  0  0  0  0
  8  9  4  0  0  0  0
  8 20  1  0  0  0  0
  9 34  1  0  0  0  0
 10 11  1  0  0  0  0
 10 21  1  0  0  0  0
 10 24  1  0  0  0  0
 10 35  1  0  0  0  0
 11 12  1  0  0  0  0
 11 36  1  0  0  0  0
 11 37  1  0  0  0  0
 12 23  1  0  0  0  0
 12 38  1  0  0  0  0
 12 39  1  0  0  0  0
 13 23  1  0  0  0  0
 13 25  4  0  0  0  0
 13 29  4  0  0  0  0
 15 16  4  0  0  0  0
 15 18  4  0  0  0  0
 16 17  4  0  0  0  0
 17 19  4  0  0  0  0
 18 19  4  0  0  0  0
 20 22  1  0  0  0  0
 21 40  1  0  0  0  0
 22 41  1  0  0  0  0
 22 42  1  0  0  0  0
 22 43  1  0  0  0  0
 23 24  1  0  0  0  0
 24 44  1  0  0  0  0
 24 45  1  0  0  0  0
 25 26  4  0  0  0  0
 25 46  1  0  0  0  0
 26 27  4  0  0  0  0
 26 47  1  0  0  0  0
 27 28  4  0  0  0  0
 28 29  4  0  0  0  0
 28 48  1  0  0  0  0
 29 49  1  0  0  0  0
M  END
> <ConfClashScore>
0 

> <ConfOneFourInteractionScore>
-0.987833 

> <ConfScore>
0.0262927 

> <ConfScorePBest>
0.00348661 

> <ConfTolerance>
0.486941 

> <HETNAM>
     OWQ A 303  OWQ                                                       

> <pdb_OW>
Q_303 -16.5129 3.80749 7.62812 0.15963 1.39178 -0.28144 -3.20151 0 0 0 -1.30514 0 0 0 0 0 0 0 0 -8.31393

$$$$
6yky_lig_1.pdb
 OpenBabel04162415593D

 49 53  0  0  0  0  0  0  0  0999 V2000
    1.1636   -1.2863   -2.6191 C   0  0  0  1  0  0  0  0  0  0  0  0
    3.0537   -2.2706   -3.4956 C   0  0  0  1  0  0  0  0  0  0  0  0
    1.6801   -1.2033   -1.4120 N   0  0  0  1  0  0  0  0  0  0  0  0
    3.5125   -1.2967    1.2782 C   0  0  0  1  0  0  0  0  0  0  0  0
    2.2098   -1.1532    1.7169 C   0  0  0  1  0  0  0  0  0  0  0  0
    4.3142   -0.4771    3.3835 C   0  0  0  1  0  0  0  0  0  0  0  0
    4.5663   -0.9557    2.1116 C   0  0  0  1  0  0  0  0  0  0  0  0
    3.0077   -0.3330    3.8237 C   0  0  0  1  0  0  0  0  0  0  0  0
    1.9571   -0.6731    2.9925 C   0  0  0  1  0  0  0  0  0  0  0  0
   -0.9305   -0.2717   -1.7795 C   0  0  0  1  0  0  0  0  0  0  0  0
   -1.9913   -1.2953   -1.2884 C   0  0  0  1  0  0  0  0  0  0  0  0
   -3.2038   -0.4939   -0.7698 C   0  0  0  1  0  0  0  0  0  0  0  0
   -3.7405    1.9730   -1.0717 C   0  0  0  1  0  0  0  0  0  0  0  0
    1.8262   -1.8047   -3.6383 N   0  0  0  1  0  0  0  0  0  0  0  0
    3.6522   -2.2073   -2.2321 C   0  0  0  1  0  0  0  0  0  0  0  0
    2.9085   -1.6463   -1.1737 C   0  0  0  1  0  0  0  0  0  0  0  0
    3.7151   -1.7075   -0.0711 N   0  0  0  1  0  0  0  0  0  0  0  0
    4.8537   -2.5776   -1.7379 N   0  0  0  1  0  0  0  0  0  0  0  0
    4.9189   -2.2990   -0.4826 N   0  0  0  1  0  0  0  0  0  0  0  0
    2.8133    0.2611    5.0250 O   0  0  0  1  0  0  0  0  0  0  0  0
   -0.0887   -0.8257   -2.8256 N   0  0  0  1  0  0  0  0  0  0  0  0
    1.4664    0.3146    5.5204 C   0  0  0  1  0  0  0  0  0  0  0  0
   -2.9874    0.8538   -1.3680 N   0  0  0  1  0  0  0  0  0  0  0  0
   -1.8626    0.8312   -2.3174 C   0  0  0  1  0  0  0  0  0  0  0  0
   -3.4054    2.7857   -0.0045 C   0  0  0  1  0  0  0  0  0  0  0  0
   -4.1839    3.8978    0.2541 C   0  0  0  1  0  0  0  0  0  0  0  0
   -5.2533    4.2318   -0.4746 N   0  0  0  1  0  0  0  0  0  0  0  0
   -5.5692    3.4326   -1.5035 C   0  0  0  1  0  0  0  0  0  0  0  0
   -4.8432    2.3022   -1.8356 C   0  0  0  1  0  0  0  0  0  0  0  0
    3.5649   -2.6763   -4.3053 H   0  0  0  1  0  0  0  0  0  0  0  0
    1.4191   -1.4053    1.0900 H   0  0  0  1  0  0  0  0  0  0  0  0
    5.1049   -0.2250    4.0104 H   0  0  0  1  0  0  0  0  0  0  0  0
    5.5465   -1.0600    1.7800 H   0  0  0  1  0  0  0  0  0  0  0  0
    0.9770   -0.5689    3.3241 H   0  0  0  1  0  0  0  0  0  0  0  0
   -0.3171    0.0818   -0.9772 H   0  0  0  1  0  0  0  0  0  0  0  0
   -2.2908   -1.9277   -2.0979 H   0  0  0  1  0  0  0  0  0  0  0  0
   -1.5844   -1.8931   -0.4998 H   0  0  0  1  0  0  0  0  0  0  0  0
   -3.2052   -0.4455    0.2991 H   0  0  0  1  0  0  0  0  0  0  0  0
   -4.1233   -0.9232   -1.1091 H   0  0  0  1  0  0  0  0  0  0  0  0
   -0.4512   -0.8676   -3.7352 H   0  0  0  1  0  0  0  0  0  0  0  0
    1.2447   -0.5880    6.0505 H   0  0  0  1  0  0  0  0  0  0  0  0
    0.7887    0.4213    4.6993 H   0  0  0  1  0  0  0  0  0  0  0  0
    1.3623    1.1503    6.1804 H   0  0  0  1  0  0  0  0  0  0  0  0
   -1.3612    1.7763   -2.3331 H   0  0  0  1  0  0  0  0  0  0  0  0
   -2.2036    0.5914   -3.3029 H   0  0  0  1  0  0  0  0  0  0  0  0
   -2.5830    2.5643    0.5922 H   0  0  0  1  0  0  0  0  0  0  0  0
   -3.9244    4.5059    1.0569 H   0  0  0  1  0  0  0  0  0  0  0  0
   -6.4004    3.6738   -2.0802 H   0  0  0  1  0  0  0  0  0  0  0  0
   -5.1225    1.7118   -2.6450 H   0  0  0  1  0  0  0  0  0  0  0  0
  1  3  4  0  0  0  0
  1 14  4  0  0  0  0
  1 21  1  0  0  0  0
  2 14  4  0  0  0  0
  2 15  4  0  0  0  0
  2 30  1  0  0  0  0
  3 16  4  0  0  0  0
  4  5  4  0  0  0  0
  4  7  4  0  0  0  0
  4 17  1  0  0  0  0
  5  9  4  0  0  0  0
  5 31  1  0  0  0  0
  6  7  4  0  0  0  0
  6  8  4  0  0  0  0
  6 32  1  0  0  0  0
  7 33  1  0  0  0  0
  8  9  4  0  0  0  0
  8 20  1  0  0  0  0
  9 34  1  0  0  0  0
 10 11  1  0  0  0  0
 10 21  1  0  0  0  0
 10 24  1  0  0  0  0
 10 35  1  0  0  0  0
 11 12  1  0  0  0  0
 11 36  1  0  0  0  0
 11 37  1  0  0  0  0
 12 23  1  0  0  0  0
 12 38  1  0  0  0  0
 12 39  1  0  0  0  0
 13 23  1  0  0  0  0
 13 25  4  0  0  0  0
 13 29  4  0  0  0  0
 15 16  4  0  0  0  0
 15 18  4  0  0  0  0
 16 17  4  0  0  0  0
 17 19  4  0  0  0  0
 18 19  4  0  0  0  0
 20 22  1  0  0  0  0
 21 40  1  0  0  0  0
 22 41  1  0  0  0  0
 22 42  1  0  0  0  0
 22 43  1  0  0  0  0
 23 24  1  0  0  0  0
 24 44  1  0  0  0  0
 24 45  1  0  0  0  0
 25 26  4  0  0  0  0
 25 46  1  0  0  0  0
 26 27  4  0  0  0  0
 26 47  1  0  0  0  0
 27 28  4  0  0  0  0
 28 29  4  0  0  0  0
 28 48  1  0  0  0  0
 29 49  1  0  0  0  0
M  END
> <ConfClashScore>
0 

> <ConfOneFourInteractionScore>
-0.986948 

> <ConfScore>
0.0264872 

> <ConfScorePBest>
0.00347328 

> <ConfTolerance>
0.469746 

> <HETNAM>
     OWQ A 303  OWQ                                                       

> <pdb_OW>
Q_303 -16.5129 3.80749 7.62812 0.15963 1.39178 -0.28144 -3.20151 0 0 0 -1.30514 0 0 0 0 0 0 0 0 -8.31393

$$$$
6yky_lig_1.pdb
 OpenBabel04162415593D

 49 53  0  0  0  0  0  0  0  0999 V2000
    0.5094    0.3126    0.6841 C   0  0  0  1  0  0  0  0  0  0  0  0
    1.1887    2.4108    0.0167 C   0  0  0  1  0  0  0  0  0  0  0  0
    1.1563   -0.2855   -0.2930 N   0  0  0  1  0  0  0  0  0  0  0  0
    2.9430   -1.1176   -2.8850 C   0  0  0  1  0  0  0  0  0  0  0  0
    3.8822   -1.1597   -3.8981 C   0  0  0  1  0  0  0  0  0  0  0  0
    2.5050   -3.4547   -3.1908 C   0  0  0  1  0  0  0  0  0  0  0  0
    2.2514   -2.2661   -2.5325 C   0  0  0  1  0  0  0  0  0  0  0  0
    3.4469   -3.4971   -4.2069 C   0  0  0  1  0  0  0  0  0  0  0  0
    4.1364   -2.3519   -4.5582 C   0  0  0  1  0  0  0  0  0  0  0  0
   -0.8150    0.1298    2.7492 C   0  0  0  1  0  0  0  0  0  0  0  0
   -1.8001   -0.8630    3.4055 C   0  0  0  1  0  0  0  0  0  0  0  0
   -3.0131   -0.0792    3.8393 C   0  0  0  1  0  0  0  0  0  0  0  0
   -3.7721    2.2916    3.0648 C   0  0  0  1  0  0  0  0  0  0  0  0
    0.5205    1.6247    0.8412 N   0  0  0  1  0  0  0  0  0  0  0  0
    1.8951    1.8273   -1.0411 C   0  0  0  1  0  0  0  0  0  0  0  0
    1.8553    0.4238   -1.1705 C   0  0  0  1  0  0  0  0  0  0  0  0
    2.6157    0.1238   -2.2668 N   0  0  0  1  0  0  0  0  0  0  0  0
    2.6619    2.3100   -2.0432 N   0  0  0  1  0  0  0  0  0  0  0  0
    3.0950    1.3415   -2.7726 N   0  0  0  1  0  0  0  0  0  0  0  0
    3.6441   -4.6909   -4.8150 O   0  0  0  1  0  0  0  0  0  0  0  0
   -0.1989   -0.4480    1.5678 N   0  0  0  1  0  0  0  0  0  0  0  0
    4.6615   -4.7519   -5.8267 C   0  0  0  1  0  0  0  0  0  0  0  0
   -2.8174    1.2357    3.0533 N   0  0  0  1  0  0  0  0  0  0  0  0
   -1.7115    1.2962    2.3830 C   0  0  0  1  0  0  0  0  0  0  0  0
   -3.5274    3.5351    2.5120 C   0  0  0  1  0  0  0  0  0  0  0  0
   -4.5198    4.4949    2.5695 C   0  0  0  1  0  0  0  0  0  0  0  0
   -5.7117    4.2866    3.1372 N   0  0  0  1  0  0  0  0  0  0  0  0
   -5.9338    3.0779    3.6730 C   0  0  0  1  0  0  0  0  0  0  0  0
   -4.9981    2.0583    3.6566 C   0  0  0  1  0  0  0  0  0  0  0  0
    1.1898    3.4421    0.1508 H   0  0  0  1  0  0  0  0  0  0  0  0
    4.3981   -0.2971   -4.1651 H   0  0  0  1  0  0  0  0  0  0  0  0
    1.9890   -4.3173   -2.9237 H   0  0  0  1  0  0  0  0  0  0  0  0
    1.5419   -2.2334   -1.7729 H   0  0  0  1  0  0  0  0  0  0  0  0
    4.8459   -2.3845   -5.3178 H   0  0  0  1  0  0  0  0  0  0  0  0
   -0.0537    0.4301    3.4385 H   0  0  0  1  0  0  0  0  0  0  0  0
   -1.3413   -1.3251    4.2545 H   0  0  0  1  0  0  0  0  0  0  0  0
   -2.0848   -1.6152    2.6998 H   0  0  0  1  0  0  0  0  0  0  0  0
   -3.0122    0.0917    4.8955 H   0  0  0  1  0  0  0  0  0  0  0  0
   -3.9199   -0.5727    3.5581 H   0  0  0  1  0  0  0  0  0  0  0  0
   -0.2945   -1.4090    1.4011 H   0  0  0  1  0  0  0  0  0  0  0  0
    4.6789   -5.7313   -6.2572 H   0  0  0  1  0  0  0  0  0  0  0  0
    5.6138   -4.5385   -5.3879 H   0  0  0  1  0  0  0  0  0  0  0  0
    4.4500   -4.0313   -6.5889 H   0  0  0  1  0  0  0  0  0  0  0  0
   -1.2096    2.2132    2.6110 H   0  0  0  1  0  0  0  0  0  0  0  0
   -1.9300    1.2593    1.3362 H   0  0  0  1  0  0  0  0  0  0  0  0
   -2.6136    3.7441    2.0615 H   0  0  0  1  0  0  0  0  0  0  0  0
   -4.3296    5.4271    2.1494 H   0  0  0  1  0  0  0  0  0  0  0  0
   -6.8540    2.8977    4.1228 H   0  0  0  1  0  0  0  0  0  0  0  0
   -5.2140    1.1341    4.0818 H   0  0  0  1  0  0  0  0  0  0  0  0
  1  3  4  0  0  0  0
  1 14  4  0  0  0  0
  1 21  1  0  0  0  0
  2 14  4  0  0  0  0
  2 15  4  0  0  0  0
  2 30  1  0  0  0  0
  3 16  4  0  0  0  0
  4  5  4  0  0  0  0
  4  7  4  0  0  0  0
  4 17  1  0  0  0  0
  5  9  4  0  0  0  0
  5 31  1  0  0  0  0
  6  7  4  0  0  0  0
  6  8  4  0  0  0  0
  6 32  1  0  0  0  0
  7 33  1  0  0  0  0
  8  9  4  0  0  0  0
  8 20  1  0  0  0  0
  9 34  1  0  0  0  0
 10 11  1  0  0  0  0
 10 21  1  0  0  0  0
 10 24  1  0  0  0  0
 10 35  1  0  0  0  0
 11 12  1  0  0  0  0
 11 36  1  0  0  0  0
 11 37  1  0  0  0  0
 12 23  1  0  0  0  0
 12 38  1  0  0  0  0
 12 39  1  0  0  0  0
 13 23  1  0  0  0  0
 13 25  4  0  0  0  0
 13 29  4  0  0  0  0
 15 16  4  0  0  0  0
 15 18  4  0  0  0  0
 16 17  4  0  0  0  0
 17 19  4  0  0  0  0
 18 19  4  0  0  0  0
 20 22  1  0  0  0  0
 21 40  1  0  0  0  0
 22 41  1  0  0  0  0
 22 42  1  0  0  0  0
 22 43  1  0  0  0  0
 23 24  1  0  0  0  0
 24 44  1  0  0  0  0
 24 45  1  0  0  0  0
 25 26  4  0  0  0  0
 25 46  1  0  0  0  0
 26 27  4  0  0  0  0
 26 47  1  0  0  0  0
 27 28  4  0  0  0  0
 28 29  4  0  0  0  0
 28 48  1  0  0  0  0
 29 49  1  0  0  0  0
M  END
> <ConfClashScore>
0 

> <ConfOneFourInteractionScore>
-0.987833 

> <ConfScore>
0.0278133 

> <ConfScorePBest>
0.00345995 

> <ConfTolerance>
0.44566 

> <HETNAM>
     OWQ A 303  OWQ                                                       

> <pdb_OW>
Q_303 -16.5129 3.80749 7.62812 0.15963 1.39178 -0.28144 -3.20151 0 0 0 -1.30514 0 0 0 0 0 0 0 0 -8.31393

$$$$
6yky_lig_1.pdb
 OpenBabel04162415593D

 49 53  0  0  0  0  0  0  0  0999 V2000
    1.1167   -2.6341   -1.7700 C   0  0  0  1  0  0  0  0  0  0  0  0
    2.9885   -2.8492   -3.0965 C   0  0  0  1  0  0  0  0  0  0  0  0
    1.5751   -1.5539   -1.1752 N   0  0  0  1  0  0  0  0  0  0  0  0
    3.2602    1.0242   -0.1182 C   0  0  0  1  0  0  0  0  0  0  0  0
    2.7600    2.2523   -0.5080 C   0  0  0  1  0  0  0  0  0  0  0  0
    3.4528    1.8157    2.1365 C   0  0  0  1  0  0  0  0  0  0  0  0
    3.6096    0.8064    1.2054 C   0  0  0  1  0  0  0  0  0  0  0  0
    2.9512    3.0475    1.7457 C   0  0  0  1  0  0  0  0  0  0  0  0
    2.6028    3.2645    0.4259 C   0  0  0  1  0  0  0  0  0  0  0  0
   -0.9633   -2.5359   -0.3337 C   0  0  0  1  0  0  0  0  0  0  0  0
   -2.0296   -3.5739    0.1132 C   0  0  0  1  0  0  0  0  0  0  0  0
   -3.2568   -2.7885    0.6216 C   0  0  0  1  0  0  0  0  0  0  0  0
   -3.8122   -0.2985    0.3639 C   0  0  0  1  0  0  0  0  0  0  0  0
    1.7991   -3.2700   -2.7062 N   0  0  0  1  0  0  0  0  0  0  0  0
    3.5246   -1.7040   -2.4968 C   0  0  0  1  0  0  0  0  0  0  0  0
    2.7618   -1.0575   -1.5025 C   0  0  0  1  0  0  0  0  0  0  0  0
    3.5068    0.0129   -1.0913 N   0  0  0  1  0  0  0  0  0  0  0  0
    4.6762   -1.0132   -2.6440 N   0  0  0  1  0  0  0  0  0  0  0  0
    4.6937   -0.0087   -1.8389 N   0  0  0  1  0  0  0  0  0  0  0  0
    2.8474    3.9585    2.7424 O   0  0  0  1  0  0  0  0  0  0  0  0
   -0.0889   -3.0693   -1.3815 N   0  0  0  1  0  0  0  0  0  0  0  0
    2.2920    5.2393    2.4055 C   0  0  0  1  0  0  0  0  0  0  0  0
   -3.0339   -1.4279    0.0558 N   0  0  0  1  0  0  0  0  0  0  0  0
   -1.8887   -1.4262   -0.8692 C   0  0  0  1  0  0  0  0  0  0  0  0
   -4.9778   -0.0903   -0.3500 C   0  0  0  1  0  0  0  0  0  0  0  0
   -5.7030    1.0627   -0.1168 C   0  0  0  1  0  0  0  0  0  0  0  0
   -5.3351    1.9964    0.7658 N   0  0  0  1  0  0  0  0  0  0  0  0
   -4.2006    1.7837    1.4478 C   0  0  0  1  0  0  0  0  0  0  0  0
   -3.4157    0.6562    1.2799 C   0  0  0  1  0  0  0  0  0  0  0  0
    3.5159   -3.3583   -3.8343 H   0  0  0  1  0  0  0  0  0  0  0  0
    2.5016    2.4169   -1.5018 H   0  0  0  1  0  0  0  0  0  0  0  0
    3.7112    1.6511    3.1303 H   0  0  0  1  0  0  0  0  0  0  0  0
    3.9898   -0.1164    1.4978 H   0  0  0  1  0  0  0  0  0  0  0  0
    2.2227    4.1873    0.1335 H   0  0  0  1  0  0  0  0  0  0  0  0
   -0.3690   -2.1963    0.4888 H   0  0  0  1  0  0  0  0  0  0  0  0
   -2.3085   -4.1908   -0.7153 H   0  0  0  1  0  0  0  0  0  0  0  0
   -1.6370   -4.1860    0.8981 H   0  0  0  1  0  0  0  0  0  0  0  0
   -4.1667   -3.2147    0.2537 H   0  0  0  1  0  0  0  0  0  0  0  0
   -3.2815   -2.7620    1.6910 H   0  0  0  1  0  0  0  0  0  0  0  0
   -0.4328   -3.8504   -1.8632 H   0  0  0  1  0  0  0  0  0  0  0  0
    1.8566    5.6804    3.2777 H   0  0  0  1  0  0  0  0  0  0  0  0
    1.5392    5.1151    1.6553 H   0  0  0  1  0  0  0  0  0  0  0  0
    3.0664    5.8766    2.0324 H   0  0  0  1  0  0  0  0  0  0  0  0
   -2.2072   -1.6473   -1.8665 H   0  0  0  1  0  0  0  0  0  0  0  0
   -1.3916   -0.4788   -0.8546 H   0  0  0  1  0  0  0  0  0  0  0  0
   -5.3026   -0.7882   -1.0493 H   0  0  0  1  0  0  0  0  0  0  0  0
   -6.5800    1.2114   -0.6556 H   0  0  0  1  0  0  0  0  0  0  0  0
   -3.8956    2.5008    2.1365 H   0  0  0  1  0  0  0  0  0  0  0  0
   -2.5440    0.5303    1.8330 H   0  0  0  1  0  0  0  0  0  0  0  0
  1  3  4  0  0  0  0
  1 14  4  0  0  0  0
  1 21  1  0  0  0  0
  2 14  4  0  0  0  0
  2 15  4  0  0  0  0
  2 30  1  0  0  0  0
  3 16  4  0  0  0  0
  4  5  4  0  0  0  0
  4  7  4  0  0  0  0
  4 17  1  0  0  0  0
  5  9  4  0  0  0  0
  5 31  1  0  0  0  0
  6  7  4  0  0  0  0
  6  8  4  0  0  0  0
  6 32  1  0  0  0  0
  7 33  1  0  0  0  0
  8  9  4  0  0  0  0
  8 20  1  0  0  0  0
  9 34  1  0  0  0  0
 10 11  1  0  0  0  0
 10 21  1  0  0  0  0
 10 24  1  0  0  0  0
 10 35  1  0  0  0  0
 11 12  1  0  0  0  0
 11 36  1  0  0  0  0
 11 37  1  0  0  0  0
 12 23  1  0  0  0  0
 12 38  1  0  0  0  0
 12 39  1  0  0  0  0
 13 23  1  0  0  0  0
 13 25  4  0  0  0  0
 13 29  4  0  0  0  0
 15 16  4  0  0  0  0
 15 18  4  0  0  0  0
 16 17  4  0  0  0  0
 17 19  4  0  0  0  0
 18 19  4  0  0  0  0
 20 22  1  0  0  0  0
 21 40  1  0  0  0  0
 22 41  1  0  0  0  0
 22 42  1  0  0  0  0
 22 43  1  0  0  0  0
 23 24  1  0  0  0  0
 24 44  1  0  0  0  0
 24 45  1  0  0  0  0
 25 26  4  0  0  0  0
 25 46  1  0  0  0  0
 26 27  4  0  0  0  0
 26 47  1  0  0  0  0
 27 28  4  0  0  0  0
 28 29  4  0  0  0  0
 28 48  1  0  0  0  0
 29 49  1  0  0  0  0
M  END
> <ConfClashScore>
0 

> <ConfOneFourInteractionScore>
-0.991755 

> <ConfScore>
0.0290342 

> <ConfScorePBest>
0.00344662 

> <ConfTolerance>
0.425412 

> <HETNAM>
     OWQ A 303  OWQ                                                       

> <pdb_OW>
Q_303 -16.5129 3.80749 7.62812 0.15963 1.39178 -0.28144 -3.20151 0 0 0 -1.30514 0 0 0 0 0 0 0 0 -8.31393

$$$$
6yky_lig_1.pdb
 OpenBabel04162415593D

 49 53  0  0  0  0  0  0  0  0999 V2000
    0.7871   -0.1072    1.0305 C   0  0  0  1  0  0  0  0  0  0  0  0
    2.7512    0.8367    1.7793 C   0  0  0  1  0  0  0  0  0  0  0  0
    1.3366   -0.5397   -0.0839 N   0  0  0  1  0  0  0  0  0  0  0  0
    3.2718   -1.3132   -2.5858 C   0  0  0  1  0  0  0  0  0  0  0  0
    4.3515   -1.9888   -3.1225 C   0  0  0  1  0  0  0  0  0  0  0  0
    1.9589   -1.8781   -4.5105 C   0  0  0  1  0  0  0  0  0  0  0  0
    2.0745   -1.2554   -3.2820 C   0  0  0  1  0  0  0  0  0  0  0  0
    3.0417   -2.5557   -5.0489 C   0  0  0  1  0  0  0  0  0  0  0  0
    4.2354   -2.6132   -4.3546 C   0  0  0  1  0  0  0  0  0  0  0  0
   -1.1654    0.2172    2.4984 C   0  0  0  1  0  0  0  0  0  0  0  0
   -2.1637   -0.7795    3.1285 C   0  0  0  1  0  0  0  0  0  0  0  0
   -3.3676    0.0081    3.5800 C   0  0  0  1  0  0  0  0  0  0  0  0
   -4.0736    2.3809    2.8630 C   0  0  0  1  0  0  0  0  0  0  0  0
    1.4695    0.5635    1.9421 N   0  0  0  1  0  0  0  0  0  0  0  0
    3.3867    0.4001    0.6113 C   0  0  0  1  0  0  0  0  0  0  0  0
    2.6201   -0.3118   -0.3340 C   0  0  0  1  0  0  0  0  0  0  0  0
    3.4713   -0.6132   -1.3609 N   0  0  0  1  0  0  0  0  0  0  0  0
    4.6446    0.4989    0.1286 N   0  0  0  1  0  0  0  0  0  0  0  0
    4.7236   -0.0817   -1.0178 N   0  0  0  1  0  0  0  0  0  0  0  0
    2.8118   -3.1205   -6.2580 O   0  0  0  1  0  0  0  0  0  0  0  0
   -0.5498   -0.3428    1.2943 N   0  0  0  1  0  0  0  0  0  0  0  0
    3.8681   -3.9116   -6.8243 C   0  0  0  1  0  0  0  0  0  0  0  0
   -3.1546    1.3397    2.8273 N   0  0  0  1  0  0  0  0  0  0  0  0
   -2.0470    1.4033    2.1603 C   0  0  0  1  0  0  0  0  0  0  0  0
   -5.2120    2.2843    3.6418 C   0  0  0  1  0  0  0  0  0  0  0  0
   -6.0527    3.3775    3.7286 C   0  0  0  1  0  0  0  0  0  0  0  0
   -5.8257    4.5314    3.0935 N   0  0  0  1  0  0  0  0  0  0  0  0
   -4.7207    4.6097    2.3385 C   0  0  0  1  0  0  0  0  0  0  0  0
   -3.8231    3.5656    2.1986 C   0  0  0  1  0  0  0  0  0  0  0  0
    3.2775    1.3653    2.5040 H   0  0  0  1  0  0  0  0  0  0  0  0
    5.2510   -2.0286   -2.6019 H   0  0  0  1  0  0  0  0  0  0  0  0
    1.0594   -1.8382   -5.0310 H   0  0  0  1  0  0  0  0  0  0  0  0
    1.2633   -0.7436   -2.8799 H   0  0  0  1  0  0  0  0  0  0  0  0
    5.0467   -3.1250   -4.7566 H   0  0  0  1  0  0  0  0  0  0  0  0
   -0.4015    0.4908    3.1959 H   0  0  0  1  0  0  0  0  0  0  0  0
   -2.4563   -1.5103    2.4038 H   0  0  0  1  0  0  0  0  0  0  0  0
   -1.7119   -1.2682    3.9663 H   0  0  0  1  0  0  0  0  0  0  0  0
   -3.3664    0.1526    4.6402 H   0  0  0  1  0  0  0  0  0  0  0  0
   -4.2799   -0.4671    3.2854 H   0  0  0  1  0  0  0  0  0  0  0  0
   -1.0841   -0.8839    0.6761 H   0  0  0  1  0  0  0  0  0  0  0  0
    3.5371   -4.3420   -7.7464 H   0  0  0  1  0  0  0  0  0  0  0  0
    4.1342   -4.6918   -6.1421 H   0  0  0  1  0  0  0  0  0  0  0  0
    4.7202   -3.2905   -7.0065 H   0  0  0  1  0  0  0  0  0  0  0  0
   -1.5342    2.3081    2.4117 H   0  0  0  1  0  0  0  0  0  0  0  0
   -2.2642    1.3952    1.1126 H   0  0  0  1  0  0  0  0  0  0  0  0
   -5.4313    1.4054    4.1527 H   0  0  0  1  0  0  0  0  0  0  0  0
   -6.9058    3.2984    4.3182 H   0  0  0  1  0  0  0  0  0  0  0  0
   -4.5286    5.4982    1.8333 H   0  0  0  1  0  0  0  0  0  0  0  0
   -2.9760    3.6711    1.6045 H   0  0  0  1  0  0  0  0  0  0  0  0
  1  3  4  0  0  0  0
  1 14  4  0  0  0  0
  1 21  1  0  0  0  0
  2 14  4  0  0  0  0
  2 15  4  0  0  0  0
  2 30  1  0  0  0  0
  3 16  4  0  0  0  0
  4  5  4  0  0  0  0
  4  7  4  0  0  0  0
  4 17  1  0  0  0  0
  5  9  4  0  0  0  0
  5 31  1  0  0  0  0
  6  7  4  0  0  0  0
  6  8  4  0  0  0  0
  6 32  1  0  0  0  0
  7 33  1  0  0  0  0
  8  9  4  0  0  0  0
  8 20  1  0  0  0  0
  9 34  1  0  0  0  0
 10 11  1  0  0  0  0
 10 21  1  0  0  0  0
 10 24  1  0  0  0  0
 10 35  1  0  0  0  0
 11 12  1  0  0  0  0
 11 36  1  0  0  0  0
 11 37  1  0  0  0  0
 12 23  1  0  0  0  0
 12 38  1  0  0  0  0
 12 39  1  0  0  0  0
 13 23  1  0  0  0  0
 13 25  4  0  0  0  0
 13 29  4  0  0  0  0
 15 16  4  0  0  0  0
 15 18  4  0  0  0  0
 16 17  4  0  0  0  0
 17 19  4  0  0  0  0
 18 19  4  0  0  0  0
 20 22  1  0  0  0  0
 21 40  1  0  0  0  0
 22 41  1  0  0  0  0
 22 42  1  0  0  0  0
 22 43  1  0  0  0  0
 23 24  1  0  0  0  0
 24 44  1  0  0  0  0
 24 45  1  0  0  0  0
 25 26  4  0  0  0  0
 25 46  1  0  0  0  0
 26 27  4  0  0  0  0
 26 47  1  0  0  0  0
 27 28  4  0  0  0  0
 28 29  4  0  0  0  0
 28 48  1  0  0  0  0
 29 49  1  0  0  0  0
M  END
> <ConfClashScore>
0 

> <ConfOneFourInteractionScore>
-0.984874 

> <ConfScore>
0.0291116 

> <ConfScorePBest>
0.00343329 

> <ConfTolerance>
0.479953 

> <HETNAM>
     OWQ A 303  OWQ                                                       

> <pdb_OW>
Q_303 -16.5129 3.80749 7.62812 0.15963 1.39178 -0.28144 -3.20151 0 0 0 -1.30514 0 0 0 0 0 0 0 0 -8.31393

$$$$
6yky_lig_1.pdb
 OpenBabel04162415593D

 49 53  0  0  0  0  0  0  0  0999 V2000
    1.2381   -0.5052   -2.5914 C   0  0  0  1  0  0  0  0  0  0  0  0
    2.8599   -1.7624   -3.6396 C   0  0  0  1  0  0  0  0  0  0  0  0
    1.6104   -0.8955   -1.3915 N   0  0  0  1  0  0  0  0  0  0  0  0
    3.0087   -2.2293    1.2294 C   0  0  0  1  0  0  0  0  0  0  0  0
    4.1096   -2.1862    2.0638 C   0  0  0  1  0  0  0  0  0  0  0  0
    1.5600   -2.2697    3.1390 C   0  0  0  1  0  0  0  0  0  0  0  0
    1.7321   -2.2738    1.7676 C   0  0  0  1  0  0  0  0  0  0  0  0
    2.6641   -2.2264    3.9761 C   0  0  0  1  0  0  0  0  0  0  0  0
    3.9369   -2.1820    3.4392 C   0  0  0  1  0  0  0  0  0  0  0  0
   -0.4862    0.9000   -1.5405 C   0  0  0  1  0  0  0  0  0  0  0  0
   -1.4896   -0.1210   -0.9595 C   0  0  0  1  0  0  0  0  0  0  0  0
   -2.7307    0.6379   -0.5622 C   0  0  0  1  0  0  0  0  0  0  0  0
   -3.4467    2.9862   -1.3055 C   0  0  0  1  0  0  0  0  0  0  0  0
    1.8416   -0.9230   -3.6904 N   0  0  0  1  0  0  0  0  0  0  0  0
    3.2979   -2.2103   -2.3882 C   0  0  0  1  0  0  0  0  0  0  0  0
    2.6247   -1.7386   -1.2425 C   0  0  0  1  0  0  0  0  0  0  0  0
    3.2442   -2.3233   -0.1728 N   0  0  0  1  0  0  0  0  0  0  0  0
    4.2771   -3.0439   -1.9744 N   0  0  0  1  0  0  0  0  0  0  0  0
    4.2698   -3.1290   -0.6897 N   0  0  0  1  0  0  0  0  0  0  0  0
    2.6202   -2.2230    5.3296 O   0  0  0  1  0  0  0  0  0  0  0  0
    0.1915    0.3621   -2.7070 N   0  0  0  1  0  0  0  0  0  0  0  0
    1.3236   -2.2808    5.9443 C   0  0  0  1  0  0  0  0  0  0  0  0
   -2.5133    1.9764   -1.3012 N   0  0  0  1  0  0  0  0  0  0  0  0
   -1.3778    2.0671   -1.9163 C   0  0  0  1  0  0  0  0  0  0  0  0
   -4.5029    2.9736   -0.4133 C   0  0  0  1  0  0  0  0  0  0  0  0
   -5.4159    4.0102   -0.4495 C   0  0  0  1  0  0  0  0  0  0  0  0
   -5.3352    5.0310   -1.3084 N   0  0  0  1  0  0  0  0  0  0  0  0
   -4.3086    5.0282   -2.1706 C   0  0  0  1  0  0  0  0  0  0  0  0
   -3.3475    4.0329   -2.2013 C   0  0  0  1  0  0  0  0  0  0  0  0
    3.3266   -2.0840   -4.5116 H   0  0  0  1  0  0  0  0  0  0  0  0
    5.0675   -2.1568    1.6599 H   0  0  0  1  0  0  0  0  0  0  0  0
    0.6021   -2.2990    3.5429 H   0  0  0  1  0  0  0  0  0  0  0  0
    0.9039   -2.3103    1.1396 H   0  0  0  1  0  0  0  0  0  0  0  0
    4.7651   -2.1455    4.0671 H   0  0  0  1  0  0  0  0  0  0  0  0
    0.2383    1.1884   -0.8079 H   0  0  0  1  0  0  0  0  0  0  0  0
   -1.0661   -0.6022   -0.1028 H   0  0  0  1  0  0  0  0  0  0  0  0
   -1.7320   -0.8558   -1.6985 H   0  0  0  1  0  0  0  0  0  0  0  0
   -2.7816    0.7788    0.4973 H   0  0  0  1  0  0  0  0  0  0  0  0
   -3.6174    0.1433   -0.8997 H   0  0  0  1  0  0  0  0  0  0  0  0
   -0.1109    0.6292   -3.6001 H   0  0  0  1  0  0  0  0  0  0  0  0
    0.7717   -3.1023    5.5375 H   0  0  0  1  0  0  0  0  0  0  0  0
    0.7977   -1.3687    5.7533 H   0  0  0  1  0  0  0  0  0  0  0  0
    1.4352   -2.4144    7.0000 H   0  0  0  1  0  0  0  0  0  0  0  0
   -1.5463    2.0575   -2.9729 H   0  0  0  1  0  0  0  0  0  0  0  0
   -0.8978    2.9823   -1.6394 H   0  0  0  1  0  0  0  0  0  0  0  0
   -4.6082    2.1985    0.2721 H   0  0  0  1  0  0  0  0  0  0  0  0
   -6.2063    3.9954    0.2263 H   0  0  0  1  0  0  0  0  0  0  0  0
   -4.2307    5.8122   -2.8496 H   0  0  0  1  0  0  0  0  0  0  0  0
   -2.5655    4.0723   -2.8857 H   0  0  0  1  0  0  0  0  0  0  0  0
  1  3  4  0  0  0  0
  1 14  4  0  0  0  0
  1 21  1  0  0  0  0
  2 14  4  0  0  0  0
  2 15  4  0  0  0  0
  2 30  1  0  0  0  0
  3 16  4  0  0  0  0
  4  5  4  0  0  0  0
  4  7  4  0  0  0  0
  4 17  1  0  0  0  0
  5  9  4  0  0  0  0
  5 31  1  0  0  0  0
  6  7  4  0  0  0  0
  6  8  4  0  0  0  0
  6 32  1  0  0  0  0
  7 33  1  0  0  0  0
  8  9  4  0  0  0  0
  8 20  1  0  0  0  0
  9 34  1  0  0  0  0
 10 11  1  0  0  0  0
 10 21  1  0  0  0  0
 10 24  1  0  0  0  0
 10 35  1  0  0  0  0
 11 12  1  0  0  0  0
 11 36  1  0  0  0  0
 11 37  1  0  0  0  0
 12 23  1  0  0  0  0
 12 38  1  0  0  0  0
 12 39  1  0  0  0  0
 13 23  1  0  0  0  0
 13 25  4  0  0  0  0
 13 29  4  0  0  0  0
 15 16  4  0  0  0  0
 15 18  4  0  0  0  0
 16 17  4  0  0  0  0
 17 19  4  0  0  0  0
 18 19  4  0  0  0  0
 20 22  1  0  0  0  0
 21 40  1  0  0  0  0
 22 41  1  0  0  0  0
 22 42  1  0  0  0  0
 22 43  1  0  0  0  0
 23 24  1  0  0  0  0
 24 44  1  0  0  0  0
 24 45  1  0  0  0  0
 25 26  4  0  0  0  0
 25 46  1  0  0  0  0
 26 27  4  0  0  0  0
 26 47  1  0  0  0  0
 27 28  4  0  0  0  0
 28 29  4  0  0  0  0
 28 48  1  0  0  0  0
 29 49  1  0  0  0  0
M  END
> <ConfClashScore>
0 

> <ConfOneFourInteractionScore>
-0.986948 

> <ConfScore>
0.0295042 

> <ConfScorePBest>
0.00341997 

> <ConfTolerance>
0.495165 

> <HETNAM>
     OWQ A 303  OWQ                                                       

> <pdb_OW>
Q_303 -16.5129 3.80749 7.62812 0.15963 1.39178 -0.28144 -3.20151 0 0 0 -1.30514 0 0 0 0 0 0 0 0 -8.31393

$$$$
6yky_lig_1.pdb
 OpenBabel04162415593D

 49 53  0  0  0  0  0  0  0  0999 V2000
    1.3993   -2.6456   -1.5451 C   0  0  0  1  0  0  0  0  0  0  0  0
    3.3393   -2.9258   -2.7566 C   0  0  0  1  0  0  0  0  0  0  0  0
    1.7568   -1.4554   -1.1132 N   0  0  0  1  0  0  0  0  0  0  0  0
    3.2154    1.3722   -0.4201 C   0  0  0  1  0  0  0  0  0  0  0  0
    4.0267    1.6860    0.6539 C   0  0  0  1  0  0  0  0  0  0  0  0
    1.7010    3.1205    0.2102 C   0  0  0  1  0  0  0  0  0  0  0  0
    2.0495    2.0887   -0.6409 C   0  0  0  1  0  0  0  0  0  0  0  0
    2.5146    3.4353    1.2875 C   0  0  0  1  0  0  0  0  0  0  0  0
    3.6771    2.7208    1.5073 C   0  0  0  1  0  0  0  0  0  0  0  0
   -0.6535   -2.6724   -0.1650 C   0  0  0  1  0  0  0  0  0  0  0  0
   -1.7174   -3.7119    0.2842 C   0  0  0  1  0  0  0  0  0  0  0  0
   -2.9510   -2.9284    0.7796 C   0  0  0  1  0  0  0  0  0  0  0  0
   -3.5427   -0.4059    0.5090 C   0  0  0  1  0  0  0  0  0  0  0  0
    2.1645   -3.3672   -2.3454 N   0  0  0  1  0  0  0  0  0  0  0  0
    3.7696   -1.6652   -2.3274 C   0  0  0  1  0  0  0  0  0  0  0  0
    2.9210   -0.9301   -1.4743 C   0  0  0  1  0  0  0  0  0  0  0  0
    3.5730    0.2431   -1.2123 N   0  0  0  1  0  0  0  0  0  0  0  0
    4.8776   -0.9230   -2.5428 N   0  0  0  1  0  0  0  0  0  0  0  0
    4.7913    0.1929   -1.9063 N   0  0  0  1  0  0  0  0  0  0  0  0
    2.1705    4.4429    2.1243 O   0  0  0  1  0  0  0  0  0  0  0  0
    0.2216   -3.2052   -1.1947 N   0  0  0  1  0  0  0  0  0  0  0  0
    0.8853    5.0518    1.9245 C   0  0  0  1  0  0  0  0  0  0  0  0
   -2.7314   -1.5713    0.2044 N   0  0  0  1  0  0  0  0  0  0  0  0
   -1.5811   -1.5714   -0.7143 C   0  0  0  1  0  0  0  0  0  0  0  0
   -4.5601   -0.4798    1.4423 C   0  0  0  1  0  0  0  0  0  0  0  0
   -5.3050    0.6541    1.7047 C   0  0  0  1  0  0  0  0  0  0  0  0
   -5.0964    1.8269    1.0987 N   0  0  0  1  0  0  0  0  0  0  0  0
   -4.1097    1.8831    0.1929 C   0  0  0  1  0  0  0  0  0  0  0  0
   -3.3130    0.7979   -0.1281 C   0  0  0  1  0  0  0  0  0  0  0  0
    3.9324   -3.5031   -3.3863 H   0  0  0  1  0  0  0  0  0  0  0  0
    4.8994    1.1457    0.8217 H   0  0  0  1  0  0  0  0  0  0  0  0
    0.8283    3.6607    0.0423 H   0  0  0  1  0  0  0  0  0  0  0  0
    1.4370    1.8499   -1.4467 H   0  0  0  1  0  0  0  0  0  0  0  0
    4.2897    2.9596    2.3132 H   0  0  0  1  0  0  0  0  0  0  0  0
   -0.0654   -2.3235    0.6581 H   0  0  0  1  0  0  0  0  0  0  0  0
   -1.3263   -4.3159    1.0761 H   0  0  0  1  0  0  0  0  0  0  0  0
   -1.9888   -4.3366   -0.5410 H   0  0  0  1  0  0  0  0  0  0  0  0
   -3.8569   -3.3618    0.4100 H   0  0  0  1  0  0  0  0  0  0  0  0
   -2.9819   -2.8937    1.8486 H   0  0  0  1  0  0  0  0  0  0  0  0
   -0.0595   -4.0190   -1.6628 H   0  0  0  1  0  0  0  0  0  0  0  0
    0.1288    4.4465    2.3786 H   0  0  0  1  0  0  0  0  0  0  0  0
    0.6909    5.1381    0.8759 H   0  0  0  1  0  0  0  0  0  0  0  0
    0.8786    6.0245    2.3702 H   0  0  0  1  0  0  0  0  0  0  0  0
   -1.8930   -1.8017   -1.7115 H   0  0  0  1  0  0  0  0  0  0  0  0
   -1.0886   -0.6215   -0.7045 H   0  0  0  1  0  0  0  0  0  0  0  0
   -4.7609   -1.3720    1.9376 H   0  0  0  1  0  0  0  0  0  0  0  0
   -6.0670    0.5917    2.4097 H   0  0  0  1  0  0  0  0  0  0  0  0
   -3.9344    2.7862   -0.2923 H   0  0  0  1  0  0  0  0  0  0  0  0
   -2.5559    0.8871   -0.8354 H   0  0  0  1  0  0  0  0  0  0  0  0
  1  3  4  0  0  0  0
  1 14  4  0  0  0  0
  1 21  1  0  0  0  0
  2 14  4  0  0  0  0
  2 15  4  0  0  0  0
  2 30  1  0  0  0  0
  3 16  4  0  0  0  0
  4  5  4  0  0  0  0
  4  7  4  0  0  0  0
  4 17  1  0  0  0  0
  5  9  4  0  0  0  0
  5 31  1  0  0  0  0
  6  7  4  0  0  0  0
  6  8  4  0  0  0  0
  6 32  1  0  0  0  0
  7 33  1  0  0  0  0
  8  9  4  0  0  0  0
  8 20  1  0  0  0  0
  9 34  1  0  0  0  0
 10 11  1  0  0  0  0
 10 21  1  0  0  0  0
 10 24  1  0  0  0  0
 10 35  1  0  0  0  0
 11 12  1  0  0  0  0
 11 36  1  0  0  0  0
 11 37  1  0  0  0  0
 12 23  1  0  0  0  0
 12 38  1  0  0  0  0
 12 39  1  0  0  0  0
 13 23  1  0  0  0  0
 13 25  4  0  0  0  0
 13 29  4  0  0  0  0
 15 16  4  0  0  0  0
 15 18  4  0  0  0  0
 16 17  4  0  0  0  0
 17 19  4  0  0  0  0
 18 19  4  0  0  0  0
 20 22  1  0  0  0  0
 21 40  1  0  0  0  0
 22 41  1  0  0  0  0
 22 42  1  0  0  0  0
 22 43  1  0  0  0  0
 23 24  1  0  0  0  0
 24 44  1  0  0  0  0
 24 45  1  0  0  0  0
 25 26  4  0  0  0  0
 25 46  1  0  0  0  0
 26 27  4  0  0  0  0
 26 47  1  0  0  0  0
 27 28  4  0  0  0  0
 28 29  4  0  0  0  0
 28 48  1  0  0  0  0
 29 49  1  0  0  0  0
M  END
> <ConfClashScore>
0 

> <ConfOneFourInteractionScore>
-0.984874 

> <ConfScore>
0.0300294 

> <ConfScorePBest>
0.00340664 

> <ConfTolerance>
0.425818 

> <HETNAM>
     OWQ A 303  OWQ                                                       

> <pdb_OW>
Q_303 -16.5129 3.80749 7.62812 0.15963 1.39178 -0.28144 -3.20151 0 0 0 -1.30514 0 0 0 0 0 0 0 0 -8.31393

$$$$
6yky_lig_1.pdb
 OpenBabel04162415593D

 49 53  0  0  0  0  0  0  0  0999 V2000
    1.7931   -0.3420   -2.4650 C   0  0  0  1  0  0  0  0  0  0  0  0
    3.2872   -1.7574   -3.5013 C   0  0  0  1  0  0  0  0  0  0  0  0
    1.8016   -1.0360   -1.3473 N   0  0  0  1  0  0  0  0  0  0  0  0
    2.2420   -3.1152    1.0671 C   0  0  0  1  0  0  0  0  0  0  0  0
    0.9983   -2.5531    1.2848 C   0  0  0  1  0  0  0  0  0  0  0  0
    2.4342   -3.6017    3.4067 C   0  0  0  1  0  0  0  0  0  0  0  0
    2.9622   -3.6379    2.1299 C   0  0  0  1  0  0  0  0  0  0  0  0
    1.1868   -3.0379    3.6252 C   0  0  0  1  0  0  0  0  0  0  0  0
    0.4688   -2.5168    2.5654 C   0  0  0  1  0  0  0  0  0  0  0  0
    0.1771    1.3007   -1.5654 C   0  0  0  1  0  0  0  0  0  0  0  0
   -0.8896    0.2632   -1.1182 C   0  0  0  1  0  0  0  0  0  0  0  0
   -2.1160    1.0490   -0.6087 C   0  0  0  1  0  0  0  0  0  0  0  0
   -2.6546    3.5166   -0.8714 C   0  0  0  1  0  0  0  0  0  0  0  0
    2.5137   -0.6871   -3.5177 N   0  0  0  1  0  0  0  0  0  0  0  0
    3.3343   -2.5328   -2.3372 C   0  0  0  1  0  0  0  0  0  0  0  0
    2.5492   -2.1274   -1.2384 C   0  0  0  1  0  0  0  0  0  0  0  0
    2.7784   -3.0453   -0.2511 N   0  0  0  1  0  0  0  0  0  0  0  0
    3.9933   -3.6561   -1.9782 N   0  0  0  1  0  0  0  0  0  0  0  0
    3.6893   -3.9781   -0.7692 N   0  0  0  1  0  0  0  0  0  0  0  0
    0.7763   -3.0545    4.9156 O   0  0  0  1  0  0  0  0  0  0  0  0
    1.0430    0.7719   -2.6049 N   0  0  0  1  0  0  0  0  0  0  0  0
   -0.5115   -2.4869    5.2019 C   0  0  0  1  0  0  0  0  0  0  0  0
   -1.8927    2.4097   -1.1742 N   0  0  0  1  0  0  0  0  0  0  0  0
   -0.7482    2.4111   -2.0999 C   0  0  0  1  0  0  0  0  0  0  0  0
   -2.1954    4.4575    0.0316 C   0  0  0  1  0  0  0  0  0  0  0  0
   -2.9420    5.6022    0.2361 C   0  0  0  1  0  0  0  0  0  0  0  0
   -4.0943    5.8504   -0.3938 N   0  0  0  1  0  0  0  0  0  0  0  0
   -4.5299    4.9276   -1.2633 C   0  0  0  1  0  0  0  0  0  0  0  0
   -3.8442    3.7557   -1.5313 C   0  0  0  1  0  0  0  0  0  0  0  0
    3.8496   -2.0187   -4.3362 H   0  0  0  1  0  0  0  0  0  0  0  0
    0.4598   -2.1573    0.4880 H   0  0  0  1  0  0  0  0  0  0  0  0
    2.9727   -3.9974    4.2035 H   0  0  0  1  0  0  0  0  0  0  0  0
    3.8998   -4.0572    1.9666 H   0  0  0  1  0  0  0  0  0  0  0  0
   -0.4688   -2.0975    2.7286 H   0  0  0  1  0  0  0  0  0  0  0  0
    0.7720    1.6398   -0.7432 H   0  0  0  1  0  0  0  0  0  0  0  0
   -1.1693   -0.3533   -1.9468 H   0  0  0  1  0  0  0  0  0  0  0  0
   -0.4968   -0.3494   -0.3337 H   0  0  0  1  0  0  0  0  0  0  0  0
   -3.0263    0.6234   -0.9762 H   0  0  0  1  0  0  0  0  0  0  0  0
   -2.1401    1.0751    0.4607 H   0  0  0  1  0  0  0  0  0  0  0  0
    1.0852    1.2519   -3.4582 H   0  0  0  1  0  0  0  0  0  0  0  0
   -1.2673   -3.0335    4.6776 H   0  0  0  1  0  0  0  0  0  0  0  0
   -0.5282   -1.4643    4.8873 H   0  0  0  1  0  0  0  0  0  0  0  0
   -0.6985   -2.5400    6.2541 H   0  0  0  1  0  0  0  0  0  0  0  0
   -1.0674    2.1906   -3.0971 H   0  0  0  1  0  0  0  0  0  0  0  0
   -0.2506    3.3582   -2.0854 H   0  0  0  1  0  0  0  0  0  0  0  0
   -1.3049    4.3066    0.5472 H   0  0  0  1  0  0  0  0  0  0  0  0
   -2.5891    6.3067    0.9150 H   0  0  0  1  0  0  0  0  0  0  0  0
   -5.4266    5.1009   -1.7607 H   0  0  0  1  0  0  0  0  0  0  0  0
   -4.2175    3.0682   -2.2165 H   0  0  0  1  0  0  0  0  0  0  0  0
  1  3  4  0  0  0  0
  1 14  4  0  0  0  0
  1 21  1  0  0  0  0
  2 14  4  0  0  0  0
  2 15  4  0  0  0  0
  2 30  1  0  0  0  0
  3 16  4  0  0  0  0
  4  5  4  0  0  0  0
  4  7  4  0  0  0  0
  4 17  1  0  0  0  0
  5  9  4  0  0  0  0
  5 31  1  0  0  0  0
  6  7  4  0  0  0  0
  6  8  4  0  0  0  0
  6 32  1  0  0  0  0
  7 33  1  0  0  0  0
  8  9  4  0  0  0  0
  8 20  1  0  0  0  0
  9 34  1  0  0  0  0
 10 11  1  0  0  0  0
 10 21  1  0  0  0  0
 10 24  1  0  0  0  0
 10 35  1  0  0  0  0
 11 12  1  0  0  0  0
 11 36  1  0  0  0  0
 11 37  1  0  0  0  0
 12 23  1  0  0  0  0
 12 38  1  0  0  0  0
 12 39  1  0  0  0  0
 13 23  1  0  0  0  0
 13 25  4  0  0  0  0
 13 29  4  0  0  0  0
 15 16  4  0  0  0  0
 15 18  4  0  0  0  0
 16 17  4  0  0  0  0
 17 19  4  0  0  0  0
 18 19  4  0  0  0  0
 20 22  1  0  0  0  0
 21 40  1  0  0  0  0
 22 41  1  0  0  0  0
 22 42  1  0  0  0  0
 22 43  1  0  0  0  0
 23 24  1  0  0  0  0
 24 44  1  0  0  0  0
 24 45  1  0  0  0  0
 25 26  4  0  0  0  0
 25 46  1  0  0  0  0
 26 27  4  0  0  0  0
 26 47  1  0  0  0  0
 27 28  4  0  0  0  0
 28 29  4  0  0  0  0
 28 48  1  0  0  0  0
 29 49  1  0  0  0  0
M  END
> <ConfClashScore>
0 

> <ConfOneFourInteractionScore>
-0.987833 

> <ConfScore>
0.0301436 

> <ConfScorePBest>
0.00339331 

> <ConfTolerance>
0.404526 

> <HETNAM>
     OWQ A 303  OWQ                                                       

> <pdb_OW>
Q_303 -16.5129 3.80749 7.62812 0.15963 1.39178 -0.28144 -3.20151 0 0 0 -1.30514 0 0 0 0 0 0 0 0 -8.31393

$$$$
6yky_lig_1.pdb
 OpenBabel04162415593D

 49 53  0  0  0  0  0  0  0  0999 V2000
    0.3477   -0.0127   -2.5659 C   0  0  0  1  0  0  0  0  0  0  0  0
    0.3674   -1.4848   -4.3384 C   0  0  0  1  0  0  0  0  0  0  0  0
    0.7257   -0.9331   -1.7051 N   0  0  0  1  0  0  0  0  0  0  0  0
    1.6560   -3.6282   -0.1322 C   0  0  0  1  0  0  0  0  0  0  0  0
    1.3899   -4.8808    0.3878 C   0  0  0  1  0  0  0  0  0  0  0  0
    2.3796   -2.8825    2.0282 C   0  0  0  1  0  0  0  0  0  0  0  0
    2.1490   -2.6268    0.6897 C   0  0  0  1  0  0  0  0  0  0  0  0
    2.1128   -4.1388    2.5500 C   0  0  0  1  0  0  0  0  0  0  0  0
    1.6212   -5.1372    1.7303 C   0  0  0  1  0  0  0  0  0  0  0  0
    0.3916    1.7436   -0.7723 C   0  0  0  1  0  0  0  0  0  0  0  0
   -0.3518    0.9234    0.2408 C   0  0  0  1  0  0  0  0  0  0  0  0
   -1.7740    1.5458    0.1655 C   0  0  0  1  0  0  0  0  0  0  0  0
   -2.4170    3.9459   -0.0153 C   0  0  0  1  0  0  0  0  0  0  0  0
    0.1712   -0.2738   -3.8493 N   0  0  0  1  0  0  0  0  0  0  0  0
    0.7706   -2.5028   -3.4669 C   0  0  0  1  0  0  0  0  0  0  0  0
    0.9466   -2.1791   -2.1058 C   0  0  0  1  0  0  0  0  0  0  0  0
    1.3349   -3.3364   -1.4894 N   0  0  0  1  0  0  0  0  0  0  0  0
    1.0535   -3.8153   -3.6162 N   0  0  0  1  0  0  0  0  0  0  0  0
    1.3850   -4.3266   -2.4821 N   0  0  0  1  0  0  0  0  0  0  0  0
    2.3549   -4.3219    3.8663 O   0  0  0  1  0  0  0  0  0  0  0  0
    0.1327    1.2399   -2.1250 N   0  0  0  1  0  0  0  0  0  0  0  0
    2.7832   -3.2099    4.6679 C   0  0  0  1  0  0  0  0  0  0  0  0
   -1.4795    2.9185   -0.1530 N   0  0  0  1  0  0  0  0  0  0  0  0
   -0.1278    3.1460   -0.6291 C   0  0  0  1  0  0  0  0  0  0  0  0
   -3.7252    3.6592    0.3282 C   0  0  0  1  0  0  0  0  0  0  0  0
   -4.5987    4.7066    0.5508 C   0  0  0  1  0  0  0  0  0  0  0  0
   -4.2463    5.9918    0.4486 N   0  0  0  1  0  0  0  0  0  0  0  0
   -2.9760    6.2552    0.1107 C   0  0  0  1  0  0  0  0  0  0  0  0
   -2.0349    5.2686   -0.1264 C   0  0  0  1  0  0  0  0  0  0  0  0
    0.2251   -1.6778   -5.3504 H   0  0  0  1  0  0  0  0  0  0  0  0
    1.0162   -5.6309   -0.2280 H   0  0  0  1  0  0  0  0  0  0  0  0
    2.7534   -2.1324    2.6440 H   0  0  0  1  0  0  0  0  0  0  0  0
    2.3454   -1.6831    0.2991 H   0  0  0  1  0  0  0  0  0  0  0  0
    1.4248   -6.0809    2.1208 H   0  0  0  1  0  0  0  0  0  0  0  0
    1.4429    1.7144   -0.5754 H   0  0  0  1  0  0  0  0  0  0  0  0
   -0.3642   -0.1120   -0.0287 H   0  0  0  1  0  0  0  0  0  0  0  0
    0.0709    1.0331    1.2177 H   0  0  0  1  0  0  0  0  0  0  0  0
   -2.3603    1.0852   -0.6021 H   0  0  0  1  0  0  0  0  0  0  0  0
   -2.2846    1.4644    1.1022 H   0  0  0  1  0  0  0  0  0  0  0  0
   -0.2331    1.8789   -2.7717 H   0  0  0  1  0  0  0  0  0  0  0  0
    3.2623   -3.5716    5.5536 H   0  0  0  1  0  0  0  0  0  0  0  0
    1.9342   -2.6175    4.9384 H   0  0  0  1  0  0  0  0  0  0  0  0
    3.4723   -2.6120    4.1088 H   0  0  0  1  0  0  0  0  0  0  0  0
   -0.1273    3.6587   -1.5683 H   0  0  0  1  0  0  0  0  0  0  0  0
    0.4464    3.7026    0.0819 H   0  0  0  1  0  0  0  0  0  0  0  0
   -4.0458    2.6739    0.4172 H   0  0  0  1  0  0  0  0  0  0  0  0
   -5.5805    4.4834    0.8112 H   0  0  0  1  0  0  0  0  0  0  0  0
   -2.6836    7.2493    0.0224 H   0  0  0  1  0  0  0  0  0  0  0  0
   -1.0586    5.5183   -0.3833 H   0  0  0  1  0  0  0  0  0  0  0  0
  1  3  4  0  0  0  0
  1 14  4  0  0  0  0
  1 21  1  0  0  0  0
  2 14  4  0  0  0  0
  2 15  4  0  0  0  0
  2 30  1  0  0  0  0
  3 16  4  0  0  0  0
  4  5  4  0  0  0  0
  4  7  4  0  0  0  0
  4 17  1  0  0  0  0
  5  9  4  0  0  0  0
  5 31  1  0  0  0  0
  6  7  4  0  0  0  0
  6  8  4  0  0  0  0
  6 32  1  0  0  0  0
  7 33  1  0  0  0  0
  8  9  4  0  0  0  0
  8 20  1  0  0  0  0
  9 34  1  0  0  0  0
 10 11  1  0  0  0  0
 10 21  1  0  0  0  0
 10 24  1  0  0  0  0
 10 35  1  0  0  0  0
 11 12  1  0  0  0  0
 11 36  1  0  0  0  0
 11 37  1  0  0  0  0
 12 23  1  0  0  0  0
 12 38  1  0  0  0  0
 12 39  1  0  0  0  0
 13 23  1  0  0  0  0
 13 25  4  0  0  0  0
 13 29  4  0  0  0  0
 15 16  4  0  0  0  0
 15 18  4  0  0  0  0
 16 17  4  0  0  0  0
 17 19  4  0  0  0  0
 18 19  4  0  0  0  0
 20 22  1  0  0  0  0
 21 40  1  0  0  0  0
 22 41  1  0  0  0  0
 22 42  1  0  0  0  0
 22 43  1  0  0  0  0
 23 24  1  0  0  0  0
 24 44  1  0  0  0  0
 24 45  1  0  0  0  0
 25 26  4  0  0  0  0
 25 46  1  0  0  0  0
 26 27  4  0  0  0  0
 26 47  1  0  0  0  0
 27 28  4  0  0  0  0
 28 29  4  0  0  0  0
 28 48  1  0  0  0  0
 29 49  1  0  0  0  0
M  END
> <ConfClashScore>
0 

> <ConfOneFourInteractionScore>
-0.987833 

> <ConfScore>
0.031413 

> <ConfScorePBest>
0.00337998 

> <ConfTolerance>
0.722666 

> <HETNAM>
     OWQ A 303  OWQ                                                       

> <pdb_OW>
Q_303 -16.5129 3.80749 7.62812 0.15963 1.39178 -0.28144 -3.20151 0 0 0 -1.30514 0 0 0 0 0 0 0 0 -8.31393

$$$$
6yky_lig_1.pdb
 OpenBabel04162415593D

 49 53  0  0  0  0  0  0  0  0999 V2000
   -0.0116   -2.6212   -1.2830 C   0  0  0  1  0  0  0  0  0  0  0  0
    0.1641   -2.8532   -3.5688 C   0  0  0  1  0  0  0  0  0  0  0  0
    0.5773   -1.4448   -1.2857 N   0  0  0  1  0  0  0  0  0  0  0  0
    2.0718    1.3638   -1.9797 C   0  0  0  1  0  0  0  0  0  0  0  0
    1.6715    2.6485   -2.2951 C   0  0  0  1  0  0  0  0  0  0  0  0
    3.4911    2.2279   -0.2517 C   0  0  0  1  0  0  0  0  0  0  0  0
    2.9850    1.1533   -0.9583 C   0  0  0  1  0  0  0  0  0  0  0  0
    3.0896    3.5165   -0.5678 C   0  0  0  1  0  0  0  0  0  0  0  0
    2.1791    3.7261   -1.5863 C   0  0  0  1  0  0  0  0  0  0  0  0
   -0.2088   -2.5010    1.1845 C   0  0  0  1  0  0  0  0  0  0  0  0
   -0.9251   -3.2554    2.2660 C   0  0  0  1  0  0  0  0  0  0  0  0
   -2.3749   -2.7155    2.1172 C   0  0  0  1  0  0  0  0  0  0  0  0
   -3.1268   -0.3851    1.6969 C   0  0  0  1  0  0  0  0  0  0  0  0
   -0.2162   -3.3127   -2.3905 N   0  0  0  1  0  0  0  0  0  0  0  0
    0.7959   -1.6059   -3.6300 C   0  0  0  1  0  0  0  0  0  0  0  0
    0.9936   -0.9031   -2.4237 C   0  0  0  1  0  0  0  0  0  0  0  0
    1.6211    0.2632   -2.7645 N   0  0  0  1  0  0  0  0  0  0  0  0
    1.3010   -0.8525   -4.6311 N   0  0  0  1  0  0  0  0  0  0  0  0
    1.7880    0.2410   -4.1573 N   0  0  0  1  0  0  0  0  0  0  0  0
    3.6268    4.5251    0.1588 O   0  0  0  1  0  0  0  0  0  0  0  0
   -0.4223   -3.1422   -0.1071 N   0  0  0  1  0  0  0  0  0  0  0  0
    4.7724    4.2138    0.9669 C   0  0  0  1  0  0  0  0  0  0  0  0
   -2.1438   -1.3671    1.6689 N   0  0  0  1  0  0  0  0  0  0  0  0
   -0.7983   -1.1192    1.1853 C   0  0  0  1  0  0  0  0  0  0  0  0
   -4.3883   -0.6646    2.1889 C   0  0  0  1  0  0  0  0  0  0  0  0
   -5.3347    0.3423    2.2021 C   0  0  0  1  0  0  0  0  0  0  0  0
   -5.0966    1.5805    1.7589 N   0  0  0  1  0  0  0  0  0  0  0  0
   -3.8706    1.8363    1.2806 C   0  0  0  1  0  0  0  0  0  0  0  0
   -2.8627    0.8891    1.2338 C   0  0  0  1  0  0  0  0  0  0  0  0
   -0.0025   -3.4067   -4.4333 H   0  0  0  1  0  0  0  0  0  0  0  0
    0.9894    2.8066   -3.0642 H   0  0  0  1  0  0  0  0  0  0  0  0
    4.1731    2.0697    0.5174 H   0  0  0  1  0  0  0  0  0  0  0  0
    3.2892    0.1868   -0.7237 H   0  0  0  1  0  0  0  0  0  0  0  0
    1.8748    4.6925   -1.8210 H   0  0  0  1  0  0  0  0  0  0  0  0
    0.8398   -2.4581    1.3929 H   0  0  0  1  0  0  0  0  0  0  0  0
   -0.5220   -3.0303    3.2313 H   0  0  0  1  0  0  0  0  0  0  0  0
   -0.8829   -4.3114    2.0987 H   0  0  0  1  0  0  0  0  0  0  0  0
   -2.9271   -3.2772    1.3930 H   0  0  0  1  0  0  0  0  0  0  0  0
   -2.8940   -2.7310    3.0527 H   0  0  0  1  0  0  0  0  0  0  0  0
   -0.8918   -4.0023   -0.1228 H   0  0  0  1  0  0  0  0  0  0  0  0
    4.4972    3.5034    1.7182 H   0  0  0  1  0  0  0  0  0  0  0  0
    5.1316    5.1065    1.4349 H   0  0  0  1  0  0  0  0  0  0  0  0
    5.5421    3.7997    0.3496 H   0  0  0  1  0  0  0  0  0  0  0  0
   -0.8099   -0.7008    0.2006 H   0  0  0  1  0  0  0  0  0  0  0  0
   -0.2622   -0.4681    1.8437 H   0  0  0  1  0  0  0  0  0  0  0  0
   -4.6206   -1.6146    2.5425 H   0  0  0  1  0  0  0  0  0  0  0  0
   -6.2807    0.1255    2.5759 H   0  0  0  1  0  0  0  0  0  0  0  0
   -3.6670    2.7931    0.9275 H   0  0  0  1  0  0  0  0  0  0  0  0
   -1.9243    1.1320    0.8570 H   0  0  0  1  0  0  0  0  0  0  0  0
  1  3  4  0  0  0  0
  1 14  4  0  0  0  0
  1 21  1  0  0  0  0
  2 14  4  0  0  0  0
  2 15  4  0  0  0  0
  2 30  1  0  0  0  0
  3 16  4  0  0  0  0
  4  5  4  0  0  0  0
  4  7  4  0  0  0  0
  4 17  1  0  0  0  0
  5  9  4  0  0  0  0
  5 31  1  0  0  0  0
  6  7  4  0  0  0  0
  6  8  4  0  0  0  0
  6 32  1  0  0  0  0
  7 33  1  0  0  0  0
  8  9  4  0  0  0  0
  8 20  1  0  0  0  0
  9 34  1  0  0  0  0
 10 11  1  0  0  0  0
 10 21  1  0  0  0  0
 10 24  1  0  0  0  0
 10 35  1  0  0  0  0
 11 12  1  0  0  0  0
 11 36  1  0  0  0  0
 11 37  1  0  0  0  0
 12 23  1  0  0  0  0
 12 38  1  0  0  0  0
 12 39  1  0  0  0  0
 13 23  1  0  0  0  0
 13 25  4  0  0  0  0
 13 29  4  0  0  0  0
 15 16  4  0  0  0  0
 15 18  4  0  0  0  0
 16 17  4  0  0  0  0
 17 19  4  0  0  0  0
 18 19  4  0  0  0  0
 20 22  1  0  0  0  0
 21 40  1  0  0  0  0
 22 41  1  0  0  0  0
 22 42  1  0  0  0  0
 22 43  1  0  0  0  0
 23 24  1  0  0  0  0
 24 44  1  0  0  0  0
 24 45  1  0  0  0  0
 25 26  4  0  0  0  0
 25 46  1  0  0  0  0
 26 27  4  0  0  0  0
 26 47  1  0  0  0  0
 27 28  4  0  0  0  0
 28 29  4  0  0  0  0
 28 48  1  0  0  0  0
 29 49  1  0  0  0  0
M  END
> <ConfClashScore>
0 

> <ConfOneFourInteractionScore>
-0.987833 

> <ConfScore>
0.031464 

> <ConfScorePBest>
0.00336665 

> <ConfTolerance>
0.587435 

> <HETNAM>
     OWQ A 303  OWQ                                                       

> <pdb_OW>
Q_303 -16.5129 3.80749 7.62812 0.15963 1.39178 -0.28144 -3.20151 0 0 0 -1.30514 0 0 0 0 0 0 0 0 -8.31393

$$$$
6yky_lig_1.pdb
 OpenBabel04162415593D

 49 53  0  0  0  0  0  0  0  0999 V2000
    1.6786   -2.7897   -1.2240 C   0  0  0  1  0  0  0  0  0  0  0  0
    2.9493   -2.7445   -3.1457 C   0  0  0  1  0  0  0  0  0  0  0  0
    1.6879   -1.4797   -1.1020 N   0  0  0  1  0  0  0  0  0  0  0  0
    2.0936    1.7391   -1.3813 C   0  0  0  1  0  0  0  0  0  0  0  0
    0.7551    1.8961   -1.0747 C   0  0  0  1  0  0  0  0  0  0  0  0
    2.5790    3.8499   -0.3537 C   0  0  0  1  0  0  0  0  0  0  0  0
    3.0066    2.7186   -1.0227 C   0  0  0  1  0  0  0  0  0  0  0  0
    1.2366    4.0076   -0.0461 C   0  0  0  1  0  0  0  0  0  0  0  0
    0.3265    3.0309   -0.4037 C   0  0  0  1  0  0  0  0  0  0  0  0
    0.4127   -2.9671    0.8888 C   0  0  0  1  0  0  0  0  0  0  0  0
   -0.5854   -3.9635    1.5193 C   0  0  0  1  0  0  0  0  0  0  0  0
   -1.7890   -3.1756    1.9715 C   0  0  0  1  0  0  0  0  0  0  0  0
   -2.4935   -0.8042    1.2548 C   0  0  0  1  0  0  0  0  0  0  0  0
    2.2904   -3.4124   -2.2162 N   0  0  0  1  0  0  0  0  0  0  0  0
    2.9917   -1.3479   -3.0648 C   0  0  0  1  0  0  0  0  0  0  0  0
    2.3250   -0.7257   -1.9894 C   0  0  0  1  0  0  0  0  0  0  0  0
    2.5228    0.6180   -2.1489 N   0  0  0  1  0  0  0  0  0  0  0  0
    3.5543   -0.3763   -3.8160 N   0  0  0  1  0  0  0  0  0  0  0  0
    3.2982    0.7783   -3.3071 N   0  0  0  1  0  0  0  0  0  0  0  0
    0.9362    5.1566    0.6046 O   0  0  0  1  0  0  0  0  0  0  0  0
    1.0230   -3.5229   -0.3064 N   0  0  0  1  0  0  0  0  0  0  0  0
   -0.4401    5.3725    0.9535 C   0  0  0  1  0  0  0  0  0  0  0  0
   -1.5760   -1.8441    1.2187 N   0  0  0  1  0  0  0  0  0  0  0  0
   -0.4687   -1.7808    0.5511 C   0  0  0  1  0  0  0  0  0  0  0  0
   -3.6724   -0.9952    1.9515 C   0  0  0  1  0  0  0  0  0  0  0  0
   -4.5918    0.0354    1.9974 C   0  0  0  1  0  0  0  0  0  0  0  0
   -4.4038    1.2151    1.3980 N   0  0  0  1  0  0  0  0  0  0  0  0
   -3.2584    1.3851    0.7225 C   0  0  0  1  0  0  0  0  0  0  0  0
   -2.2823    0.4085    0.6283 C   0  0  0  1  0  0  0  0  0  0  0  0
    3.4269   -3.2459   -3.9216 H   0  0  0  1  0  0  0  0  0  0  0  0
    0.0696    1.1631   -1.3473 H   0  0  0  1  0  0  0  0  0  0  0  0
    3.2646    4.5830   -0.0811 H   0  0  0  1  0  0  0  0  0  0  0  0
    4.0131    2.6021   -1.2570 H   0  0  0  1  0  0  0  0  0  0  0  0
   -0.6801    3.1472   -0.1694 H   0  0  0  1  0  0  0  0  0  0  0  0
    1.1770   -2.6936    1.5859 H   0  0  0  1  0  0  0  0  0  0  0  0
   -0.8786   -4.6943    0.7948 H   0  0  0  1  0  0  0  0  0  0  0  0
   -0.1334   -4.4523    2.3569 H   0  0  0  1  0  0  0  0  0  0  0  0
   -1.7872   -3.0311    3.0317 H   0  0  0  1  0  0  0  0  0  0  0  0
   -2.7016   -3.6506    1.6773 H   0  0  0  1  0  0  0  0  0  0  0  0
    0.9530   -4.4894   -0.4530 H   0  0  0  1  0  0  0  0  0  0  0  0
   -0.5434    6.3272    1.4255 H   0  0  0  1  0  0  0  0  0  0  0  0
   -0.7617    4.6055    1.6267 H   0  0  0  1  0  0  0  0  0  0  0  0
   -1.0406    5.3457    0.0683 H   0  0  0  1  0  0  0  0  0  0  0  0
    0.0444   -0.8761    0.8023 H   0  0  0  1  0  0  0  0  0  0  0  0
   -0.6864   -1.7888   -0.4965 H   0  0  0  1  0  0  0  0  0  0  0  0
   -3.8637   -1.8976    2.4319 H   0  0  0  1  0  0  0  0  0  0  0  0
   -5.4752   -0.1146    2.5253 H   0  0  0  1  0  0  0  0  0  0  0  0
   -3.0954    2.2950    0.2460 H   0  0  0  1  0  0  0  0  0  0  0  0
   -1.4064    0.5844    0.0959 H   0  0  0  1  0  0  0  0  0  0  0  0
  1  3  4  0  0  0  0
  1 14  4  0  0  0  0
  1 21  1  0  0  0  0
  2 14  4  0  0  0  0
  2 15  4  0  0  0  0
  2 30  1  0  0  0  0
  3 16  4  0  0  0  0
  4  5  4  0  0  0  0
  4  7  4  0  0  0  0
  4 17  1  0  0  0  0
  5  9  4  0  0  0  0
  5 31  1  0  0  0  0
  6  7  4  0  0  0  0
  6  8  4  0  0  0  0
  6 32  1  0  0  0  0
  7 33  1  0  0  0  0
  8  9  4  0  0  0  0
  8 20  1  0  0  0  0
  9 34  1  0  0  0  0
 10 11  1  0  0  0  0
 10 21  1  0  0  0  0
 10 24  1  0  0  0  0
 10 35  1  0  0  0  0
 11 12  1  0  0  0  0
 11 36  1  0  0  0  0
 11 37  1  0  0  0  0
 12 23  1  0  0  0  0
 12 38  1  0  0  0  0
 12 39  1  0  0  0  0
 13 23  1  0  0  0  0
 13 25  4  0  0  0  0
 13 29  4  0  0  0  0
 15 16  4  0  0  0  0
 15 18  4  0  0  0  0
 16 17  4  0  0  0  0
 17 19  4  0  0  0  0
 18 19  4  0  0  0  0
 20 22  1  0  0  0  0
 21 40  1  0  0  0  0
 22 41  1  0  0  0  0
 22 42  1  0  0  0  0
 22 43  1  0  0  0  0
 23 24  1  0  0  0  0
 24 44  1  0  0  0  0
 24 45  1  0  0  0  0
 25 26  4  0  0  0  0
 25 46  1  0  0  0  0
 26 27  4  0  0  0  0
 26 47  1  0  0  0  0
 27 28  4  0  0  0  0
 28 29  4  0  0  0  0
 28 48  1  0  0  0  0
 29 49  1  0  0  0  0
M  END
> <ConfClashScore>
0 

> <ConfOneFourInteractionScore>
-0.987833 

> <ConfScore>
0.0315068 

> <ConfScorePBest>
0.00335333 

> <ConfTolerance>
0.467198 

> <HETNAM>
     OWQ A 303  OWQ                                                       

> <pdb_OW>
Q_303 -16.5129 3.80749 7.62812 0.15963 1.39178 -0.28144 -3.20151 0 0 0 -1.30514 0 0 0 0 0 0 0 0 -8.31393

$$$$
6yky_lig_1.pdb
 OpenBabel04162415593D

 49 53  0  0  0  0  0  0  0  0999 V2000
    1.4614   -1.1095   -2.6775 C   0  0  0  1  0  0  0  0  0  0  0  0
    3.5083   -2.0345   -3.1915 C   0  0  0  1  0  0  0  0  0  0  0  0
    1.7178   -1.0825   -1.3874 N   0  0  0  1  0  0  0  0  0  0  0  0
    2.9371   -1.3933    1.6280 C   0  0  0  1  0  0  0  0  0  0  0  0
    3.1197   -2.3781    2.5803 C   0  0  0  1  0  0  0  0  0  0  0  0
    1.6558   -0.1108    3.1966 C   0  0  0  1  0  0  0  0  0  0  0  0
    2.2018   -0.2592    1.9356 C   0  0  0  1  0  0  0  0  0  0  0  0
    1.8389   -1.0984    4.1520 C   0  0  0  1  0  0  0  0  0  0  0  0
    2.5721   -2.2291    3.8450 C   0  0  0  1  0  0  0  0  0  0  0  0
   -0.7368   -0.1385   -2.2483 C   0  0  0  1  0  0  0  0  0  0  0  0
   -1.7252   -1.2375   -1.8270 C   0  0  0  1  0  0  0  0  0  0  0  0
   -2.9416   -0.4097   -1.3847 C   0  0  0  1  0  0  0  0  0  0  0  0
   -3.2226    2.1713   -1.3295 C   0  0  0  1  0  0  0  0  0  0  0  0
    2.3282   -1.5715   -3.5617 N   0  0  0  1  0  0  0  0  0  0  0  0
    3.8337   -2.0293   -1.8303 C   0  0  0  1  0  0  0  0  0  0  0  0
    2.8787   -1.5273   -0.9224 C   0  0  0  1  0  0  0  0  0  0  0  0
    3.4430   -1.6370    0.3184 N   0  0  0  1  0  0  0  0  0  0  0  0
    4.9146   -2.4144   -1.1174 N   0  0  0  1  0  0  0  0  0  0  0  0
    4.7159   -2.1980    0.1361 N   0  0  0  1  0  0  0  0  0  0  0  0
    1.3496   -1.0664    5.4143 O   0  0  0  1  0  0  0  0  0  0  0  0
    0.2613   -0.6532   -3.1915 N   0  0  0  1  0  0  0  0  0  0  0  0
    0.7826    0.1729    5.8671 C   0  0  0  1  0  0  0  0  0  0  0  0
   -2.6529    0.9850   -1.8347 N   0  0  0  1  0  0  0  0  0  0  0  0
   -1.6530    0.8736   -2.9129 C   0  0  0  1  0  0  0  0  0  0  0  0
   -4.2599    2.1219   -0.4168 C   0  0  0  1  0  0  0  0  0  0  0  0
   -4.7865    3.3089    0.0558 C   0  0  0  1  0  0  0  0  0  0  0  0
   -4.3466    4.5117   -0.3263 N   0  0  0  1  0  0  0  0  0  0  0  0
   -3.3433    4.5448   -1.2150 C   0  0  0  1  0  0  0  0  0  0  0  0
   -2.7554    3.4057   -1.7366 C   0  0  0  1  0  0  0  0  0  0  0  0
    4.1819   -2.3955   -3.8968 H   0  0  0  1  0  0  0  0  0  0  0  0
    3.6680   -3.2308    2.3482 H   0  0  0  1  0  0  0  0  0  0  0  0
    1.1075    0.7419    3.4287 H   0  0  0  1  0  0  0  0  0  0  0  0
    2.0610    0.4799    1.2176 H   0  0  0  1  0  0  0  0  0  0  0  0
    2.7129   -2.9683    4.5629 H   0  0  0  1  0  0  0  0  0  0  0  0
   -0.2413    0.2845   -1.3995 H   0  0  0  1  0  0  0  0  0  0  0  0
   -1.3370   -1.8223   -1.0194 H   0  0  0  1  0  0  0  0  0  0  0  0
   -1.9680   -1.8792   -2.6481 H   0  0  0  1  0  0  0  0  0  0  0  0
   -3.0523   -0.4450   -0.3210 H   0  0  0  1  0  0  0  0  0  0  0  0
   -3.8333   -0.7763   -1.8489 H   0  0  0  1  0  0  0  0  0  0  0  0
    0.0835   -0.6730   -4.1551 H   0  0  0  1  0  0  0  0  0  0  0  0
    0.3368    0.0313    6.8294 H   0  0  0  1  0  0  0  0  0  0  0  0
    0.0361    0.4980    5.1728 H   0  0  0  1  0  0  0  0  0  0  0  0
    1.5524    0.9129    5.9363 H   0  0  0  1  0  0  0  0  0  0  0  0
   -1.1586    1.8030   -3.1045 H   0  0  0  1  0  0  0  0  0  0  0  0
   -2.0771    0.5007   -3.8217 H   0  0  0  1  0  0  0  0  0  0  0  0
   -4.6368    1.2086   -0.0921 H   0  0  0  1  0  0  0  0  0  0  0  0
   -5.5650    3.2640    0.7439 H   0  0  0  1  0  0  0  0  0  0  0  0
   -2.9897    5.4715   -1.5275 H   0  0  0  1  0  0  0  0  0  0  0  0
   -1.9766    3.4778   -2.4221 H   0  0  0  1  0  0  0  0  0  0  0  0
  1  3  4  0  0  0  0
  1 14  4  0  0  0  0
  1 21  1  0  0  0  0
  2 14  4  0  0  0  0
  2 15  4  0  0  0  0
  2 30  1  0  0  0  0
  3 16  4  0  0  0  0
  4  5  4  0  0  0  0
  4  7  4  0  0  0  0
  4 17  1  0  0  0  0
  5  9  4  0  0  0  0
  5 31  1  0  0  0  0
  6  7  4  0  0  0  0
  6  8  4  0  0  0  0
  6 32  1  0  0  0  0
  7 33  1  0  0  0  0
  8  9  4  0  0  0  0
  8 20  1  0  0  0  0
  9 34  1  0  0  0  0
 10 11  1  0  0  0  0
 10 21  1  0  0  0  0
 10 24  1  0  0  0  0
 10 35  1  0  0  0  0
 11 12  1  0  0  0  0
 11 36  1  0  0  0  0
 11 37  1  0  0  0  0
 12 23  1  0  0  0  0
 12 38  1  0  0  0  0
 12 39  1  0  0  0  0
 13 23  1  0  0  0  0
 13 25  4  0  0  0  0
 13 29  4  0  0  0  0
 15 16  4  0  0  0  0
 15 18  4  0  0  0  0
 16 17  4  0  0  0  0
 17 19  4  0  0  0  0
 18 19  4  0  0  0  0
 20 22  1  0  0  0  0
 21 40  1  0  0  0  0
 22 41  1  0  0  0  0
 22 42  1  0  0  0  0
 22 43  1  0  0  0  0
 23 24  1  0  0  0  0
 24 44  1  0  0  0  0
 24 45  1  0  0  0  0
 25 26  4  0  0  0  0
 25 46  1  0  0  0  0
 26 27  4  0  0  0  0
 26 47  1  0  0  0  0
 27 28  4  0  0  0  0
 28 29  4  0  0  0  0
 28 48  1  0  0  0  0
 29 49  1  0  0  0  0
M  END
> <ConfClashScore>
0 

> <ConfOneFourInteractionScore>
-0.986948 

> <ConfScore>
0.0332411 

> <ConfScorePBest>
0.00334 

> <ConfTolerance>
0.406162 

> <HETNAM>
     OWQ A 303  OWQ                                                       

> <pdb_OW>
Q_303 -16.5129 3.80749 7.62812 0.15963 1.39178 -0.28144 -3.20151 0 0 0 -1.30514 0 0 0 0 0 0 0 0 -8.31393

$$$$
6yky_lig_1.pdb
 OpenBabel04162415593D

 49 53  0  0  0  0  0  0  0  0999 V2000
    0.4900    0.3090    0.7132 C   0  0  0  1  0  0  0  0  0  0  0  0
    1.1940    2.4357    0.1738 C   0  0  0  1  0  0  0  0  0  0  0  0
    1.0835   -0.2291   -0.3304 N   0  0  0  1  0  0  0  0  0  0  0  0
    2.7721   -0.8800   -3.0783 C   0  0  0  1  0  0  0  0  0  0  0  0
    3.9814   -1.5055   -2.8405 C   0  0  0  1  0  0  0  0  0  0  0  0
    2.3135   -2.4335   -4.8457 C   0  0  0  1  0  0  0  0  0  0  0  0
    1.9381   -1.3429   -4.0841 C   0  0  0  1  0  0  0  0  0  0  0  0
    3.5264   -3.0610   -4.6073 C   0  0  0  1  0  0  0  0  0  0  0  0
    4.3578   -2.5992   -3.6044 C   0  0  0  1  0  0  0  0  0  0  0  0
   -0.8683   -0.0306    2.7405 C   0  0  0  1  0  0  0  0  0  0  0  0
   -1.8828   -1.0523    3.3005 C   0  0  0  1  0  0  0  0  0  0  0  0
   -3.1115   -0.2872    3.7231 C   0  0  0  1  0  0  0  0  0  0  0  0
   -3.8141    2.1053    3.0433 C   0  0  0  1  0  0  0  0  0  0  0  0
    0.5394    1.6054    0.9651 N   0  0  0  1  0  0  0  0  0  0  0  0
    1.8443    1.9168   -0.9517 C   0  0  0  1  0  0  0  0  0  0  0  0
    1.7651    0.5279   -1.1814 C   0  0  0  1  0  0  0  0  0  0  0  0
    2.4747    0.2934   -2.3266 N   0  0  0  1  0  0  0  0  0  0  0  0
    2.5830    2.4556   -1.9461 N   0  0  0  1  0  0  0  0  0  0  0  0
    2.9636    1.5345   -2.7612 N   0  0  0  1  0  0  0  0  0  0  0  0
    3.8370   -4.1201   -5.3919 O   0  0  0  1  0  0  0  0  0  0  0  0
   -0.1984   -0.5516    1.5486 N   0  0  0  1  0  0  0  0  0  0  0  0
    5.0332   -4.8467   -5.0701 C   0  0  0  1  0  0  0  0  0  0  0  0
   -2.8794    1.0666    3.0170 N   0  0  0  1  0  0  0  0  0  0  0  0
   -1.7457    1.1575    2.3988 C   0  0  0  1  0  0  0  0  0  0  0  0
   -4.6915    2.2908    1.9910 C   0  0  0  1  0  0  0  0  0  0  0  0
   -5.6021    3.3279    2.0598 C   0  0  0  1  0  0  0  0  0  0  0  0
   -5.6799    4.1702    3.0946 N   0  0  0  1  0  0  0  0  0  0  0  0
   -4.8203    3.9814    4.1059 C   0  0  0  1  0  0  0  0  0  0  0  0
   -3.8793    2.9667    4.1211 C   0  0  0  1  0  0  0  0  0  0  0  0
    1.2256    3.4540    0.3826 H   0  0  0  1  0  0  0  0  0  0  0  0
    4.6088   -1.1556   -2.0886 H   0  0  0  1  0  0  0  0  0  0  0  0
    1.6860   -2.7834   -5.5976 H   0  0  0  1  0  0  0  0  0  0  0  0
    1.0299   -0.8697   -4.2657 H   0  0  0  1  0  0  0  0  0  0  0  0
    5.2659   -3.0724   -3.4228 H   0  0  0  1  0  0  0  0  0  0  0  0
   -0.1365    0.2294    3.4765 H   0  0  0  1  0  0  0  0  0  0  0  0
   -2.1385   -1.7648    2.5443 H   0  0  0  1  0  0  0  0  0  0  0  0
   -1.4618   -1.5608    4.1426 H   0  0  0  1  0  0  0  0  0  0  0  0
   -3.1555   -0.1724    4.7860 H   0  0  0  1  0  0  0  0  0  0  0  0
   -4.0065   -0.7611    3.3776 H   0  0  0  1  0  0  0  0  0  0  0  0
   -0.2375   -1.5089    1.3426 H   0  0  0  1  0  0  0  0  0  0  0  0
    5.1462   -5.6669   -5.7478 H   0  0  0  1  0  0  0  0  0  0  0  0
    4.9661   -5.2183   -4.0689 H   0  0  0  1  0  0  0  0  0  0  0  0
    5.8787   -4.1962   -5.1537 H   0  0  0  1  0  0  0  0  0  0  0  0
   -1.9192    1.1771    1.3431 H   0  0  0  1  0  0  0  0  0  0  0  0
   -1.2520    2.0590    2.6964 H   0  0  0  1  0  0  0  0  0  0  0  0
   -4.6666    1.6616    1.1633 H   0  0  0  1  0  0  0  0  0  0  0  0
   -6.2606    3.4598    1.2657 H   0  0  0  1  0  0  0  0  0  0  0  0
   -4.8627    4.6290    4.9186 H   0  0  0  1  0  0  0  0  0  0  0  0
   -3.2335    2.8549    4.9286 H   0  0  0  1  0  0  0  0  0  0  0  0
  1  3  4  0  0  0  0
  1 14  4  0  0  0  0
  1 21  1  0  0  0  0
  2 14  4  0  0  0  0
  2 15  4  0  0  0  0
  2 30  1  0  0  0  0
  3 16  4  0  0  0  0
  4  5  4  0  0  0  0
  4  7  4  0  0  0  0
  4 17  1  0  0  0  0
  5  9  4  0  0  0  0
  5 31  1  0  0  0  0
  6  7  4  0  0  0  0
  6  8  4  0  0  0  0
  6 32  1  0  0  0  0
  7 33  1  0  0  0  0
  8  9  4  0  0  0  0
  8 20  1  0  0  0  0
  9 34  1  0  0  0  0
 10 11  1  0  0  0  0
 10 21  1  0  0  0  0
 10 24  1  0  0  0  0
 10 35  1  0  0  0  0
 11 12  1  0  0  0  0
 11 36  1  0  0  0  0
 11 37  1  0  0  0  0
 12 23  1  0  0  0  0
 12 38  1  0  0  0  0
 12 39  1  0  0  0  0
 13 23  1  0  0  0  0
 13 25  4  0  0  0  0
 13 29  4  0  0  0  0
 15 16  4  0  0  0  0
 15 18  4  0  0  0  0
 16 17  4  0  0  0  0
 17 19  4  0  0  0  0
 18 19  4  0  0  0  0
 20 22  1  0  0  0  0
 21 40  1  0  0  0  0
 22 41  1  0  0  0  0
 22 42  1  0  0  0  0
 22 43  1  0  0  0  0
 23 24  1  0  0  0  0
 24 44  1  0  0  0  0
 24 45  1  0  0  0  0
 25 26  4  0  0  0  0
 25 46  1  0  0  0  0
 26 27  4  0  0  0  0
 26 47  1  0  0  0  0
 27 28  4  0  0  0  0
 28 29  4  0  0  0  0
 28 48  1  0  0  0  0
 29 49  1  0  0  0  0
M  END
> <ConfClashScore>
0 

> <ConfOneFourInteractionScore>
-0.99264 

> <ConfScore>
0.0333337 

> <ConfScorePBest>
0.00332667 

> <ConfTolerance>
0.527265 

> <HETNAM>
     OWQ A 303  OWQ                                                       

> <pdb_OW>
Q_303 -16.5129 3.80749 7.62812 0.15963 1.39178 -0.28144 -3.20151 0 0 0 -1.30514 0 0 0 0 0 0 0 0 -8.31393

$$$$
6yky_lig_1.pdb
 OpenBabel04162415593D

 49 53  0  0  0  0  0  0  0  0999 V2000
    0.2141   -2.7854   -1.0468 C   0  0  0  1  0  0  0  0  0  0  0  0
    0.5786   -3.0648   -3.3048 C   0  0  0  1  0  0  0  0  0  0  0  0
    0.7608   -1.5888   -1.0343 N   0  0  0  1  0  0  0  0  0  0  0  0
    2.2265    1.2756   -1.7221 C   0  0  0  1  0  0  0  0  0  0  0  0
    1.2972    1.8980   -0.9103 C   0  0  0  1  0  0  0  0  0  0  0  0
    3.8189    2.9967   -1.2226 C   0  0  0  1  0  0  0  0  0  0  0  0
    3.4883    1.8271   -1.8807 C   0  0  0  1  0  0  0  0  0  0  0  0
    2.8869    3.6211   -0.4083 C   0  0  0  1  0  0  0  0  0  0  0  0
    1.6288    3.0710   -0.2503 C   0  0  0  1  0  0  0  0  0  0  0  0
   -0.1898   -2.6129    1.3876 C   0  0  0  1  0  0  0  0  0  0  0  0
   -0.9650   -3.3667    2.4281 C   0  0  0  1  0  0  0  0  0  0  0  0
   -2.4166   -2.8887    2.1448 C   0  0  0  1  0  0  0  0  0  0  0  0
   -3.2115   -0.6069    1.5968 C   0  0  0  1  0  0  0  0  0  0  0  0
    0.1219   -3.5098   -2.1483 N   0  0  0  1  0  0  0  0  0  0  0  0
    1.1701   -1.7972   -3.3492 C   0  0  0  1  0  0  0  0  0  0  0  0
    1.2472   -1.0594   -2.1501 C   0  0  0  1  0  0  0  0  0  0  0  0
    1.8594    0.1205   -2.4713 N   0  0  0  1  0  0  0  0  0  0  0  0
    1.7270   -1.0500   -4.3272 N   0  0  0  1  0  0  0  0  0  0  0  0
    2.1371    0.0715   -3.8456 N   0  0  0  1  0  0  0  0  0  0  0  0
    3.0934    4.7687    0.2802 O   0  0  0  1  0  0  0  0  0  0  0  0
   -0.2706   -3.2930    0.1066 N   0  0  0  1  0  0  0  0  0  0  0  0
    4.3439    5.4434    0.0712 C   0  0  0  1  0  0  0  0  0  0  0  0
   -2.1993   -1.5443    1.6780 N   0  0  0  1  0  0  0  0  0  0  0  0
   -0.8284   -1.2560    1.2997 C   0  0  0  1  0  0  0  0  0  0  0  0
   -2.9359    0.6030    0.9872 C   0  0  0  1  0  0  0  0  0  0  0  0
   -3.9418    1.5462    0.8970 C   0  0  0  1  0  0  0  0  0  0  0  0
   -5.1755    1.3527    1.3732 N   0  0  0  1  0  0  0  0  0  0  0  0
   -5.4276    0.1768    1.9657 C   0  0  0  1  0  0  0  0  0  0  0  0
   -4.4810   -0.8244    2.0958 C   0  0  0  1  0  0  0  0  0  0  0  0
    0.5002   -3.6443   -4.1649 H   0  0  0  1  0  0  0  0  0  0  0  0
    0.3492    1.4863   -0.7946 H   0  0  0  1  0  0  0  0  0  0  0  0
    4.7669    3.4084   -1.3384 H   0  0  0  1  0  0  0  0  0  0  0  0
    4.1863    1.3609   -2.4948 H   0  0  0  1  0  0  0  0  0  0  0  0
    0.9308    3.5372    0.3637 H   0  0  0  1  0  0  0  0  0  0  0  0
    0.8355   -2.5232    1.6803 H   0  0  0  1  0  0  0  0  0  0  0  0
   -0.6525   -3.1009    3.4163 H   0  0  0  1  0  0  0  0  0  0  0  0
   -0.8696   -4.4242    2.2957 H   0  0  0  1  0  0  0  0  0  0  0  0
   -3.0109   -2.9006    3.0345 H   0  0  0  1  0  0  0  0  0  0  0  0
   -2.8851   -3.4905    1.3943 H   0  0  0  1  0  0  0  0  0  0  0  0
   -0.7025   -4.1722    0.0778 H   0  0  0  1  0  0  0  0  0  0  0  0
    4.3744    5.8391   -0.9224 H   0  0  0  1  0  0  0  0  0  0  0  0
    5.1489    4.7512    0.2041 H   0  0  0  1  0  0  0  0  0  0  0  0
    4.4399    6.2425    0.7762 H   0  0  0  1  0  0  0  0  0  0  0  0
   -0.7735   -0.8641    0.3056 H   0  0  0  1  0  0  0  0  0  0  0  0
   -0.3737   -0.5673    1.9807 H   0  0  0  1  0  0  0  0  0  0  0  0
   -1.9894    0.7996    0.6037 H   0  0  0  1  0  0  0  0  0  0  0  0
   -3.7279    2.4530    0.4349 H   0  0  0  1  0  0  0  0  0  0  0  0
   -6.3808    0.0088    2.3461 H   0  0  0  1  0  0  0  0  0  0  0  0
   -4.7210   -1.7234    2.5603 H   0  0  0  1  0  0  0  0  0  0  0  0
  1  3  4  0  0  0  0
  1 14  4  0  0  0  0
  1 21  1  0  0  0  0
  2 14  4  0  0  0  0
  2 15  4  0  0  0  0
  2 30  1  0  0  0  0
  3 16  4  0  0  0  0
  4  5  4  0  0  0  0
  4  7  4  0  0  0  0
  4 17  1  0  0  0  0
  5  9  4  0  0  0  0
  5 31  1  0  0  0  0
  6  7  4  0  0  0  0
  6  8  4  0  0  0  0
  6 32  1  0  0  0  0
  7 33  1  0  0  0  0
  8  9  4  0  0  0  0
  8 20  1  0  0  0  0
  9 34  1  0  0  0  0
 10 11  1  0  0  0  0
 10 21  1  0  0  0  0
 10 24  1  0  0  0  0
 10 35  1  0  0  0  0
 11 12  1  0  0  0  0
 11 36  1  0  0  0  0
 11 37  1  0  0  0  0
 12 23  1  0  0  0  0
 12 38  1  0  0  0  0
 12 39  1  0  0  0  0
 13 23  1  0  0  0  0
 13 25  4  0  0  0  0
 13 29  4  0  0  0  0
 15 16  4  0  0  0  0
 15 18  4  0  0  0  0
 16 17  4  0  0  0  0
 17 19  4  0  0  0  0
 18 19  4  0  0  0  0
 20 22  1  0  0  0  0
 21 40  1  0  0  0  0
 22 41  1  0  0  0  0
 22 42  1  0  0  0  0
 22 43  1  0  0  0  0
 23 24  1  0  0  0  0
 24 44  1  0  0  0  0
 24 45  1  0  0  0  0
 25 26  4  0  0  0  0
 25 46  1  0  0  0  0
 26 27  4  0  0  0  0
 26 47  1  0  0  0  0
 27 28  4  0  0  0  0
 28 29  4  0  0  0  0
 28 48  1  0  0  0  0
 29 49  1  0  0  0  0
M  END
> <ConfClashScore>
0 

> <ConfOneFourInteractionScore>
-0.987833 

> <ConfScore>
0.0334736 

> <ConfScorePBest>
0.00331334 

> <ConfTolerance>
0.693476 

> <HETNAM>
     OWQ A 303  OWQ                                                       

> <pdb_OW>
Q_303 -16.5129 3.80749 7.62812 0.15963 1.39178 -0.28144 -3.20151 0 0 0 -1.30514 0 0 0 0 0 0 0 0 -8.31393

$$$$
6yky_lig_1.pdb
 OpenBabel04162415593D

 49 53  0  0  0  0  0  0  0  0999 V2000
    1.0886    0.2298    0.8049 C   0  0  0  1  0  0  0  0  0  0  0  0
    2.6316    1.9396    0.7336 C   0  0  0  1  0  0  0  0  0  0  0  0
    1.5503   -0.3282   -0.2934 N   0  0  0  1  0  0  0  0  0  0  0  0
    3.1438   -1.1790   -3.0027 C   0  0  0  1  0  0  0  0  0  0  0  0
    1.9074   -1.4812   -3.5412 C   0  0  0  1  0  0  0  0  0  0  0  0
    4.0976   -3.0702   -4.1255 C   0  0  0  1  0  0  0  0  0  0  0  0
    4.2401   -1.9761   -3.2930 C   0  0  0  1  0  0  0  0  0  0  0  0
    2.8576   -3.3735   -4.6657 C   0  0  0  1  0  0  0  0  0  0  0  0
    1.7647   -2.5785   -4.3761 C   0  0  0  1  0  0  0  0  0  0  0  0
   -0.5594    0.1905    2.6435 C   0  0  0  1  0  0  0  0  0  0  0  0
   -1.5744   -0.8076    3.2438 C   0  0  0  1  0  0  0  0  0  0  0  0
   -2.7688   -0.0146    3.7112 C   0  0  0  1  0  0  0  0  0  0  0  0
   -3.4600    2.4119    3.0548 C   0  0  0  1  0  0  0  0  0  0  0  0
    1.6099    1.3338    1.3108 N   0  0  0  1  0  0  0  0  0  0  0  0
    3.1629    1.3888   -0.4382 C   0  0  0  1  0  0  0  0  0  0  0  0
    2.5754    0.2103   -0.9423 C   0  0  0  1  0  0  0  0  0  0  0  0
    3.2746   -0.1062   -2.0741 N   0  0  0  1  0  0  0  0  0  0  0  0
    4.1727    1.7310   -1.2678 N   0  0  0  1  0  0  0  0  0  0  0  0
    4.2613    0.8791   -2.2290 N   0  0  0  1  0  0  0  0  0  0  0  0
    2.6536   -4.4962   -5.3949 O   0  0  0  1  0  0  0  0  0  0  0  0
    0.0484   -0.3430    1.4369 N   0  0  0  1  0  0  0  0  0  0  0  0
    1.3005   -4.7988   -5.7691 C   0  0  0  1  0  0  0  0  0  0  0  0
   -2.5336    1.3327    2.9940 N   0  0  0  1  0  0  0  0  0  0  0  0
   -1.4224    1.3975    2.3330 C   0  0  0  1  0  0  0  0  0  0  0  0
   -4.7476    2.2735    3.5391 C   0  0  0  1  0  0  0  0  0  0  0  0
   -5.5721    3.3823    3.5613 C   0  0  0  1  0  0  0  0  0  0  0  0
   -5.1911    4.5900    3.1341 N   0  0  0  1  0  0  0  0  0  0  0  0
   -3.9415    4.7088    2.6631 C   0  0  0  1  0  0  0  0  0  0  0  0
   -3.0489    3.6526    2.6082 C   0  0  0  1  0  0  0  0  0  0  0  0
    3.0332    2.8080    1.1413 H   0  0  0  1  0  0  0  0  0  0  0  0
    1.0841   -0.8854   -3.3201 H   0  0  0  1  0  0  0  0  0  0  0  0
    4.9209   -3.6660   -4.3466 H   0  0  0  1  0  0  0  0  0  0  0  0
    5.1696   -1.7510   -2.8845 H   0  0  0  1  0  0  0  0  0  0  0  0
    0.8351   -2.8036   -4.7845 H   0  0  0  1  0  0  0  0  0  0  0  0
    0.2055    0.4349    3.3507 H   0  0  0  1  0  0  0  0  0  0  0  0
   -1.8746   -1.5151    2.4994 H   0  0  0  1  0  0  0  0  0  0  0  0
   -1.1331   -1.3243    4.0703 H   0  0  0  1  0  0  0  0  0  0  0  0
   -3.6866   -0.4688    3.4010 H   0  0  0  1  0  0  0  0  0  0  0  0
   -2.7698    0.1024    4.7748 H   0  0  0  1  0  0  0  0  0  0  0  0
   -0.3213   -1.1691    1.0609 H   0  0  0  1  0  0  0  0  0  0  0  0
    0.9895   -4.1373   -6.5504 H   0  0  0  1  0  0  0  0  0  0  0  0
    0.6599   -4.6748   -4.9210 H   0  0  0  1  0  0  0  0  0  0  0  0
    1.2439   -5.8099   -6.1146 H   0  0  0  1  0  0  0  0  0  0  0  0
   -0.8977    2.2880    2.6097 H   0  0  0  1  0  0  0  0  0  0  0  0
   -1.6355    1.4197    1.2846 H   0  0  0  1  0  0  0  0  0  0  0  0
   -5.0892    1.3524    3.8802 H   0  0  0  1  0  0  0  0  0  0  0  0
   -6.5385    3.2713    3.9292 H   0  0  0  1  0  0  0  0  0  0  0  0
   -3.6277    5.6399    2.3225 H   0  0  0  1  0  0  0  0  0  0  0  0
   -2.0870    3.7904    2.2377 H   0  0  0  1  0  0  0  0  0  0  0  0
  1  3  4  0  0  0  0
  1 14  4  0  0  0  0
  1 21  1  0  0  0  0
  2 14  4  0  0  0  0
  2 15  4  0  0  0  0
  2 30  1  0  0  0  0
  3 16  4  0  0  0  0
  4  5  4  0  0  0  0
  4  7  4  0  0  0  0
  4 17  1  0  0  0  0
  5  9  4  0  0  0  0
  5 31  1  0  0  0  0
  6  7  4  0  0  0  0
  6  8  4  0  0  0  0
  6 32  1  0  0  0  0
  7 33  1  0  0  0  0
  8  9  4  0  0  0  0
  8 20  1  0  0  0  0
  9 34  1  0  0  0  0
 10 11  1  0  0  0  0
 10 21  1  0  0  0  0
 10 24  1  0  0  0  0
 10 35  1  0  0  0  0
 11 12  1  0  0  0  0
 11 36  1  0  0  0  0
 11 37  1  0  0  0  0
 12 23  1  0  0  0  0
 12 38  1  0  0  0  0
 12 39  1  0  0  0  0
 13 23  1  0  0  0  0
 13 25  4  0  0  0  0
 13 29  4  0  0  0  0
 15 16  4  0  0  0  0
 15 18  4  0  0  0  0
 16 17  4  0  0  0  0
 17 19  4  0  0  0  0
 18 19  4  0  0  0  0
 20 22  1  0  0  0  0
 21 40  1  0  0  0  0
 22 41  1  0  0  0  0
 22 42  1  0  0  0  0
 22 43  1  0  0  0  0
 23 24  1  0  0  0  0
 24 44  1  0  0  0  0
 24 45  1  0  0  0  0
 25 26  4  0  0  0  0
 25 46  1  0  0  0  0
 26 27  4  0  0  0  0
 26 47  1  0  0  0  0
 27 28  4  0  0  0  0
 28 29  4  0  0  0  0
 28 48  1  0  0  0  0
 29 49  1  0  0  0  0
M  END
> <ConfClashScore>
0 

> <ConfOneFourInteractionScore>
-0.984874 

> <ConfScore>
0.0342348 

> <ConfScorePBest>
0.00330001 

> <ConfTolerance>
0.548631 

> <HETNAM>
     OWQ A 303  OWQ                                                       

> <pdb_OW>
Q_303 -16.5129 3.80749 7.62812 0.15963 1.39178 -0.28144 -3.20151 0 0 0 -1.30514 0 0 0 0 0 0 0 0 -8.31393

$$$$
6yky_lig_1.pdb
 OpenBabel04162415593D

 49 53  0  0  0  0  0  0  0  0999 V2000
    1.2565    0.5240    0.5591 C   0  0  0  1  0  0  0  0  0  0  0  0
    2.1111    2.1721   -0.8058 C   0  0  0  1  0  0  0  0  0  0  0  0
    1.0404   -0.2961   -0.4468 N   0  0  0  1  0  0  0  0  0  0  0  0
    0.7786   -1.7954   -3.3639 C   0  0  0  1  0  0  0  0  0  0  0  0
    0.1604   -2.6566   -2.4773 C   0  0  0  1  0  0  0  0  0  0  0  0
    0.6452   -3.4633   -5.0807 C   0  0  0  1  0  0  0  0  0  0  0  0
    1.0239   -2.2002   -4.6668 C   0  0  0  1  0  0  0  0  0  0  0  0
    0.0251   -4.3273   -4.1916 C   0  0  0  1  0  0  0  0  0  0  0  0
   -0.2194   -3.9235   -2.8925 C   0  0  0  1  0  0  0  0  0  0  0  0
    1.2696    0.8195    3.0456 C   0  0  0  1  0  0  0  0  0  0  0  0
    0.6042    0.1421    4.2383 C   0  0  0  1  0  0  0  0  0  0  0  0
   -0.8357    0.6711    4.2118 C   0  0  0  1  0  0  0  0  0  0  0  0
   -1.7562    2.8987    3.3993 C   0  0  0  1  0  0  0  0  0  0  0  0
    1.7774    1.7270    0.3919 N   0  0  0  1  0  0  0  0  0  0  0  0
    1.9028    1.3406   -1.9121 C   0  0  0  1  0  0  0  0  0  0  0  0
    1.3448    0.0654   -1.6872 C   0  0  0  1  0  0  0  0  0  0  0  0
    1.2502   -0.5277   -2.9157 N   0  0  0  1  0  0  0  0  0  0  0  0
    2.1190    1.4653   -3.2398 N   0  0  0  1  0  0  0  0  0  0  0  0
    1.7487    0.3933   -3.8492 N   0  0  0  1  0  0  0  0  0  0  0  0
   -0.3158   -5.5519   -4.6584 O   0  0  0  1  0  0  0  0  0  0  0  0
    0.9379    0.1271    1.7962 N   0  0  0  1  0  0  0  0  0  0  0  0
    0.2587   -5.9604   -5.9097 C   0  0  0  1  0  0  0  0  0  0  0  0
   -0.6969    1.9812    3.5508 N   0  0  0  1  0  0  0  0  0  0  0  0
    0.6778    2.2252    3.0646 C   0  0  0  1  0  0  0  0  0  0  0  0
   -1.8409    3.9536    4.2890 C   0  0  0  1  0  0  0  0  0  0  0  0
   -2.8731    4.8613    4.1474 C   0  0  0  1  0  0  0  0  0  0  0  0
   -3.8033    4.7732    3.1917 N   0  0  0  1  0  0  0  0  0  0  0  0
   -3.7116    3.7431    2.3387 C   0  0  0  1  0  0  0  0  0  0  0  0
   -2.7094    2.7910    2.4054 C   0  0  0  1  0  0  0  0  0  0  0  0
    2.5202    3.1208   -0.9245 H   0  0  0  1  0  0  0  0  0  0  0  0
   -0.0200   -2.3543   -1.4987 H   0  0  0  1  0  0  0  0  0  0  0  0
    0.8255   -3.7656   -6.0593 H   0  0  0  1  0  0  0  0  0  0  0  0
    1.4927   -1.5534   -5.3328 H   0  0  0  1  0  0  0  0  0  0  0  0
   -0.6882   -4.5701   -2.2265 H   0  0  0  1  0  0  0  0  0  0  0  0
    2.3324    0.8496    3.1660 H   0  0  0  1  0  0  0  0  0  0  0  0
    1.0923    0.4142    5.1508 H   0  0  0  1  0  0  0  0  0  0  0  0
    0.6201   -0.9222    4.1284 H   0  0  0  1  0  0  0  0  0  0  0  0
   -1.4731    0.0221    3.6484 H   0  0  0  1  0  0  0  0  0  0  0  0
   -1.2233    0.7800    5.2031 H   0  0  0  1  0  0  0  0  0  0  0  0
    0.4330   -0.7091    1.8753 H   0  0  0  1  0  0  0  0  0  0  0  0
    1.3009   -5.7180   -5.9203 H   0  0  0  1  0  0  0  0  0  0  0  0
   -0.2339   -5.4509   -6.7113 H   0  0  0  1  0  0  0  0  0  0  0  0
    0.1373   -7.0167   -6.0297 H   0  0  0  1  0  0  0  0  0  0  0  0
    1.2174    2.8638    3.7324 H   0  0  0  1  0  0  0  0  0  0  0  0
    0.6716    2.6563    2.0852 H   0  0  0  1  0  0  0  0  0  0  0  0
   -1.1409    4.0618    5.0505 H   0  0  0  1  0  0  0  0  0  0  0  0
   -2.9290    5.6536    4.8187 H   0  0  0  1  0  0  0  0  0  0  0  0
   -4.4284    3.6551    1.5903 H   0  0  0  1  0  0  0  0  0  0  0  0
   -2.6746    2.0093    1.7204 H   0  0  0  1  0  0  0  0  0  0  0  0
  1  3  4  0  0  0  0
  1 14  4  0  0  0  0
  1 21  1  0  0  0  0
  2 14  4  0  0  0  0
  2 15  4  0  0  0  0
  2 30  1  0  0  0  0
  3 16  4  0  0  0  0
  4  5  4  0  0  0  0
  4  7  4  0  0  0  0
  4 17  1  0  0  0  0
  5  9  4  0  0  0  0
  5 31  1  0  0  0  0
  6  7  4  0  0  0  0
  6  8  4  0  0  0  0
  6 32  1  0  0  0  0
  7 33  1  0  0  0  0
  8  9  4  0  0  0  0
  8 20  1  0  0  0  0
  9 34  1  0  0  0  0
 10 11  1  0  0  0  0
 10 21  1  0  0  0  0
 10 24  1  0  0  0  0
 10 35  1  0  0  0  0
 11 12  1  0  0  0  0
 11 36  1  0  0  0  0
 11 37  1  0  0  0  0
 12 23  1  0  0  0  0
 12 38  1  0  0  0  0
 12 39  1  0  0  0  0
 13 23  1  0  0  0  0
 13 25  4  0  0  0  0
 13 29  4  0  0  0  0
 15 16  4  0  0  0  0
 15 18  4  0  0  0  0
 16 17  4  0  0  0  0
 17 19  4  0  0  0  0
 18 19  4  0  0  0  0
 20 22  1  0  0  0  0
 21 40  1  0  0  0  0
 22 41  1  0  0  0  0
 22 42  1  0  0  0  0
 22 43  1  0  0  0  0
 23 24  1  0  0  0  0
 24 44  1  0  0  0  0
 24 45  1  0  0  0  0
 25 26  4  0  0  0  0
 25 46  1  0  0  0  0
 26 27  4  0  0  0  0
 26 47  1  0  0  0  0
 27 28  4  0  0  0  0
 28 29  4  0  0  0  0
 28 48  1  0  0  0  0
 29 49  1  0  0  0  0
M  END
> <ConfClashScore>
0 

> <ConfOneFourInteractionScore>
-0.987833 

> <ConfScore>
0.0343405 

> <ConfScorePBest>
0.00328668 

> <ConfTolerance>
0.739453 

> <HETNAM>
     OWQ A 303  OWQ                                                       

> <pdb_OW>
Q_303 -16.5129 3.80749 7.62812 0.15963 1.39178 -0.28144 -3.20151 0 0 0 -1.30514 0 0 0 0 0 0 0 0 -8.31393

$$$$
6yky_lig_1.pdb
 OpenBabel04162415593D

 49 53  0  0  0  0  0  0  0  0999 V2000
    3.3587   -0.9781   -0.9240 C   0  0  0  1  0  0  0  0  0  0  0  0
    3.8709   -1.8700   -2.9859 C   0  0  0  1  0  0  0  0  0  0  0  0
    2.0621   -1.0770   -1.1241 N   0  0  0  1  0  0  0  0  0  0  0  0
   -0.9563   -1.5867   -2.2343 C   0  0  0  1  0  0  0  0  0  0  0  0
   -1.1150   -0.8122   -1.1007 C   0  0  0  1  0  0  0  0  0  0  0  0
   -3.3019   -2.0817   -2.2273 C   0  0  0  1  0  0  0  0  0  0  0  0
   -2.0508   -2.2246   -2.7970 C   0  0  0  1  0  0  0  0  0  0  0  0
   -3.4613   -1.3050   -1.0903 C   0  0  0  1  0  0  0  0  0  0  0  0
   -2.3699   -0.6691   -0.5294 C   0  0  0  1  0  0  0  0  0  0  0  0
    2.9294    0.0733    1.2737 C   0  0  0  1  0  0  0  0  0  0  0  0
    1.8757   -0.9678    1.7429 C   0  0  0  1  0  0  0  0  0  0  0  0
    0.6402   -0.1867    2.2373 C   0  0  0  1  0  0  0  0  0  0  0  0
    0.0649    2.2776    1.9273 C   0  0  0  1  0  0  0  0  0  0  0  0
    4.2452   -1.3621   -1.8257 N   0  0  0  1  0  0  0  0  0  0  0  0
    2.5029   -1.9982   -3.2517 C   0  0  0  1  0  0  0  0  0  0  0  0
    1.5927   -1.5757   -2.2611 C   0  0  0  1  0  0  0  0  0  0  0  0
    0.3452   -1.8082   -2.7705 N   0  0  0  1  0  0  0  0  0  0  0  0
    1.7846   -2.4595   -4.2987 N   0  0  0  1  0  0  0  0  0  0  0  0
    0.5258   -2.3613   -4.0471 N   0  0  0  1  0  0  0  0  0  0  0  0
   -4.6986   -1.0906   -0.5833 O   0  0  0  1  0  0  0  0  0  0  0  0
    3.8010   -0.4661    0.2444 N   0  0  0  1  0  0  0  0  0  0  0  0
   -4.7932   -0.2702    0.5917 C   0  0  0  1  0  0  0  0  0  0  0  0
    0.8465    1.1648    1.6441 N   0  0  0  1  0  0  0  0  0  0  0  0
    1.9904    1.1612    0.7175 C   0  0  0  1  0  0  0  0  0  0  0  0
    0.3845    3.1919    2.9140 C   0  0  0  1  0  0  0  0  0  0  0  0
   -0.4550    4.2704    3.1181 C   0  0  0  1  0  0  0  0  0  0  0  0
   -1.5696    4.4782    2.4103 N   0  0  0  1  0  0  0  0  0  0  0  0
   -1.8696    3.5817    1.4599 C   0  0  0  1  0  0  0  0  0  0  0  0
   -1.0837    2.4758    1.1862 C   0  0  0  1  0  0  0  0  0  0  0  0
    4.5782   -2.1686   -3.6875 H   0  0  0  1  0  0  0  0  0  0  0  0
   -0.2931   -0.3369   -0.6763 H   0  0  0  1  0  0  0  0  0  0  0  0
   -4.1239   -2.5570   -2.6518 H   0  0  0  1  0  0  0  0  0  0  0  0
   -1.9306   -2.8106   -3.6477 H   0  0  0  1  0  0  0  0  0  0  0  0
   -2.4901   -0.0830    0.3213 H   0  0  0  1  0  0  0  0  0  0  0  0
    3.5206    0.4362    2.0883 H   0  0  0  1  0  0  0  0  0  0  0  0
    1.6030   -1.6044    0.9272 H   0  0  0  1  0  0  0  0  0  0  0  0
    2.2764   -1.5595    2.5392 H   0  0  0  1  0  0  0  0  0  0  0  0
    0.6164   -0.1391    3.3059 H   0  0  0  1  0  0  0  0  0  0  0  0
   -0.2652   -0.6307    1.8793 H   0  0  0  1  0  0  0  0  0  0  0  0
    4.7672   -0.4578    0.4078 H   0  0  0  1  0  0  0  0  0  0  0  0
   -4.5104    0.7332    0.3504 H   0  0  0  1  0  0  0  0  0  0  0  0
   -4.1392   -0.6529    1.3472 H   0  0  0  1  0  0  0  0  0  0  0  0
   -5.8003   -0.2796    0.9528 H   0  0  0  1  0  0  0  0  0  0  0  0
    1.6733    0.9166   -0.2747 H   0  0  0  1  0  0  0  0  0  0  0  0
    2.4765    2.1144    0.7124 H   0  0  0  1  0  0  0  0  0  0  0  0
    1.2407    3.0702    3.4918 H   0  0  0  1  0  0  0  0  0  0  0  0
   -0.2069    4.9553    3.8603 H   0  0  0  1  0  0  0  0  0  0  0  0
   -2.7350    3.7241    0.9009 H   0  0  0  1  0  0  0  0  0  0  0  0
   -1.3529    1.8068    0.4369 H   0  0  0  1  0  0  0  0  0  0  0  0
  1  3  4  0  0  0  0
  1 14  4  0  0  0  0
  1 21  1  0  0  0  0
  2 14  4  0  0  0  0
  2 15  4  0  0  0  0
  2 30  1  0  0  0  0
  3 16  4  0  0  0  0
  4  5  4  0  0  0  0
  4  7  4  0  0  0  0
  4 17  1  0  0  0  0
  5  9  4  0  0  0  0
  5 31  1  0  0  0  0
  6  7  4  0  0  0  0
  6  8  4  0  0  0  0
  6 32  1  0  0  0  0
  7 33  1  0  0  0  0
  8  9  4  0  0  0  0
  8 20  1  0  0  0  0
  9 34  1  0  0  0  0
 10 11  1  0  0  0  0
 10 21  1  0  0  0  0
 10 24  1  0  0  0  0
 10 35  1  0  0  0  0
 11 12  1  0  0  0  0
 11 36  1  0  0  0  0
 11 37  1  0  0  0  0
 12 23  1  0  0  0  0
 12 38  1  0  0  0  0
 12 39  1  0  0  0  0
 13 23  1  0  0  0  0
 13 25  4  0  0  0  0
 13 29  4  0  0  0  0
 15 16  4  0  0  0  0
 15 18  4  0  0  0  0
 16 17  4  0  0  0  0
 17 19  4  0  0  0  0
 18 19  4  0  0  0  0
 20 22  1  0  0  0  0
 21 40  1  0  0  0  0
 22 41  1  0  0  0  0
 22 42  1  0  0  0  0
 22 43  1  0  0  0  0
 23 24  1  0  0  0  0
 24 44  1  0  0  0  0
 24 45  1  0  0  0  0
 25 26  4  0  0  0  0
 25 46  1  0  0  0  0
 26 27  4  0  0  0  0
 26 47  1  0  0  0  0
 27 28  4  0  0  0  0
 28 29  4  0  0  0  0
 28 48  1  0  0  0  0
 29 49  1  0  0  0  0
M  END
> <ConfClashScore>
0 

> <ConfOneFourInteractionScore>
-0.983503 

> <ConfScore>
0.0346457 

> <ConfScorePBest>
0.00327336 

> <ConfTolerance>
0.447225 

> <HETNAM>
     OWQ A 303  OWQ                                                       

> <pdb_OW>
Q_303 -16.5129 3.80749 7.62812 0.15963 1.39178 -0.28144 -3.20151 0 0 0 -1.30514 0 0 0 0 0 0 0 0 -8.31393

$$$$
6yky_lig_1.pdb
 OpenBabel04162415593D

 49 53  0  0  0  0  0  0  0  0999 V2000
   -0.8354   -1.5946   -1.4356 C   0  0  0  1  0  0  0  0  0  0  0  0
   -0.5366   -2.8016   -3.3755 C   0  0  0  1  0  0  0  0  0  0  0  0
    0.4508   -1.3504   -1.3052 N   0  0  0  1  0  0  0  0  0  0  0  0
    3.6879   -1.1167   -1.5695 C   0  0  0  1  0  0  0  0  0  0  0  0
    4.9674   -1.6340   -1.6425 C   0  0  0  1  0  0  0  0  0  0  0  0
    4.4075    0.4315    0.1135 C   0  0  0  1  0  0  0  0  0  0  0  0
    3.4068   -0.0842   -0.6883 C   0  0  0  1  0  0  0  0  0  0  0  0
    5.6909   -0.0873    0.0404 C   0  0  0  1  0  0  0  0  0  0  0  0
    5.9709   -1.1168   -0.8383 C   0  0  0  1  0  0  0  0  0  0  0  0
   -1.4444   -0.4053    0.6728 C   0  0  0  1  0  0  0  0  0  0  0  0
   -2.0792   -1.0857    1.8500 C   0  0  0  1  0  0  0  0  0  0  0  0
   -3.5429   -0.5710    1.7577 C   0  0  0  1  0  0  0  0  0  0  0  0
   -4.3661    1.7298    1.2216 C   0  0  0  1  0  0  0  0  0  0  0  0
   -1.3234   -2.3002   -2.4407 N   0  0  0  1  0  0  0  0  0  0  0  0
    0.8411   -2.5723   -3.2862 C   0  0  0  1  0  0  0  0  0  0  0  0
    1.3176   -1.8142   -2.1970 C   0  0  0  1  0  0  0  0  0  0  0  0
    2.6746   -1.7439   -2.3506 N   0  0  0  1  0  0  0  0  0  0  0  0
    1.9064   -2.9229   -4.0393 N   0  0  0  1  0  0  0  0  0  0  0  0
    2.9871   -2.4547   -3.5191 N   0  0  0  1  0  0  0  0  0  0  0  0
    6.7474    0.3316    0.7768 O   0  0  0  1  0  0  0  0  0  0  0  0
   -1.7319   -1.1402   -0.5528 N   0  0  0  1  0  0  0  0  0  0  0  0
    6.4883    1.3018    1.8034 C   0  0  0  1  0  0  0  0  0  0  0  0
   -3.3595    0.7434    1.1997 N   0  0  0  1  0  0  0  0  0  0  0  0
   -2.0514    0.9676    0.6130 C   0  0  0  1  0  0  0  0  0  0  0  0
   -5.6597    1.4776    1.6395 C   0  0  0  1  0  0  0  0  0  0  0  0
   -6.5755    2.5124    1.6284 C   0  0  0  1  0  0  0  0  0  0  0  0
   -6.2778    3.7529    1.2300 N   0  0  0  1  0  0  0  0  0  0  0  0
   -5.0211    3.9823    0.8233 C   0  0  0  1  0  0  0  0  0  0  0  0
   -4.0404    3.0060    0.8055 C   0  0  0  1  0  0  0  0  0  0  0  0
   -0.9327   -3.3554   -4.1617 H   0  0  0  1  0  0  0  0  0  0  0  0
    5.1772   -2.4114   -2.3008 H   0  0  0  1  0  0  0  0  0  0  0  0
    4.1976    1.2089    0.7718 H   0  0  0  1  0  0  0  0  0  0  0  0
    2.4430    0.3024   -0.6305 H   0  0  0  1  0  0  0  0  0  0  0  0
    6.9347   -1.5033   -0.8960 H   0  0  0  1  0  0  0  0  0  0  0  0
   -0.3852   -0.3381    0.8088 H   0  0  0  1  0  0  0  0  0  0  0  0
   -1.6180   -0.7877    2.7683 H   0  0  0  1  0  0  0  0  0  0  0  0
   -2.0335   -2.1507    1.7565 H   0  0  0  1  0  0  0  0  0  0  0  0
   -4.1328   -1.1886    1.1131 H   0  0  0  1  0  0  0  0  0  0  0  0
   -4.0004   -0.5234    2.7238 H   0  0  0  1  0  0  0  0  0  0  0  0
   -2.6751   -1.3191   -0.7495 H   0  0  0  1  0  0  0  0  0  0  0  0
    5.8480    2.0675    1.4179 H   0  0  0  1  0  0  0  0  0  0  0  0
    7.4118    1.7372    2.1236 H   0  0  0  1  0  0  0  0  0  0  0  0
    6.0121    0.8236    2.6338 H   0  0  0  1  0  0  0  0  0  0  0  0
   -1.4829    1.6695    1.1867 H   0  0  0  1  0  0  0  0  0  0  0  0
   -2.1321    1.3135   -0.3964 H   0  0  0  1  0  0  0  0  0  0  0  0
   -5.9383    0.5269    1.9562 H   0  0  0  1  0  0  0  0  0  0  0  0
   -7.5460    2.3158    1.9465 H   0  0  0  1  0  0  0  0  0  0  0  0
   -4.7711    4.9405    0.5058 H   0  0  0  1  0  0  0  0  0  0  0  0
   -3.0765    3.2289    0.4848 H   0  0  0  1  0  0  0  0  0  0  0  0
  1  3  4  0  0  0  0
  1 14  4  0  0  0  0
  1 21  1  0  0  0  0
  2 14  4  0  0  0  0
  2 15  4  0  0  0  0
  2 30  1  0  0  0  0
  3 16  4  0  0  0  0
  4  5  4  0  0  0  0
  4  7  4  0  0  0  0
  4 17  1  0  0  0  0
  5  9  4  0  0  0  0
  5 31  1  0  0  0  0
  6  7  4  0  0  0  0
  6  8  4  0  0  0  0
  6 32  1  0  0  0  0
  7 33  1  0  0  0  0
  8  9  4  0  0  0  0
  8 20  1  0  0  0  0
  9 34  1  0  0  0  0
 10 11  1  0  0  0  0
 10 21  1  0  0  0  0
 10 24  1  0  0  0  0
 10 35  1  0  0  0  0
 11 12  1  0  0  0  0
 11 36  1  0  0  0  0
 11 37  1  0  0  0  0
 12 23  1  0  0  0  0
 12 38  1  0  0  0  0
 12 39  1  0  0  0  0
 13 23  1  0  0  0  0
 13 25  4  0  0  0  0
 13 29  4  0  0  0  0
 15 16  4  0  0  0  0
 15 18  4  0  0  0  0
 16 17  4  0  0  0  0
 17 19  4  0  0  0  0
 18 19  4  0  0  0  0
 20 22  1  0  0  0  0
 21 40  1  0  0  0  0
 22 41  1  0  0  0  0
 22 42  1  0  0  0  0
 22 43  1  0  0  0  0
 23 24  1  0  0  0  0
 24 44  1  0  0  0  0
 24 45  1  0  0  0  0
 25 26  4  0  0  0  0
 25 46  1  0  0  0  0
 26 27  4  0  0  0  0
 26 47  1  0  0  0  0
 27 28  4  0  0  0  0
 28 29  4  0  0  0  0
 28 48  1  0  0  0  0
 29 49  1  0  0  0  0
M  END
> <ConfClashScore>
0 

> <ConfOneFourInteractionScore>
-0.986948 

> <ConfScore>
0.0349687 

> <ConfScorePBest>
0.00326003 

> <ConfTolerance>
0.821491 

> <HETNAM>
     OWQ A 303  OWQ                                                       

> <pdb_OW>
Q_303 -16.5129 3.80749 7.62812 0.15963 1.39178 -0.28144 -3.20151 0 0 0 -1.30514 0 0 0 0 0 0 0 0 -8.31393

$$$$
6yky_lig_1.pdb
 OpenBabel04162415593D

 49 53  0  0  0  0  0  0  0  0999 V2000
    0.3349    0.3551    0.2890 C   0  0  0  1  0  0  0  0  0  0  0  0
    0.8963    2.4767   -0.4132 C   0  0  0  1  0  0  0  0  0  0  0  0
    1.2518   -0.2137   -0.4637 N   0  0  0  1  0  0  0  0  0  0  0  0
    3.6638   -0.9672   -2.5175 C   0  0  0  1  0  0  0  0  0  0  0  0
    3.0023   -1.7200   -3.4692 C   0  0  0  1  0  0  0  0  0  0  0  0
    5.3180   -2.6889   -2.3020 C   0  0  0  1  0  0  0  0  0  0  0  0
    4.8219   -1.4534   -1.9310 C   0  0  0  1  0  0  0  0  0  0  0  0
    4.6547   -3.4441   -3.2566 C   0  0  0  1  0  0  0  0  0  0  0  0
    3.5000   -2.9591   -3.8412 C   0  0  0  1  0  0  0  0  0  0  0  0
   -1.3083    0.1259    2.1055 C   0  0  0  1  0  0  0  0  0  0  0  0
   -2.3652   -0.8984    2.6035 C   0  0  0  1  0  0  0  0  0  0  0  0
   -3.5834   -0.0985    3.1106 C   0  0  0  1  0  0  0  0  0  0  0  0
   -4.1347    2.3660    2.7839 C   0  0  0  1  0  0  0  0  0  0  0  0
    0.1560    1.6641    0.3188 N   0  0  0  1  0  0  0  0  0  0  0  0
    1.8874    1.9250   -1.2330 C   0  0  0  1  0  0  0  0  0  0  0  0
    2.0430    0.5236   -1.2333 C   0  0  0  1  0  0  0  0  0  0  0  0
    3.0616    0.2569   -2.1059 N   0  0  0  1  0  0  0  0  0  0  0  0
    2.7988    2.4391   -2.0873 N   0  0  0  1  0  0  0  0  0  0  0  0
    3.4964    1.4917   -2.6102 N   0  0  0  1  0  0  0  0  0  0  0  0
    5.1898   -4.6476   -3.5713 O   0  0  0  1  0  0  0  0  0  0  0  0
   -0.4606   -0.4337    1.0675 N   0  0  0  1  0  0  0  0  0  0  0  0
    4.4967   -5.4384   -4.5494 C   0  0  0  1  0  0  0  0  0  0  0  0
   -3.3723    1.2444    2.4998 N   0  0  0  1  0  0  0  0  0  0  0  0
   -2.2446    1.2185    1.5540 C   0  0  0  1  0  0  0  0  0  0  0  0
   -5.2346    2.6285    1.9883 C   0  0  0  1  0  0  0  0  0  0  0  0
   -6.0044    3.7423    2.2650 C   0  0  0  1  0  0  0  0  0  0  0  0
   -5.7403    4.5881    3.2655 N   0  0  0  1  0  0  0  0  0  0  0  0
   -4.6684    4.3239    4.0261 C   0  0  0  1  0  0  0  0  0  0  0  0
   -3.8457    3.2298    3.8222 C   0  0  0  1  0  0  0  0  0  0  0  0
    0.7459    3.5053   -0.3811 H   0  0  0  1  0  0  0  0  0  0  0  0
    2.1313   -1.3568   -3.9063 H   0  0  0  1  0  0  0  0  0  0  0  0
    6.1890   -3.0521   -1.8649 H   0  0  0  1  0  0  0  0  0  0  0  0
    5.3173   -0.8886   -1.2119 H   0  0  0  1  0  0  0  0  0  0  0  0
    3.0045   -3.5238   -4.5604 H   0  0  0  1  0  0  0  0  0  0  0  0
   -0.6992    0.4905    2.9061 H   0  0  0  1  0  0  0  0  0  0  0  0
   -1.9574   -1.4863    3.3991 H   0  0  0  1  0  0  0  0  0  0  0  0
   -2.6588   -1.5403    1.7993 H   0  0  0  1  0  0  0  0  0  0  0  0
   -3.5883   -0.0396    4.1790 H   0  0  0  1  0  0  0  0  0  0  0  0
   -4.4996   -0.5359    2.7728 H   0  0  0  1  0  0  0  0  0  0  0  0
   -0.4600   -1.4029    0.9225 H   0  0  0  1  0  0  0  0  0  0  0  0
    4.2425   -4.8258   -5.3890 H   0  0  0  1  0  0  0  0  0  0  0  0
    3.6036   -5.8383   -4.1166 H   0  0  0  1  0  0  0  0  0  0  0  0
    5.1277   -6.2404   -4.8715 H   0  0  0  1  0  0  0  0  0  0  0  0
   -1.7482    2.1661    1.5306 H   0  0  0  1  0  0  0  0  0  0  0  0
   -2.5814    0.9673    0.5700 H   0  0  0  1  0  0  0  0  0  0  0  0
   -5.4780    1.9996    1.1966 H   0  0  0  1  0  0  0  0  0  0  0  0
   -6.8317    3.9320    1.6639 H   0  0  0  1  0  0  0  0  0  0  0  0
   -4.4441    4.9727    4.8073 H   0  0  0  1  0  0  0  0  0  0  0  0
   -3.0256    3.0612    4.4390 H   0  0  0  1  0  0  0  0  0  0  0  0
  1  3  4  0  0  0  0
  1 14  4  0  0  0  0
  1 21  1  0  0  0  0
  2 14  4  0  0  0  0
  2 15  4  0  0  0  0
  2 30  1  0  0  0  0
  3 16  4  0  0  0  0
  4  5  4  0  0  0  0
  4  7  4  0  0  0  0
  4 17  1  0  0  0  0
  5  9  4  0  0  0  0
  5 31  1  0  0  0  0
  6  7  4  0  0  0  0
  6  8  4  0  0  0  0
  6 32  1  0  0  0  0
  7 33  1  0  0  0  0
  8  9  4  0  0  0  0
  8 20  1  0  0  0  0
  9 34  1  0  0  0  0
 10 11  1  0  0  0  0
 10 21  1  0  0  0  0
 10 24  1  0  0  0  0
 10 35  1  0  0  0  0
 11 12  1  0  0  0  0
 11 36  1  0  0  0  0
 11 37  1  0  0  0  0
 12 23  1  0  0  0  0
 12 38  1  0  0  0  0
 12 39  1  0  0  0  0
 13 23  1  0  0  0  0
 13 25  4  0  0  0  0
 13 29  4  0  0  0  0
 15 16  4  0  0  0  0
 15 18  4  0  0  0  0
 16 17  4  0  0  0  0
 17 19  4  0  0  0  0
 18 19  4  0  0  0  0
 20 22  1  0  0  0  0
 21 40  1  0  0  0  0
 22 41  1  0  0  0  0
 22 42  1  0  0  0  0
 22 43  1  0  0  0  0
 23 24  1  0  0  0  0
 24 44  1  0  0  0  0
 24 45  1  0  0  0  0
 25 26  4  0  0  0  0
 25 46  1  0  0  0  0
 26 27  4  0  0  0  0
 26 47  1  0  0  0  0
 27 28  4  0  0  0  0
 28 29  4  0  0  0  0
 28 48  1  0  0  0  0
 29 49  1  0  0  0  0
M  END
> <ConfClashScore>
0 

> <ConfOneFourInteractionScore>
-0.987833 

> <ConfScore>
0.0350763 

> <ConfScorePBest>
0.0032467 

> <ConfTolerance>
0.399948 

> <HETNAM>
     OWQ A 303  OWQ                                                       

> <pdb_OW>
Q_303 -16.5129 3.80749 7.62812 0.15963 1.39178 -0.28144 -3.20151 0 0 0 -1.30514 0 0 0 0 0 0 0 0 -8.31393

$$$$
6yky_lig_1.pdb
 OpenBabel04162415593D

 49 53  0  0  0  0  0  0  0  0999 V2000
    1.6695    0.1705    0.6488 C   0  0  0  1  0  0  0  0  0  0  0  0
    3.8839    0.4920    0.0989 C   0  0  0  1  0  0  0  0  0  0  0  0
    1.4039   -0.4452   -0.4831 N   0  0  0  1  0  0  0  0  0  0  0  0
    1.4182   -1.9344   -3.3432 C   0  0  0  1  0  0  0  0  0  0  0  0
    1.5370   -3.3024   -3.5004 C   0  0  0  1  0  0  0  0  0  0  0  0
   -0.5368   -1.9425   -4.7307 C   0  0  0  1  0  0  0  0  0  0  0  0
    0.3813   -1.2530   -3.9614 C   0  0  0  1  0  0  0  0  0  0  0  0
   -0.4178   -3.3146   -4.8885 C   0  0  0  1  0  0  0  0  0  0  0  0
    0.6161   -3.9938   -4.2720 C   0  0  0  1  0  0  0  0  0  0  0  0
    0.8999    0.9754    2.8425 C   0  0  0  1  0  0  0  0  0  0  0  0
    0.1915    0.2236    3.9309 C   0  0  0  1  0  0  0  0  0  0  0  0
   -1.2559    0.7753    3.8020 C   0  0  0  1  0  0  0  0  0  0  0  0
   -1.9859    3.1040    3.3976 C   0  0  0  1  0  0  0  0  0  0  0  0
    2.8743    0.6295    0.9391 N   0  0  0  1  0  0  0  0  0  0  0  0
    3.6576   -0.1557   -1.1209 C   0  0  0  1  0  0  0  0  0  0  0  0
    2.3568   -0.6292   -1.3887 C   0  0  0  1  0  0  0  0  0  0  0  0
    2.4132   -1.2097   -2.6256 N   0  0  0  1  0  0  0  0  0  0  0  0
    4.4326   -0.4622   -2.1841 N   0  0  0  1  0  0  0  0  0  0  0  0
    3.7353   -1.0760   -3.0755 N   0  0  0  1  0  0  0  0  0  0  0  0
   -1.3417   -3.9260   -5.6549 O   0  0  0  1  0  0  0  0  0  0  0  0
    0.6658    0.3421    1.5567 N   0  0  0  1  0  0  0  0  0  0  0  0
   -1.1425   -5.3472   -5.8373 C   0  0  0  1  0  0  0  0  0  0  0  0
   -1.0198    2.1232    3.3547 N   0  0  0  1  0  0  0  0  0  0  0  0
    0.3214    2.3619    2.8547 C   0  0  0  1  0  0  0  0  0  0  0  0
   -1.7549    4.4584    3.2425 C   0  0  0  1  0  0  0  0  0  0  0  0
   -2.8277    5.3272    3.3062 C   0  0  0  1  0  0  0  0  0  0  0  0
   -4.0859    4.9272    3.5141 N   0  0  0  1  0  0  0  0  0  0  0  0
   -4.2948    3.6119    3.6671 C   0  0  0  1  0  0  0  0  0  0  0  0
   -3.2800    2.6723    3.6141 C   0  0  0  1  0  0  0  0  0  0  0  0
    4.8276    0.8575    0.3387 H   0  0  0  1  0  0  0  0  0  0  0  0
    2.3173   -3.8129   -3.0398 H   0  0  0  1  0  0  0  0  0  0  0  0
   -1.3171   -1.4319   -5.1913 H   0  0  0  1  0  0  0  0  0  0  0  0
    0.2943   -0.2231   -3.8463 H   0  0  0  1  0  0  0  0  0  0  0  0
    0.7032   -5.0237   -4.3871 H   0  0  0  1  0  0  0  0  0  0  0  0
    1.9514    1.0095    3.0377 H   0  0  0  1  0  0  0  0  0  0  0  0
    0.2232   -0.8322    3.7601 H   0  0  0  1  0  0  0  0  0  0  0  0
    0.6085    0.4427    4.8916 H   0  0  0  1  0  0  0  0  0  0  0  0
   -1.7632    0.7611    4.7440 H   0  0  0  1  0  0  0  0  0  0  0  0
   -1.8216    0.2201    3.0833 H   0  0  0  1  0  0  0  0  0  0  0  0
   -0.2365    0.0300    1.3355 H   0  0  0  1  0  0  0  0  0  0  0  0
   -1.6180   -5.8796   -5.0402 H   0  0  0  1  0  0  0  0  0  0  0  0
   -0.0946   -5.5633   -5.8351 H   0  0  0  1  0  0  0  0  0  0  0  0
   -1.5677   -5.6497   -6.7714 H   0  0  0  1  0  0  0  0  0  0  0  0
    0.8710    3.0068    3.5081 H   0  0  0  1  0  0  0  0  0  0  0  0
    0.3006    2.7833    1.8714 H   0  0  0  1  0  0  0  0  0  0  0  0
   -0.7920    4.8165    3.0810 H   0  0  0  1  0  0  0  0  0  0  0  0
   -2.6467    6.3442    3.1862 H   0  0  0  1  0  0  0  0  0  0  0  0
   -5.2667    3.2814    3.8336 H   0  0  0  1  0  0  0  0  0  0  0  0
   -3.4878    1.6605    3.7351 H   0  0  0  1  0  0  0  0  0  0  0  0
  1  3  4  0  0  0  0
  1 14  4  0  0  0  0
  1 21  1  0  0  0  0
  2 14  4  0  0  0  0
  2 15  4  0  0  0  0
  2 30  1  0  0  0  0
  3 16  4  0  0  0  0
  4  5  4  0  0  0  0
  4  7  4  0  0  0  0
  4 17  1  0  0  0  0
  5  9  4  0  0  0  0
  5 31  1  0  0  0  0
  6  7  4  0  0  0  0
  6  8  4  0  0  0  0
  6 32  1  0  0  0  0
  7 33  1  0  0  0  0
  8  9  4  0  0  0  0
  8 20  1  0  0  0  0
  9 34  1  0  0  0  0
 10 11  1  0  0  0  0
 10 21  1  0  0  0  0
 10 24  1  0  0  0  0
 10 35  1  0  0  0  0
 11 12  1  0  0  0  0
 11 36  1  0  0  0  0
 11 37  1  0  0  0  0
 12 23  1  0  0  0  0
 12 38  1  0  0  0  0
 12 39  1  0  0  0  0
 13 23  1  0  0  0  0
 13 25  4  0  0  0  0
 13 29  4  0  0  0  0
 15 16  4  0  0  0  0
 15 18  4  0  0  0  0
 16 17  4  0  0  0  0
 17 19  4  0  0  0  0
 18 19  4  0  0  0  0
 20 22  1  0  0  0  0
 21 40  1  0  0  0  0
 22 41  1  0  0  0  0
 22 42  1  0  0  0  0
 22 43  1  0  0  0  0
 23 24  1  0  0  0  0
 24 44  1  0  0  0  0
 24 45  1  0  0  0  0
 25 26  4  0  0  0  0
 25 46  1  0  0  0  0
 26 27  4  0  0  0  0
 26 47  1  0  0  0  0
 27 28  4  0  0  0  0
 28 29  4  0  0  0  0
 28 48  1  0  0  0  0
 29 49  1  0  0  0  0
M  END
> <ConfClashScore>
0 

> <ConfOneFourInteractionScore>
-0.986948 

> <ConfScore>
0.0353931 

> <ConfScorePBest>
0.00323337 

> <ConfTolerance>
0.720546 

> <HETNAM>
     OWQ A 303  OWQ                                                       

> <pdb_OW>
Q_303 -16.5129 3.80749 7.62812 0.15963 1.39178 -0.28144 -3.20151 0 0 0 -1.30514 0 0 0 0 0 0 0 0 -8.31393

$$$$
6yky_lig_1.pdb
 OpenBabel04162415593D

 49 53  0  0  0  0  0  0  0  0999 V2000
    3.4022   -1.1129   -0.8085 C   0  0  0  1  0  0  0  0  0  0  0  0
    3.8255   -2.0958   -2.8491 C   0  0  0  1  0  0  0  0  0  0  0  0
    2.1147   -0.9948   -1.0524 N   0  0  0  1  0  0  0  0  0  0  0  0
   -0.9231   -1.0887   -2.2324 C   0  0  0  1  0  0  0  0  0  0  0  0
   -1.1123   -1.0001   -0.8662 C   0  0  0  1  0  0  0  0  0  0  0  0
   -3.2568   -0.6685   -2.5852 C   0  0  0  1  0  0  0  0  0  0  0  0
   -1.9973   -0.9254   -3.0931 C   0  0  0  1  0  0  0  0  0  0  0  0
   -3.4467   -0.5795   -1.2149 C   0  0  0  1  0  0  0  0  0  0  0  0
   -2.3755   -0.7424   -0.3569 C   0  0  0  1  0  0  0  0  0  0  0  0
    3.0551   -0.1381    1.4384 C   0  0  0  1  0  0  0  0  0  0  0  0
    2.0064   -1.1407    1.8577 C   0  0  0  1  0  0  0  0  0  0  0  0
    0.9170   -0.2984    2.4908 C   0  0  0  1  0  0  0  0  0  0  0  0
    0.0487    2.0061    1.8288 C   0  0  0  1  0  0  0  0  0  0  0  0
    4.2411   -1.6478   -1.6784 N   0  0  0  1  0  0  0  0  0  0  0  0
    2.4649   -1.9952   -3.1610 C   0  0  0  1  0  0  0  0  0  0  0  0
    1.6062   -1.4176   -2.2033 C   0  0  0  1  0  0  0  0  0  0  0  0
    0.3549   -1.4421   -2.7542 N   0  0  0  1  0  0  0  0  0  0  0  0
    1.7144   -2.3387   -4.2305 N   0  0  0  1  0  0  0  0  0  0  0  0
    0.4823   -2.0287   -4.0222 N   0  0  0  1  0  0  0  0  0  0  0  0
   -4.7194   -0.3308   -0.8362 O   0  0  0  1  0  0  0  0  0  0  0  0
    3.8852   -0.6721    0.3728 N   0  0  0  1  0  0  0  0  0  0  0  0
   -5.0730   -0.4151    0.5532 C   0  0  0  1  0  0  0  0  0  0  0  0
    1.0169    0.9773    1.7582 N   0  0  0  1  0  0  0  0  0  0  0  0
    2.2390    1.0556    0.9466 C   0  0  0  1  0  0  0  0  0  0  0  0
    0.2676    3.1278    2.6068 C   0  0  0  1  0  0  0  0  0  0  0  0
   -0.7030    4.1107    2.6440 C   0  0  0  1  0  0  0  0  0  0  0  0
   -1.8523    4.0346    1.9660 N   0  0  0  1  0  0  0  0  0  0  0  0
   -2.0533    2.9395    1.2192 C   0  0  0  1  0  0  0  0  0  0  0  0
   -1.1339    1.9097    1.1217 C   0  0  0  1  0  0  0  0  0  0  0  0
    4.4954   -2.5148   -3.5253 H   0  0  0  1  0  0  0  0  0  0  0  0
   -0.3070   -1.1266   -0.2204 H   0  0  0  1  0  0  0  0  0  0  0  0
   -4.0621   -0.5420   -3.2310 H   0  0  0  1  0  0  0  0  0  0  0  0
   -1.8556   -0.9961   -4.1210 H   0  0  0  1  0  0  0  0  0  0  0  0
   -2.5172   -0.6717    0.6710 H   0  0  0  1  0  0  0  0  0  0  0  0
    3.6722    0.1377    2.2679 H   0  0  0  1  0  0  0  0  0  0  0  0
    2.4077   -1.8357    2.5653 H   0  0  0  1  0  0  0  0  0  0  0  0
    1.6295   -1.6724    1.0091 H   0  0  0  1  0  0  0  0  0  0  0  0
   -0.0447   -0.7467    2.3529 H   0  0  0  1  0  0  0  0  0  0  0  0
    1.0987   -0.1570    3.5357 H   0  0  0  1  0  0  0  0  0  0  0  0
    4.8531   -0.7150    0.5199 H   0  0  0  1  0  0  0  0  0  0  0  0
   -4.3921    0.1739    1.1314 H   0  0  0  1  0  0  0  0  0  0  0  0
   -5.0222   -1.4350    0.8727 H   0  0  0  1  0  0  0  0  0  0  0  0
   -6.0682   -0.0469    0.6906 H   0  0  0  1  0  0  0  0  0  0  0  0
    2.7584    1.9746    1.1213 H   0  0  0  1  0  0  0  0  0  0  0  0
    2.0147    0.9646   -0.0957 H   0  0  0  1  0  0  0  0  0  0  0  0
    1.1463    3.2300    3.1538 H   0  0  0  1  0  0  0  0  0  0  0  0
   -0.5303    4.9528    3.2294 H   0  0  0  1  0  0  0  0  0  0  0  0
   -2.9434    2.8601    0.6872 H   0  0  0  1  0  0  0  0  0  0  0  0
   -1.3298    1.0790    0.5274 H   0  0  0  1  0  0  0  0  0  0  0  0
  1  3  4  0  0  0  0
  1 14  4  0  0  0  0
  1 21  1  0  0  0  0
  2 14  4  0  0  0  0
  2 15  4  0  0  0  0
  2 30  1  0  0  0  0
  3 16  4  0  0  0  0
  4  5  4  0  0  0  0
  4  7  4  0  0  0  0
  4 17  1  0  0  0  0
  5  9  4  0  0  0  0
  5 31  1  0  0  0  0
  6  7  4  0  0  0  0
  6  8  4  0  0  0  0
  6 32  1  0  0  0  0
  7 33  1  0  0  0  0
  8  9  4  0  0  0  0
  8 20  1  0  0  0  0
  9 34  1  0  0  0  0
 10 11  1  0  0  0  0
 10 21  1  0  0  0  0
 10 24  1  0  0  0  0
 10 35  1  0  0  0  0
 11 12  1  0  0  0  0
 11 36  1  0  0  0  0
 11 37  1  0  0  0  0
 12 23  1  0  0  0  0
 12 38  1  0  0  0  0
 12 39  1  0  0  0  0
 13 23  1  0  0  0  0
 13 25  4  0  0  0  0
 13 29  4  0  0  0  0
 15 16  4  0  0  0  0
 15 18  4  0  0  0  0
 16 17  4  0  0  0  0
 17 19  4  0  0  0  0
 18 19  4  0  0  0  0
 20 22  1  0  0  0  0
 21 40  1  0  0  0  0
 22 41  1  0  0  0  0
 22 42  1  0  0  0  0
 22 43  1  0  0  0  0
 23 24  1  0  0  0  0
 24 44  1  0  0  0  0
 24 45  1  0  0  0  0
 25 26  4  0  0  0  0
 25 46  1  0  0  0  0
 26 27  4  0  0  0  0
 26 47  1  0  0  0  0
 27 28  4  0  0  0  0
 28 29  4  0  0  0  0
 28 48  1  0  0  0  0
 29 49  1  0  0  0  0
M  END
> <ConfClashScore>
0 

> <ConfOneFourInteractionScore>
-0.983503 

> <ConfScore>
0.0356608 

> <ConfScorePBest>
0.00322004 

> <ConfTolerance>
0.490049 

> <HETNAM>
     OWQ A 303  OWQ                                                       

> <pdb_OW>
Q_303 -16.5129 3.80749 7.62812 0.15963 1.39178 -0.28144 -3.20151 0 0 0 -1.30514 0 0 0 0 0 0 0 0 -8.31393

$$$$
6yky_lig_1.pdb
 OpenBabel04162415593D

 49 53  0  0  0  0  0  0  0  0999 V2000
    0.7107   -0.8611    1.1480 C   0  0  0  1  0  0  0  0  0  0  0  0
    1.5575   -2.7190    2.2160 C   0  0  0  1  0  0  0  0  0  0  0  0
    1.2625   -1.1828   -0.0021 N   0  0  0  1  0  0  0  0  0  0  0  0
    2.9590   -2.4414   -2.4531 C   0  0  0  1  0  0  0  0  0  0  0  0
    3.8901   -1.4317   -2.6068 C   0  0  0  1  0  0  0  0  0  0  0  0
    2.5093   -2.3883   -4.8072 C   0  0  0  1  0  0  0  0  0  0  0  0
    2.2656   -2.9186   -3.5544 C   0  0  0  1  0  0  0  0  0  0  0  0
    3.4432   -1.3756   -4.9617 C   0  0  0  1  0  0  0  0  0  0  0  0
    4.1344   -0.8999   -3.8634 C   0  0  0  1  0  0  0  0  0  0  0  0
   -0.6394    0.8186    2.4293 C   0  0  0  1  0  0  0  0  0  0  0  0
   -1.6452   -0.1775    3.0482 C   0  0  0  1  0  0  0  0  0  0  0  0
   -2.8471    0.6128    3.5004 C   0  0  0  1  0  0  0  0  0  0  0  0
   -3.5479    3.0049    2.7977 C   0  0  0  1  0  0  0  0  0  0  0  0
    0.8499   -1.6040    2.2321 N   0  0  0  1  0  0  0  0  0  0  0  0
    2.1669   -3.1091    1.0181 C   0  0  0  1  0  0  0  0  0  0  0  0
    1.9918   -2.2862   -0.1134 C   0  0  0  1  0  0  0  0  0  0  0  0
    2.6807   -2.8892   -1.1293 N   0  0  0  1  0  0  0  0  0  0  0  0
    2.9385   -4.1548    0.6493 N   0  0  0  1  0  0  0  0  0  0  0  0
    3.2527   -4.0535   -0.5952 N   0  0  0  1  0  0  0  0  0  0  0  0
    3.7485   -0.9173   -6.1989 O   0  0  0  1  0  0  0  0  0  0  0  0
   -0.0220    0.2644    1.2248 N   0  0  0  1  0  0  0  0  0  0  0  0
    2.9893   -1.4472   -7.3032 C   0  0  0  1  0  0  0  0  0  0  0  0
   -2.6244    1.9486    2.7580 N   0  0  0  1  0  0  0  0  0  0  0  0
   -1.5137    2.0114    2.0960 C   0  0  0  1  0  0  0  0  0  0  0  0
   -3.4586    3.9137    3.8358 C   0  0  0  1  0  0  0  0  0  0  0  0
   -4.3602    4.9600    3.8826 C   0  0  0  1  0  0  0  0  0  0  0  0
   -5.3233    5.1412    2.9739 N   0  0  0  1  0  0  0  0  0  0  0  0
   -5.4011    4.2501    1.9754 C   0  0  0  1  0  0  0  0  0  0  0  0
   -4.5377    3.1758    1.8496 C   0  0  0  1  0  0  0  0  0  0  0  0
    1.6598   -3.2951    3.0757 H   0  0  0  1  0  0  0  0  0  0  0  0
    4.4074   -1.0709   -1.7799 H   0  0  0  1  0  0  0  0  0  0  0  0
    1.9920   -2.7491   -5.6342 H   0  0  0  1  0  0  0  0  0  0  0  0
    1.5620   -3.6756   -3.4379 H   0  0  0  1  0  0  0  0  0  0  0  0
    4.8380   -0.1428   -3.9798 H   0  0  0  1  0  0  0  0  0  0  0  0
    0.1229    1.0835    3.1319 H   0  0  0  1  0  0  0  0  0  0  0  0
   -1.1993   -0.6744    3.8844 H   0  0  0  1  0  0  0  0  0  0  0  0
   -1.9385   -0.9018    2.3172 H   0  0  0  1  0  0  0  0  0  0  0  0
   -3.7605    0.1442    3.1987 H   0  0  0  1  0  0  0  0  0  0  0  0
   -2.8496    0.7498    4.5616 H   0  0  0  1  0  0  0  0  0  0  0  0
   -0.1553    0.7623    0.3913 H   0  0  0  1  0  0  0  0  0  0  0  0
    1.9683   -1.1395   -7.2150 H   0  0  0  1  0  0  0  0  0  0  0  0
    3.0417   -2.5159   -7.2915 H   0  0  0  1  0  0  0  0  0  0  0  0
    3.3942   -1.0798   -8.2229 H   0  0  0  1  0  0  0  0  0  0  0  0
   -0.9975    2.9118    2.3559 H   0  0  0  1  0  0  0  0  0  0  0  0
   -1.7266    2.0117    1.0474 H   0  0  0  1  0  0  0  0  0  0  0  0
   -2.7267    3.8119    4.5676 H   0  0  0  1  0  0  0  0  0  0  0  0
   -4.2854    5.6411    4.6650 H   0  0  0  1  0  0  0  0  0  0  0  0
   -6.1465    4.3721    1.2604 H   0  0  0  1  0  0  0  0  0  0  0  0
   -4.6324    2.5100    1.0564 H   0  0  0  1  0  0  0  0  0  0  0  0
  1  3  4  0  0  0  0
  1 14  4  0  0  0  0
  1 21  1  0  0  0  0
  2 14  4  0  0  0  0
  2 15  4  0  0  0  0
  2 30  1  0  0  0  0
  3 16  4  0  0  0  0
  4  5  4  0  0  0  0
  4  7  4  0  0  0  0
  4 17  1  0  0  0  0
  5  9  4  0  0  0  0
  5 31  1  0  0  0  0
  6  7  4  0  0  0  0
  6  8  4  0  0  0  0
  6 32  1  0  0  0  0
  7 33  1  0  0  0  0
  8  9  4  0  0  0  0
  8 20  1  0  0  0  0
  9 34  1  0  0  0  0
 10 11  1  0  0  0  0
 10 21  1  0  0  0  0
 10 24  1  0  0  0  0
 10 35  1  0  0  0  0
 11 12  1  0  0  0  0
 11 36  1  0  0  0  0
 11 37  1  0  0  0  0
 12 23  1  0  0  0  0
 12 38  1  0  0  0  0
 12 39  1  0  0  0  0
 13 23  1  0  0  0  0
 13 25  4  0  0  0  0
 13 29  4  0  0  0  0
 15 16  4  0  0  0  0
 15 18  4  0  0  0  0
 16 17  4  0  0  0  0
 17 19  4  0  0  0  0
 18 19  4  0  0  0  0
 20 22  1  0  0  0  0
 21 40  1  0  0  0  0
 22 41  1  0  0  0  0
 22 42  1  0  0  0  0
 22 43  1  0  0  0  0
 23 24  1  0  0  0  0
 24 44  1  0  0  0  0
 24 45  1  0  0  0  0
 25 26  4  0  0  0  0
 25 46  1  0  0  0  0
 26 27  4  0  0  0  0
 26 47  1  0  0  0  0
 27 28  4  0  0  0  0
 28 29  4  0  0  0  0
 28 48  1  0  0  0  0
 29 49  1  0  0  0  0
M  END
> <ConfClashScore>
0 

> <ConfOneFourInteractionScore>
-0.987833 

> <ConfScore>
0.0359143 

> <ConfScorePBest>
0.00320672 

> <ConfTolerance>
0.474715 

> <HETNAM>
     OWQ A 303  OWQ                                                       

> <pdb_OW>
Q_303 -16.5129 3.80749 7.62812 0.15963 1.39178 -0.28144 -3.20151 0 0 0 -1.30514 0 0 0 0 0 0 0 0 -8.31393

$$$$
6yky_lig_1.pdb
 OpenBabel04162415593D

 49 53  0  0  0  0  0  0  0  0999 V2000
    1.4232   -2.4814   -1.7251 C   0  0  0  1  0  0  0  0  0  0  0  0
    3.4355   -2.7225   -2.8215 C   0  0  0  1  0  0  0  0  0  0  0  0
    1.7870   -1.3521   -1.1567 N   0  0  0  1  0  0  0  0  0  0  0  0
    3.2829    1.3384   -0.0951 C   0  0  0  1  0  0  0  0  0  0  0  0
    2.7524    1.0577    1.1499 C   0  0  0  1  0  0  0  0  0  0  0  0
    2.9164    3.6786    0.2739 C   0  0  0  1  0  0  0  0  0  0  0  0
    3.3626    2.6505   -0.5350 C   0  0  0  1  0  0  0  0  0  0  0  0
    2.3844    3.3973    1.5226 C   0  0  0  1  0  0  0  0  0  0  0  0
    2.3050    2.0889    1.9610 C   0  0  0  1  0  0  0  0  0  0  0  0
   -0.6892   -2.4454   -0.4467 C   0  0  0  1  0  0  0  0  0  0  0  0
   -1.7128   -3.4876   -0.0225 C   0  0  0  1  0  0  0  0  0  0  0  0
   -2.8619   -2.6655    0.5646 C   0  0  0  1  0  0  0  0  0  0  0  0
   -3.7056   -0.3066   -0.0215 C   0  0  0  1  0  0  0  0  0  0  0  0
    2.2203   -3.1541   -2.5367 N   0  0  0  1  0  0  0  0  0  0  0  0
    3.8744   -1.5257   -2.2440 C   0  0  0  1  0  0  0  0  0  0  0  0
    2.9908   -0.8413   -1.3844 C   0  0  0  1  0  0  0  0  0  0  0  0
    3.6599    0.2755   -0.9660 N   0  0  0  1  0  0  0  0  0  0  0  0
    5.0187   -0.8106   -2.3099 N   0  0  0  1  0  0  0  0  0  0  0  0
    4.9228    0.2430   -1.5761 N   0  0  0  1  0  0  0  0  0  0  0  0
    1.9541    4.4653    2.2747 O   0  0  0  1  0  0  0  0  0  0  0  0
    0.1958   -2.9703   -1.4720 N   0  0  0  1  0  0  0  0  0  0  0  0
    1.3583    4.0652    3.5252 C   0  0  0  1  0  0  0  0  0  0  0  0
   -2.7509   -1.3812   -0.1446 N   0  0  0  1  0  0  0  0  0  0  0  0
   -1.5521   -1.3222   -0.9936 C   0  0  0  1  0  0  0  0  0  0  0  0
   -3.4741    0.9147   -0.6268 C   0  0  0  1  0  0  0  0  0  0  0  0
   -4.4169    1.9153   -0.4866 C   0  0  0  1  0  0  0  0  0  0  0  0
   -5.5478    1.7671    0.2100 N   0  0  0  1  0  0  0  0  0  0  0  0
   -5.7573    0.5793    0.7952 C   0  0  0  1  0  0  0  0  0  0  0  0
   -4.8688   -0.4778    0.7033 C   0  0  0  1  0  0  0  0  0  0  0  0
    4.0535   -3.2609   -3.4617 H   0  0  0  1  0  0  0  0  0  0  0  0
    2.6890    0.0729    1.4782 H   0  0  0  1  0  0  0  0  0  0  0  0
    2.9799    4.6634   -0.0544 H   0  0  0  1  0  0  0  0  0  0  0  0
    3.7580    2.8613   -1.4735 H   0  0  0  1  0  0  0  0  0  0  0  0
    1.9096    1.8781    2.8995 H   0  0  0  1  0  0  0  0  0  0  0  0
   -0.1099   -2.1130    0.3892 H   0  0  0  1  0  0  0  0  0  0  0  0
   -2.0455   -4.0576   -0.8646 H   0  0  0  1  0  0  0  0  0  0  0  0
   -1.3017   -4.1456    0.7143 H   0  0  0  1  0  0  0  0  0  0  0  0
   -2.7396   -2.5333    1.6194 H   0  0  0  1  0  0  0  0  0  0  0  0
   -3.8055   -3.1311    0.3701 H   0  0  0  1  0  0  0  0  0  0  0  0
   -0.1200   -3.7251   -2.0113 H   0  0  0  1  0  0  0  0  0  0  0  0
    0.8627    3.1252    3.4001 H   0  0  0  1  0  0  0  0  0  0  0  0
    0.6486    4.8039    3.8344 H   0  0  0  1  0  0  0  0  0  0  0  0
    2.1214    3.9696    4.2692 H   0  0  0  1  0  0  0  0  0  0  0  0
   -1.7997   -1.4930   -2.0204 H   0  0  0  1  0  0  0  0  0  0  0  0
   -1.0593   -0.3774   -0.8974 H   0  0  0  1  0  0  0  0  0  0  0  0
   -2.6068    1.0773   -1.1772 H   0  0  0  1  0  0  0  0  0  0  0  0
   -4.2371    2.8305   -0.9468 H   0  0  0  1  0  0  0  0  0  0  0  0
   -6.6300    0.4458    1.3450 H   0  0  0  1  0  0  0  0  0  0  0  0
   -5.0732   -1.3839    1.1712 H   0  0  0  1  0  0  0  0  0  0  0  0
  1  3  4  0  0  0  0
  1 14  4  0  0  0  0
  1 21  1  0  0  0  0
  2 14  4  0  0  0  0
  2 15  4  0  0  0  0
  2 30  1  0  0  0  0
  3 16  4  0  0  0  0
  4  5  4  0  0  0  0
  4  7  4  0  0  0  0
  4 17  1  0  0  0  0
  5  9  4  0  0  0  0
  5 31  1  0  0  0  0
  6  7  4  0  0  0  0
  6  8  4  0  0  0  0
  6 32  1  0  0  0  0
  7 33  1  0  0  0  0
  8  9  4  0  0  0  0
  8 20  1  0  0  0  0
  9 34  1  0  0  0  0
 10 11  1  0  0  0  0
 10 21  1  0  0  0  0
 10 24  1  0  0  0  0
 10 35  1  0  0  0  0
 11 12  1  0  0  0  0
 11 36  1  0  0  0  0
 11 37  1  0  0  0  0
 12 23  1  0  0  0  0
 12 38  1  0  0  0  0
 12 39  1  0  0  0  0
 13 23  1  0  0  0  0
 13 25  4  0  0  0  0
 13 29  4  0  0  0  0
 15 16  4  0  0  0  0
 15 18  4  0  0  0  0
 16 17  4  0  0  0  0
 17 19  4  0  0  0  0
 18 19  4  0  0  0  0
 20 22  1  0  0  0  0
 21 40  1  0  0  0  0
 22 41  1  0  0  0  0
 22 42  1  0  0  0  0
 22 43  1  0  0  0  0
 23 24  1  0  0  0  0
 24 44  1  0  0  0  0
 24 45  1  0  0  0  0
 25 26  4  0  0  0  0
 25 46  1  0  0  0  0
 26 27  4  0  0  0  0
 26 47  1  0  0  0  0
 27 28  4  0  0  0  0
 28 29  4  0  0  0  0
 28 48  1  0  0  0  0
 29 49  1  0  0  0  0
M  END
> <ConfClashScore>
0 

> <ConfOneFourInteractionScore>
-0.984874 

> <ConfScore>
0.0361157 

> <ConfScorePBest>
0.00319339 

> <ConfTolerance>
0.487498 

> <HETNAM>
     OWQ A 303  OWQ                                                       

> <pdb_OW>
Q_303 -16.5129 3.80749 7.62812 0.15963 1.39178 -0.28144 -3.20151 0 0 0 -1.30514 0 0 0 0 0 0 0 0 -8.31393

$$$$
6yky_lig_1.pdb
 OpenBabel04162415593D

 49 53  0  0  0  0  0  0  0  0999 V2000
    1.0914   -1.4096   -2.6907 C   0  0  0  1  0  0  0  0  0  0  0  0
    3.1328   -2.2758   -3.3168 C   0  0  0  1  0  0  0  0  0  0  0  0
    1.5210   -1.0741   -1.4933 N   0  0  0  1  0  0  0  0  0  0  0  0
    3.1275   -0.6289    1.2798 C   0  0  0  1  0  0  0  0  0  0  0  0
    3.9943   -0.7421    2.3503 C   0  0  0  1  0  0  0  0  0  0  0  0
    1.4357    0.2408    2.7388 C   0  0  0  1  0  0  0  0  0  0  0  0
    1.8454   -0.1392    1.4746 C   0  0  0  1  0  0  0  0  0  0  0  0
    2.3049    0.1273    3.8126 C   0  0  0  1  0  0  0  0  0  0  0  0
    3.5832   -0.3610    3.6180 C   0  0  0  1  0  0  0  0  0  0  0  0
   -1.1766   -0.6457   -2.0830 C   0  0  0  1  0  0  0  0  0  0  0  0
   -2.1500   -1.7543   -1.6519 C   0  0  0  1  0  0  0  0  0  0  0  0
   -3.3741   -0.9388   -1.2079 C   0  0  0  1  0  0  0  0  0  0  0  0
   -3.6743    1.6165   -1.1732 C   0  0  0  1  0  0  0  0  0  0  0  0
    1.8702   -1.9949   -3.5836 N   0  0  0  1  0  0  0  0  0  0  0  0
    3.6426   -1.9404   -2.0574 C   0  0  0  1  0  0  0  0  0  0  0  0
    2.7760   -1.3173   -1.1360 C   0  0  0  1  0  0  0  0  0  0  0  0
    3.5163   -1.1033   -0.0063 N   0  0  0  1  0  0  0  0  0  0  0  0
    4.8471   -2.0756   -1.4608 N   0  0  0  1  0  0  0  0  0  0  0  0
    4.8035   -1.5972   -0.2663 N   0  0  0  1  0  0  0  0  0  0  0  0
    1.7914    0.5246    5.0010 O   0  0  0  1  0  0  0  0  0  0  0  0
   -0.1866   -1.1481   -3.0193 N   0  0  0  1  0  0  0  0  0  0  0  0
    2.6972    0.6075    6.1124 C   0  0  0  1  0  0  0  0  0  0  0  0
   -3.1040    0.4571   -1.6659 N   0  0  0  1  0  0  0  0  0  0  0  0
   -2.1078    0.3523   -2.7482 C   0  0  0  1  0  0  0  0  0  0  0  0
   -4.9199    2.0699   -1.5665 C   0  0  0  1  0  0  0  0  0  0  0  0
   -5.4067    3.2391   -1.0136 C   0  0  0  1  0  0  0  0  0  0  0  0
   -4.7328    3.9631   -0.1147 N   0  0  0  1  0  0  0  0  0  0  0  0
   -3.5247    3.5142    0.2543 C   0  0  0  1  0  0  0  0  0  0  0  0
   -2.9630    2.3523   -0.2456 C   0  0  0  1  0  0  0  0  0  0  0  0
    3.7357   -2.7366   -4.0279 H   0  0  0  1  0  0  0  0  0  0  0  0
    4.9548   -1.1133    2.2047 H   0  0  0  1  0  0  0  0  0  0  0  0
    0.4751    0.6120    2.8843 H   0  0  0  1  0  0  0  0  0  0  0  0
    1.1919   -0.0578    0.6697 H   0  0  0  1  0  0  0  0  0  0  0  0
    4.2368   -0.4424    4.4229 H   0  0  0  1  0  0  0  0  0  0  0  0
   -0.6823   -0.2128   -1.2386 H   0  0  0  1  0  0  0  0  0  0  0  0
   -2.3889   -2.4028   -2.4688 H   0  0  0  1  0  0  0  0  0  0  0  0
   -1.7512   -2.3305   -0.8433 H   0  0  0  1  0  0  0  0  0  0  0  0
   -3.4794   -0.9702   -0.1435 H   0  0  0  1  0  0  0  0  0  0  0  0
   -4.2635   -1.3181   -1.6661 H   0  0  0  1  0  0  0  0  0  0  0  0
   -0.4660   -1.3060   -3.9452 H   0  0  0  1  0  0  0  0  0  0  0  0
    3.2833   -0.2863    6.1630 H   0  0  0  1  0  0  0  0  0  0  0  0
    2.1398    0.7200    7.0188 H   0  0  0  1  0  0  0  0  0  0  0  0
    3.3434    1.4505    5.9835 H   0  0  0  1  0  0  0  0  0  0  0  0
   -2.5316   -0.0300   -3.6532 H   0  0  0  1  0  0  0  0  0  0  0  0
   -1.6253    1.2865   -2.9465 H   0  0  0  1  0  0  0  0  0  0  0  0
   -5.4799    1.5410   -2.2652 H   0  0  0  1  0  0  0  0  0  0  0  0
   -6.3453    3.5727   -1.3123 H   0  0  0  1  0  0  0  0  0  0  0  0
   -2.9832    4.0659    0.9500 H   0  0  0  1  0  0  0  0  0  0  0  0
   -2.0232    2.0392    0.0712 H   0  0  0  1  0  0  0  0  0  0  0  0
  1  3  4  0  0  0  0
  1 14  4  0  0  0  0
  1 21  1  0  0  0  0
  2 14  4  0  0  0  0
  2 15  4  0  0  0  0
  2 30  1  0  0  0  0
  3 16  4  0  0  0  0
  4  5  4  0  0  0  0
  4  7  4  0  0  0  0
  4 17  1  0  0  0  0
  5  9  4  0  0  0  0
  5 31  1  0  0  0  0
  6  7  4  0  0  0  0
  6  8  4  0  0  0  0
  6 32  1  0  0  0  0
  7 33  1  0  0  0  0
  8  9  4  0  0  0  0
  8 20  1  0  0  0  0
  9 34  1  0  0  0  0
 10 11  1  0  0  0  0
 10 21  1  0  0  0  0
 10 24  1  0  0  0  0
 10 35  1  0  0  0  0
 11 12  1  0  0  0  0
 11 36  1  0  0  0  0
 11 37  1  0  0  0  0
 12 23  1  0  0  0  0
 12 38  1  0  0  0  0
 12 39  1  0  0  0  0
 13 23  1  0  0  0  0
 13 25  4  0  0  0  0
 13 29  4  0  0  0  0
 15 16  4  0  0  0  0
 15 18  4  0  0  0  0
 16 17  4  0  0  0  0
 17 19  4  0  0  0  0
 18 19  4  0  0  0  0
 20 22  1  0  0  0  0
 21 40  1  0  0  0  0
 22 41  1  0  0  0  0
 22 42  1  0  0  0  0
 22 43  1  0  0  0  0
 23 24  1  0  0  0  0
 24 44  1  0  0  0  0
 24 45  1  0  0  0  0
 25 26  4  0  0  0  0
 25 46  1  0  0  0  0
 26 27  4  0  0  0  0
 26 47  1  0  0  0  0
 27 28  4  0  0  0  0
 28 29  4  0  0  0  0
 28 48  1  0  0  0  0
 29 49  1  0  0  0  0
M  END
> <ConfClashScore>
0 

> <ConfOneFourInteractionScore>
-0.986948 

> <ConfScore>
0.0387608 

> <ConfScorePBest>
0.00318006 

> <ConfTolerance>
0.499132 

> <HETNAM>
     OWQ A 303  OWQ                                                       

> <pdb_OW>
Q_303 -16.5129 3.80749 7.62812 0.15963 1.39178 -0.28144 -3.20151 0 0 0 -1.30514 0 0 0 0 0 0 0 0 -8.31393

$$$$
6yky_lig_1.pdb
 OpenBabel04162415593D

 49 53  0  0  0  0  0  0  0  0999 V2000
    1.0955   -1.1177   -2.7056 C   0  0  0  1  0  0  0  0  0  0  0  0
    3.0418   -1.9347   -3.6297 C   0  0  0  1  0  0  0  0  0  0  0  0
    1.5966   -1.0998   -1.4892 N   0  0  0  1  0  0  0  0  0  0  0  0
    3.3891   -1.4574    1.2302 C   0  0  0  1  0  0  0  0  0  0  0  0
    2.7961   -0.3057    1.7119 C   0  0  0  1  0  0  0  0  0  0  0  0
    3.6544   -2.2617    3.4729 C   0  0  0  1  0  0  0  0  0  0  0  0
    3.8214   -2.4357    2.1120 C   0  0  0  1  0  0  0  0  0  0  0  0
    3.0596   -1.1066    3.9563 C   0  0  0  1  0  0  0  0  0  0  0  0
    2.6287   -0.1313    3.0768 C   0  0  0  1  0  0  0  0  0  0  0  0
   -1.0144   -0.1464   -1.7916 C   0  0  0  1  0  0  0  0  0  0  0  0
   -2.0750   -1.1703   -1.3007 C   0  0  0  1  0  0  0  0  0  0  0  0
   -3.2881   -0.3693   -0.7830 C   0  0  0  1  0  0  0  0  0  0  0  0
   -3.8441    2.1242   -1.0791 C   0  0  0  1  0  0  0  0  0  0  0  0
    1.7930   -1.5228   -3.7524 N   0  0  0  1  0  0  0  0  0  0  0  0
    3.6253   -1.9365   -2.3577 C   0  0  0  1  0  0  0  0  0  0  0  0
    2.8443   -1.4961   -1.2695 C   0  0  0  1  0  0  0  0  0  0  0  0
    3.6435   -1.5991   -0.1647 N   0  0  0  1  0  0  0  0  0  0  0  0
    4.8402   -2.2810   -1.8777 N   0  0  0  1  0  0  0  0  0  0  0  0
    4.8799   -2.0952   -0.6043 N   0  0  0  1  0  0  0  0  0  0  0  0
    2.8136   -0.9738    5.2813 O   0  0  0  1  0  0  0  0  0  0  0  0
   -0.1689   -0.7024   -2.8408 N   0  0  0  1  0  0  0  0  0  0  0  0
    1.9961    0.1344    5.6891 C   0  0  0  1  0  0  0  0  0  0  0  0
   -3.0720    0.9783   -1.3817 N   0  0  0  1  0  0  0  0  0  0  0  0
   -1.9467    0.9558   -2.3305 C   0  0  0  1  0  0  0  0  0  0  0  0
   -3.1830    3.2760   -0.6946 C   0  0  0  1  0  0  0  0  0  0  0  0
   -3.9270    4.4027   -0.4004 C   0  0  0  1  0  0  0  0  0  0  0  0
   -5.2615    4.4396   -0.4648 N   0  0  0  1  0  0  0  0  0  0  0  0
   -5.8897    3.3145   -0.8348 C   0  0  0  1  0  0  0  0  0  0  0  0
   -5.2233    2.1434   -1.1505 C   0  0  0  1  0  0  0  0  0  0  0  0
    3.5804   -2.2512   -4.4612 H   0  0  0  1  0  0  0  0  0  0  0  0
    2.4754    0.4300    1.0504 H   0  0  0  1  0  0  0  0  0  0  0  0
    3.9751   -2.9974    4.1344 H   0  0  0  1  0  0  0  0  0  0  0  0
    4.2713   -3.3005    1.7496 H   0  0  0  1  0  0  0  0  0  0  0  0
    2.1788    0.7335    3.4392 H   0  0  0  1  0  0  0  0  0  0  0  0
   -0.4016    0.2077   -0.9892 H   0  0  0  1  0  0  0  0  0  0  0  0
   -2.3738   -1.8032   -2.1101 H   0  0  0  1  0  0  0  0  0  0  0  0
   -1.6682   -1.7676   -0.5116 H   0  0  0  1  0  0  0  0  0  0  0  0
   -3.2901   -0.3204    0.2858 H   0  0  0  1  0  0  0  0  0  0  0  0
   -4.2072   -0.7991   -1.1226 H   0  0  0  1  0  0  0  0  0  0  0  0
   -0.5659   -0.7795   -3.7334 H   0  0  0  1  0  0  0  0  0  0  0  0
    1.2730    0.3437    4.9287 H   0  0  0  1  0  0  0  0  0  0  0  0
    2.6130    0.9954    5.8410 H   0  0  0  1  0  0  0  0  0  0  0  0
    1.4934   -0.1102    6.6014 H   0  0  0  1  0  0  0  0  0  0  0  0
   -1.4458    1.9012   -2.3464 H   0  0  0  1  0  0  0  0  0  0  0  0
   -2.2871    0.7154   -3.3161 H   0  0  0  1  0  0  0  0  0  0  0  0
   -2.1453    3.2941   -0.6280 H   0  0  0  1  0  0  0  0  0  0  0  0
   -3.4229    5.2661   -0.1143 H   0  0  0  1  0  0  0  0  0  0  0  0
   -6.9283    3.3222   -0.8872 H   0  0  0  1  0  0  0  0  0  0  0  0
   -5.7510    1.2939   -1.4361 H   0  0  0  1  0  0  0  0  0  0  0  0
  1  3  4  0  0  0  0
  1 14  4  0  0  0  0
  1 21  1  0  0  0  0
  2 14  4  0  0  0  0
  2 15  4  0  0  0  0
  2 30  1  0  0  0  0
  3 16  4  0  0  0  0
  4  5  4  0  0  0  0
  4  7  4  0  0  0  0
  4 17  1  0  0  0  0
  5  9  4  0  0  0  0
  5 31  1  0  0  0  0
  6  7  4  0  0  0  0
  6  8  4  0  0  0  0
  6 32  1  0  0  0  0
  7 33  1  0  0  0  0
  8  9  4  0  0  0  0
  8 20  1  0  0  0  0
  9 34  1  0  0  0  0
 10 11  1  0  0  0  0
 10 21  1  0  0  0  0
 10 24  1  0  0  0  0
 10 35  1  0  0  0  0
 11 12  1  0  0  0  0
 11 36  1  0  0  0  0
 11 37  1  0  0  0  0
 12 23  1  0  0  0  0
 12 38  1  0  0  0  0
 12 39  1  0  0  0  0
 13 23  1  0  0  0  0
 13 25  4  0  0  0  0
 13 29  4  0  0  0  0
 15 16  4  0  0  0  0
 15 18  4  0  0  0  0
 16 17  4  0  0  0  0
 17 19  4  0  0  0  0
 18 19  4  0  0  0  0
 20 22  1  0  0  0  0
 21 40  1  0  0  0  0
 22 41  1  0  0  0  0
 22 42  1  0  0  0  0
 22 43  1  0  0  0  0
 23 24  1  0  0  0  0
 24 44  1  0  0  0  0
 24 45  1  0  0  0  0
 25 26  4  0  0  0  0
 25 46  1  0  0  0  0
 26 27  4  0  0  0  0
 26 47  1  0  0  0  0
 27 28  4  0  0  0  0
 28 29  4  0  0  0  0
 28 48  1  0  0  0  0
 29 49  1  0  0  0  0
M  END
> <ConfClashScore>
0 

> <ConfOneFourInteractionScore>
-0.986948 

> <ConfScore>
0.0399261 

> <ConfScorePBest>
0.00316673 

> <ConfTolerance>
0.483531 

> <HETNAM>
     OWQ A 303  OWQ                                                       

> <pdb_OW>
Q_303 -16.5129 3.80749 7.62812 0.15963 1.39178 -0.28144 -3.20151 0 0 0 -1.30514 0 0 0 0 0 0 0 0 -8.31393

$$$$
6yky_lig_1.pdb
 OpenBabel04162415593D

 49 53  0  0  0  0  0  0  0  0999 V2000
   -0.1321   -0.3369    0.5653 C   0  0  0  1  0  0  0  0  0  0  0  0
   -2.0841   -0.9740   -0.4803 C   0  0  0  1  0  0  0  0  0  0  0  0
    0.6216   -0.7658   -0.4241 N   0  0  0  1  0  0  0  0  0  0  0  0
    1.8604   -2.0280   -3.1987 C   0  0  0  1  0  0  0  0  0  0  0  0
    1.9661   -2.5475   -4.4751 C   0  0  0  1  0  0  0  0  0  0  0  0
    4.2485   -2.0503   -2.9894 C   0  0  0  1  0  0  0  0  0  0  0  0
    3.0031   -1.7815   -2.4537 C   0  0  0  1  0  0  0  0  0  0  0  0
    4.3547   -2.5714   -4.2695 C   0  0  0  1  0  0  0  0  0  0  0  0
    3.2152   -2.8170   -5.0122 C   0  0  0  1  0  0  0  0  0  0  0  0
   -0.1678    0.7572    2.7910 C   0  0  0  1  0  0  0  0  0  0  0  0
   -1.1713   -0.2638    3.3720 C   0  0  0  1  0  0  0  0  0  0  0  0
   -2.4124    0.4950    3.7692 C   0  0  0  1  0  0  0  0  0  0  0  0
   -3.1178    2.8316    3.0256 C   0  0  0  1  0  0  0  0  0  0  0  0
   -1.4498   -0.4349    0.5450 N   0  0  0  1  0  0  0  0  0  0  0  0
   -1.3311   -1.4471   -1.5609 C   0  0  0  1  0  0  0  0  0  0  0  0
    0.0718   -1.3222   -1.4966 C   0  0  0  1  0  0  0  0  0  0  0  0
    0.5524   -1.8546   -2.6609 N   0  0  0  1  0  0  0  0  0  0  0  0
   -1.6368   -2.0377   -2.7368 N   0  0  0  1  0  0  0  0  0  0  0  0
   -0.5604   -2.2865   -3.3981 N   0  0  0  1  0  0  0  0  0  0  0  0
    5.5096   -2.8769   -4.8924 O   0  0  0  1  0  0  0  0  0  0  0  0
    0.5101    0.2192    1.6244 N   0  0  0  1  0  0  0  0  0  0  0  0
    6.7091   -2.4996   -4.1773 C   0  0  0  1  0  0  0  0  0  0  0  0
   -2.1950    1.8334    3.0301 N   0  0  0  1  0  0  0  0  0  0  0  0
   -1.0595    1.9242    2.4151 C   0  0  0  1  0  0  0  0  0  0  0  0
   -3.9770    2.8597    1.9428 C   0  0  0  1  0  0  0  0  0  0  0  0
   -4.9399    3.8492    1.8839 C   0  0  0  1  0  0  0  0  0  0  0  0
   -5.0854    4.7897    2.8222 N   0  0  0  1  0  0  0  0  0  0  0  0
   -4.2428    4.7531    3.8643 C   0  0  0  1  0  0  0  0  0  0  0  0
   -3.2528    3.7963    4.0048 C   0  0  0  1  0  0  0  0  0  0  0  0
   -3.1216   -1.0454   -0.4845 H   0  0  0  1  0  0  0  0  0  0  0  0
    1.1086   -2.7361   -5.0325 H   0  0  0  1  0  0  0  0  0  0  0  0
    5.1060   -1.8617   -2.4320 H   0  0  0  1  0  0  0  0  0  0  0  0
    2.9232   -1.3944   -1.4917 H   0  0  0  1  0  0  0  0  0  0  0  0
    3.2950   -3.2042   -5.9742 H   0  0  0  1  0  0  0  0  0  0  0  0
    0.5566    1.0457    3.5237 H   0  0  0  1  0  0  0  0  0  0  0  0
   -0.7477   -0.7449    4.2288 H   0  0  0  1  0  0  0  0  0  0  0  0
   -1.4135   -0.9987    2.6330 H   0  0  0  1  0  0  0  0  0  0  0  0
   -2.4634    0.6360    4.8286 H   0  0  0  1  0  0  0  0  0  0  0  0
   -3.2991    0.0003    3.4316 H   0  0  0  1  0  0  0  0  0  0  0  0
    1.4890    0.2601    1.6004 H   0  0  0  1  0  0  0  0  0  0  0  0
    6.7491   -3.0237   -3.2453 H   0  0  0  1  0  0  0  0  0  0  0  0
    6.6977   -1.4456   -3.9932 H   0  0  0  1  0  0  0  0  0  0  0  0
    7.5678   -2.7505   -4.7643 H   0  0  0  1  0  0  0  0  0  0  0  0
   -1.2279    1.9145    1.3584 H   0  0  0  1  0  0  0  0  0  0  0  0
   -0.5795    2.8395    2.6920 H   0  0  0  1  0  0  0  0  0  0  0  0
   -3.9001    2.1496    1.1868 H   0  0  0  1  0  0  0  0  0  0  0  0
   -5.5843    3.8626    1.0677 H   0  0  0  1  0  0  0  0  0  0  0  0
   -4.3378    5.4790    4.6030 H   0  0  0  1  0  0  0  0  0  0  0  0
   -2.6225    3.8036    4.8320 H   0  0  0  1  0  0  0  0  0  0  0  0
  1  3  4  0  0  0  0
  1 14  4  0  0  0  0
  1 21  1  0  0  0  0
  2 14  4  0  0  0  0
  2 15  4  0  0  0  0
  2 30  1  0  0  0  0
  3 16  4  0  0  0  0
  4  5  4  0  0  0  0
  4  7  4  0  0  0  0
  4 17  1  0  0  0  0
  5  9  4  0  0  0  0
  5 31  1  0  0  0  0
  6  7  4  0  0  0  0
  6  8  4  0  0  0  0
  6 32  1  0  0  0  0
  7 33  1  0  0  0  0
  8  9  4  0  0  0  0
  8 20  1  0  0  0  0
  9 34  1  0  0  0  0
 10 11  1  0  0  0  0
 10 21  1  0  0  0  0
 10 24  1  0  0  0  0
 10 35  1  0  0  0  0
 11 12  1  0  0  0  0
 11 36  1  0  0  0  0
 11 37  1  0  0  0  0
 12 23  1  0  0  0  0
 12 38  1  0  0  0  0
 12 39  1  0  0  0  0
 13 23  1  0  0  0  0
 13 25  4  0  0  0  0
 13 29  4  0  0  0  0
 15 16  4  0  0  0  0
 15 18  4  0  0  0  0
 16 17  4  0  0  0  0
 17 19  4  0  0  0  0
 18 19  4  0  0  0  0
 20 22  1  0  0  0  0
 21 40  1  0  0  0  0
 22 41  1  0  0  0  0
 22 42  1  0  0  0  0
 22 43  1  0  0  0  0
 23 24  1  0  0  0  0
 24 44  1  0  0  0  0
 24 45  1  0  0  0  0
 25 26  4  0  0  0  0
 25 46  1  0  0  0  0
 26 27  4  0  0  0  0
 26 47  1  0  0  0  0
 27 28  4  0  0  0  0
 28 29  4  0  0  0  0
 28 48  1  0  0  0  0
 29 49  1  0  0  0  0
M  END
> <ConfClashScore>
0 

> <ConfOneFourInteractionScore>
-0.983503 

> <ConfScore>
0.0406072 

> <ConfScorePBest>
0.0031534 

> <ConfTolerance>
0.376205 

> <HETNAM>
     OWQ A 303  OWQ                                                       

> <pdb_OW>
Q_303 -16.5129 3.80749 7.62812 0.15963 1.39178 -0.28144 -3.20151 0 0 0 -1.30514 0 0 0 0 0 0 0 0 -8.31393

$$$$
6yky_lig_1.pdb
 OpenBabel04162415593D

 49 53  0  0  0  0  0  0  0  0999 V2000
    0.5117    0.2960    0.5264 C   0  0  0  1  0  0  0  0  0  0  0  0
    2.1551    1.6756    1.3662 C   0  0  0  1  0  0  0  0  0  0  0  0
    1.3227   -0.2545   -0.3511 N   0  0  0  1  0  0  0  0  0  0  0  0
    3.8379   -1.2834   -2.1428 C   0  0  0  1  0  0  0  0  0  0  0  0
    2.9936   -2.3775   -2.1264 C   0  0  0  1  0  0  0  0  0  0  0  0
    5.1339   -2.3067   -3.8808 C   0  0  0  1  0  0  0  0  0  0  0  0
    4.9112   -1.2490   -3.0194 C   0  0  0  1  0  0  0  0  0  0  0  0
    4.2872   -3.4041   -3.8645 C   0  0  0  1  0  0  0  0  0  0  0  0
    3.2171   -3.4382   -2.9904 C   0  0  0  1  0  0  0  0  0  0  0  0
   -1.7469    0.3944    1.5199 C   0  0  0  1  0  0  0  0  0  0  0  0
   -2.7383   -0.7028    1.9387 C   0  0  0  1  0  0  0  0  0  0  0  0
   -3.9460    0.1278    2.3996 C   0  0  0  1  0  0  0  0  0  0  0  0
   -4.2085    2.7047    2.4804 C   0  0  0  1  0  0  0  0  0  0  0  0
    0.9097    1.2361    1.3656 N   0  0  0  1  0  0  0  0  0  0  0  0
    3.0611    1.1243    0.4529 C   0  0  0  1  0  0  0  0  0  0  0  0
    2.5929    0.1240   -0.4236 C   0  0  0  1  0  0  0  0  0  0  0  0
    3.6637   -0.2335   -1.1953 N   0  0  0  1  0  0  0  0  0  0  0  0
    4.3689    1.3277    0.1820 N   0  0  0  1  0  0  0  0  0  0  0  0
    4.7471    0.5513   -0.7728 N   0  0  0  1  0  0  0  0  0  0  0  0
    4.6075   -4.3794   -4.7477 O   0  0  0  1  0  0  0  0  0  0  0  0
   -0.7694   -0.1119    0.5722 N   0  0  0  1  0  0  0  0  0  0  0  0
    3.6558   -5.4397   -4.9281 C   0  0  0  1  0  0  0  0  0  0  0  0
   -3.6526    1.5252    1.9609 N   0  0  0  1  0  0  0  0  0  0  0  0
   -2.6626    1.4185    0.8732 C   0  0  0  1  0  0  0  0  0  0  0  0
   -5.4606    3.1308    2.0775 C   0  0  0  1  0  0  0  0  0  0  0  0
   -5.9718    4.2957    2.6172 C   0  0  0  1  0  0  0  0  0  0  0  0
   -5.3158    5.0406    3.5122 N   0  0  0  1  0  0  0  0  0  0  0  0
   -4.1011    4.6181    3.8906 C   0  0  0  1  0  0  0  0  0  0  0  0
   -3.5154    3.4624    3.4041 C   0  0  0  1  0  0  0  0  0  0  0  0
    2.4564    2.4159    2.0315 H   0  0  0  1  0  0  0  0  0  0  0  0
    2.1908   -2.4049   -1.4659 H   0  0  0  1  0  0  0  0  0  0  0  0
    5.9368   -2.2792   -4.5413 H   0  0  0  1  0  0  0  0  0  0  0  0
    5.5488   -0.4274   -3.0289 H   0  0  0  1  0  0  0  0  0  0  0  0
    2.5795   -4.2597   -2.9809 H   0  0  0  1  0  0  0  0  0  0  0  0
   -1.2418    0.8061    2.3685 H   0  0  0  1  0  0  0  0  0  0  0  0
   -2.9919   -1.3349    1.1134 H   0  0  0  1  0  0  0  0  0  0  0  0
   -2.3469   -1.2979    2.7372 H   0  0  0  1  0  0  0  0  0  0  0  0
   -4.0478    0.0826    3.4638 H   0  0  0  1  0  0  0  0  0  0  0  0
   -4.8437   -0.2288    1.9394 H   0  0  0  1  0  0  0  0  0  0  0  0
   -1.0604   -0.7907   -0.0719 H   0  0  0  1  0  0  0  0  0  0  0  0
    2.7599   -5.0458   -5.3606 H   0  0  0  1  0  0  0  0  0  0  0  0
    3.4297   -5.8808   -3.9799 H   0  0  0  1  0  0  0  0  0  0  0  0
    4.0688   -6.1825   -5.5783 H   0  0  0  1  0  0  0  0  0  0  0  0
   -2.1643    2.3468    0.6866 H   0  0  0  1  0  0  0  0  0  0  0  0
   -3.0966    1.0571   -0.0356 H   0  0  0  1  0  0  0  0  0  0  0  0
   -6.0074    2.5849    1.3814 H   0  0  0  1  0  0  0  0  0  0  0  0
   -6.9152    4.6087    2.3113 H   0  0  0  1  0  0  0  0  0  0  0  0
   -3.5733    5.1863    4.5835 H   0  0  0  1  0  0  0  0  0  0  0  0
   -2.5713    3.1700    3.7279 H   0  0  0  1  0  0  0  0  0  0  0  0
  1  3  4  0  0  0  0
  1 14  4  0  0  0  0
  1 21  1  0  0  0  0
  2 14  4  0  0  0  0
  2 15  4  0  0  0  0
  2 30  1  0  0  0  0
  3 16  4  0  0  0  0
  4  5  4  0  0  0  0
  4  7  4  0  0  0  0
  4 17  1  0  0  0  0
  5  9  4  0  0  0  0
  5 31  1  0  0  0  0
  6  7  4  0  0  0  0
  6  8  4  0  0  0  0
  6 32  1  0  0  0  0
  7 33  1  0  0  0  0
  8  9  4  0  0  0  0
  8 20  1  0  0  0  0
  9 34  1  0  0  0  0
 10 11  1  0  0  0  0
 10 21  1  0  0  0  0
 10 24  1  0  0  0  0
 10 35  1  0  0  0  0
 11 12  1  0  0  0  0
 11 36  1  0  0  0  0
 11 37  1  0  0  0  0
 12 23  1  0  0  0  0
 12 38  1  0  0  0  0
 12 39  1  0  0  0  0
 13 23  1  0  0  0  0
 13 25  4  0  0  0  0
 13 29  4  0  0  0  0
 15 16  4  0  0  0  0
 15 18  4  0  0  0  0
 16 17  4  0  0  0  0
 17 19  4  0  0  0  0
 18 19  4  0  0  0  0
 20 22  1  0  0  0  0
 21 40  1  0  0  0  0
 22 41  1  0  0  0  0
 22 42  1  0  0  0  0
 22 43  1  0  0  0  0
 23 24  1  0  0  0  0
 24 44  1  0  0  0  0
 24 45  1  0  0  0  0
 25 26  4  0  0  0  0
 25 46  1  0  0  0  0
 26 27  4  0  0  0  0
 26 47  1  0  0  0  0
 27 28  4  0  0  0  0
 28 29  4  0  0  0  0
 28 48  1  0  0  0  0
 29 49  1  0  0  0  0
M  END
> <ConfClashScore>
0 

> <ConfOneFourInteractionScore>
-0.986948 

> <ConfScore>
0.0407735 

> <ConfScorePBest>
0.00314007 

> <ConfTolerance>
0.3668 

> <HETNAM>
     OWQ A 303  OWQ                                                       

> <pdb_OW>
Q_303 -16.5129 3.80749 7.62812 0.15963 1.39178 -0.28144 -3.20151 0 0 0 -1.30514 0 0 0 0 0 0 0 0 -8.31393

$$$$
6yky_lig_1.pdb
 OpenBabel04162415593D

 49 53  0  0  0  0  0  0  0  0999 V2000
    0.1229   -2.7829   -1.1435 C   0  0  0  1  0  0  0  0  0  0  0  0
    0.1248   -3.0493   -3.4323 C   0  0  0  1  0  0  0  0  0  0  0  0
    0.7419   -1.6237   -1.2065 N   0  0  0  1  0  0  0  0  0  0  0  0
    2.2574    1.1324   -2.0492 C   0  0  0  1  0  0  0  0  0  0  0  0
    1.4249    2.1445   -1.6103 C   0  0  0  1  0  0  0  0  0  0  0  0
    4.1594    2.3354   -1.2230 C   0  0  0  1  0  0  0  0  0  0  0  0
    3.6269    1.2291   -1.8577 C   0  0  0  1  0  0  0  0  0  0  0  0
    3.3245    3.3507   -0.7828 C   0  0  0  1  0  0  0  0  0  0  0  0
    1.9591    3.2540   -0.9738 C   0  0  0  1  0  0  0  0  0  0  0  0
    0.0885   -2.5662    1.3115 C   0  0  0  1  0  0  0  0  0  0  0  0
   -0.5800   -3.2327    2.5100 C   0  0  0  1  0  0  0  0  0  0  0  0
   -2.0119   -2.7221    2.4421 C   0  0  0  1  0  0  0  0  0  0  0  0
   -2.9017   -0.4549    1.7739 C   0  0  0  1  0  0  0  0  0  0  0  0
   -0.1808   -3.4826   -2.2228 N   0  0  0  1  0  0  0  0  0  0  0  0
    0.7841   -1.8212   -3.5579 C   0  0  0  1  0  0  0  0  0  0  0  0
    1.0884   -1.1087   -2.3798 C   0  0  0  1  0  0  0  0  0  0  0  0
    1.7208    0.0349   -2.7826 N   0  0  0  1  0  0  0  0  0  0  0  0
    1.2351   -1.0954   -4.6042 N   0  0  0  1  0  0  0  0  0  0  0  0
    1.7849   -0.0100   -4.1834 N   0  0  0  1  0  0  0  0  0  0  0  0
    3.8467    4.4371   -0.1656 O   0  0  0  1  0  0  0  0  0  0  0  0
   -0.2183   -3.2820    0.0794 N   0  0  0  1  0  0  0  0  0  0  0  0
    2.9220    5.3676    0.4187 C   0  0  0  1  0  0  0  0  0  0  0  0
   -1.8770   -1.3895    1.8339 N   0  0  0  1  0  0  0  0  0  0  0  0
   -0.5214   -1.1655    1.2953 C   0  0  0  1  0  0  0  0  0  0  0  0
   -3.8023   -0.3900    0.7268 C   0  0  0  1  0  0  0  0  0  0  0  0
   -4.7913    0.5746    0.7595 C   0  0  0  1  0  0  0  0  0  0  0  0
   -4.9242    1.4573    1.7542 N   0  0  0  1  0  0  0  0  0  0  0  0
   -4.0415    1.3858    2.7607 C   0  0  0  1  0  0  0  0  0  0  0  0
   -3.0232    0.4500    2.8103 C   0  0  0  1  0  0  0  0  0  0  0  0
   -0.1195   -3.6090   -4.2741 H   0  0  0  1  0  0  0  0  0  0  0  0
    0.3978    2.0738   -1.7576 H   0  0  0  1  0  0  0  0  0  0  0  0
    5.1865    2.4062   -1.0758 H   0  0  0  1  0  0  0  0  0  0  0  0
    4.2537    0.4693   -2.1916 H   0  0  0  1  0  0  0  0  0  0  0  0
    1.3323    4.0138   -0.6399 H   0  0  0  1  0  0  0  0  0  0  0  0
    1.1494   -2.5196    1.4427 H   0  0  0  1  0  0  0  0  0  0  0  0
   -0.1106   -2.9359    3.4245 H   0  0  0  1  0  0  0  0  0  0  0  0
   -0.5490   -4.2986    2.4220 H   0  0  0  1  0  0  0  0  0  0  0  0
   -2.6162   -3.3606    1.8321 H   0  0  0  1  0  0  0  0  0  0  0  0
   -2.4394   -2.6536    3.4205 H   0  0  0  1  0  0  0  0  0  0  0  0
   -0.6818   -4.1440    0.1308 H   0  0  0  1  0  0  0  0  0  0  0  0
    3.4602    6.1975    0.8268 H   0  0  0  1  0  0  0  0  0  0  0  0
    2.3717    4.8820    1.1973 H   0  0  0  1  0  0  0  0  0  0  0  0
    2.2450    5.7167   -0.3328 H   0  0  0  1  0  0  0  0  0  0  0  0
    0.0346   -0.4965    1.9185 H   0  0  0  1  0  0  0  0  0  0  0  0
   -0.5625   -0.7753    0.2998 H   0  0  0  1  0  0  0  0  0  0  0  0
   -3.7367   -1.0547   -0.0704 H   0  0  0  1  0  0  0  0  0  0  0  0
   -5.4667    0.6158   -0.0302 H   0  0  0  1  0  0  0  0  0  0  0  0
   -4.1262    2.0667    3.5423 H   0  0  0  1  0  0  0  0  0  0  0  0
   -2.3619    0.4284    3.6128 H   0  0  0  1  0  0  0  0  0  0  0  0
  1  3  4  0  0  0  0
  1 14  4  0  0  0  0
  1 21  1  0  0  0  0
  2 14  4  0  0  0  0
  2 15  4  0  0  0  0
  2 30  1  0  0  0  0
  3 16  4  0  0  0  0
  4  5  4  0  0  0  0
  4  7  4  0  0  0  0
  4 17  1  0  0  0  0
  5  9  4  0  0  0  0
  5 31  1  0  0  0  0
  6  7  4  0  0  0  0
  6  8  4  0  0  0  0
  6 32  1  0  0  0  0
  7 33  1  0  0  0  0
  8  9  4  0  0  0  0
  8 20  1  0  0  0  0
  9 34  1  0  0  0  0
 10 11  1  0  0  0  0
 10 21  1  0  0  0  0
 10 24  1  0  0  0  0
 10 35  1  0  0  0  0
 11 12  1  0  0  0  0
 11 36  1  0  0  0  0
 11 37  1  0  0  0  0
 12 23  1  0  0  0  0
 12 38  1  0  0  0  0
 12 39  1  0  0  0  0
 13 23  1  0  0  0  0
 13 25  4  0  0  0  0
 13 29  4  0  0  0  0
 15 16  4  0  0  0  0
 15 18  4  0  0  0  0
 16 17  4  0  0  0  0
 17 19  4  0  0  0  0
 18 19  4  0  0  0  0
 20 22  1  0  0  0  0
 21 40  1  0  0  0  0
 22 41  1  0  0  0  0
 22 42  1  0  0  0  0
 22 43  1  0  0  0  0
 23 24  1  0  0  0  0
 24 44  1  0  0  0  0
 24 45  1  0  0  0  0
 25 26  4  0  0  0  0
 25 46  1  0  0  0  0
 26 27  4  0  0  0  0
 26 47  1  0  0  0  0
 27 28  4  0  0  0  0
 28 29  4  0  0  0  0
 28 48  1  0  0  0  0
 29 49  1  0  0  0  0
M  END
> <ConfClashScore>
0 

> <ConfOneFourInteractionScore>
-0.987833 

> <ConfScore>
0.0413162 

> <ConfScorePBest>
0.00312675 

> <ConfTolerance>
0.785832 

> <HETNAM>
     OWQ A 303  OWQ                                                       

> <pdb_OW>
Q_303 -16.5129 3.80749 7.62812 0.15963 1.39178 -0.28144 -3.20151 0 0 0 -1.30514 0 0 0 0 0 0 0 0 -8.31393

$$$$
6yky_lig_1.pdb
 OpenBabel04162415593D

 49 53  0  0  0  0  0  0  0  0999 V2000
    3.2967   -1.3959   -0.8017 C   0  0  0  1  0  0  0  0  0  0  0  0
    3.6383   -2.5654   -2.7574 C   0  0  0  1  0  0  0  0  0  0  0  0
    2.0190   -1.2083   -1.0535 N   0  0  0  1  0  0  0  0  0  0  0  0
   -0.9783   -1.0827   -2.2140 C   0  0  0  1  0  0  0  0  0  0  0  0
   -0.8843   -0.2813   -1.0919 C   0  0  0  1  0  0  0  0  0  0  0  0
   -3.3640   -0.8493   -2.1837 C   0  0  0  1  0  0  0  0  0  0  0  0
   -2.2201   -1.3694   -2.7592 C   0  0  0  1  0  0  0  0  0  0  0  0
   -3.2700   -0.0455   -1.0582 C   0  0  0  1  0  0  0  0  0  0  0  0
   -2.0317    0.2402   -0.5148 C   0  0  0  1  0  0  0  0  0  0  0  0
    3.0151   -0.3454    1.4153 C   0  0  0  1  0  0  0  0  0  0  0  0
    1.9825   -1.3544    1.8944 C   0  0  0  1  0  0  0  0  0  0  0  0
    0.9272   -0.4792    2.5467 C   0  0  0  1  0  0  0  0  0  0  0  0
   -0.0563    1.6777    1.7083 C   0  0  0  1  0  0  0  0  0  0  0  0
    4.0911   -2.0555   -1.6265 N   0  0  0  1  0  0  0  0  0  0  0  0
    2.2861   -2.3955   -3.0756 C   0  0  0  1  0  0  0  0  0  0  0  0
    1.4754   -1.6851   -2.1666 C   0  0  0  1  0  0  0  0  0  0  0  0
    0.2220   -1.6662   -2.7131 N   0  0  0  1  0  0  0  0  0  0  0  0
    1.5071   -2.7700   -4.1138 N   0  0  0  1  0  0  0  0  0  0  0  0
    0.3007   -2.3595   -3.9303 N   0  0  0  1  0  0  0  0  0  0  0  0
   -4.4560    0.4008   -0.5807 O   0  0  0  1  0  0  0  0  0  0  0  0
    3.8144   -0.8989    0.3361 N   0  0  0  1  0  0  0  0  0  0  0  0
   -4.4286    1.1613    0.6373 C   0  0  0  1  0  0  0  0  0  0  0  0
    0.9518    0.7392    1.7245 N   0  0  0  1  0  0  0  0  0  0  0  0
    2.1803    0.8377    0.9210 C   0  0  0  1  0  0  0  0  0  0  0  0
    0.0569    2.8205    0.9383 C   0  0  0  1  0  0  0  0  0  0  0  0
   -0.9798    3.7341    0.9483 C   0  0  0  1  0  0  0  0  0  0  0  0
   -2.0935    3.5739    1.6695 N   0  0  0  1  0  0  0  0  0  0  0  0
   -2.1881    2.4636    2.4148 C   0  0  0  1  0  0  0  0  0  0  0  0
   -1.2001    1.4956    2.4609 C   0  0  0  1  0  0  0  0  0  0  0  0
    4.2735   -3.0825   -3.3984 H   0  0  0  1  0  0  0  0  0  0  0  0
    0.0471   -0.0696   -0.6806 H   0  0  0  1  0  0  0  0  0  0  0  0
   -4.2955   -1.0610   -2.5950 H   0  0  0  1  0  0  0  0  0  0  0  0
   -2.2910   -1.9757   -3.6012 H   0  0  0  1  0  0  0  0  0  0  0  0
   -1.9607    0.8465    0.3272 H   0  0  0  1  0  0  0  0  0  0  0  0
    3.6565   -0.0482    2.2186 H   0  0  0  1  0  0  0  0  0  0  0  0
    1.5722   -1.9040    1.0731 H   0  0  0  1  0  0  0  0  0  0  0  0
    2.4089   -2.0345    2.6018 H   0  0  0  1  0  0  0  0  0  0  0  0
    1.1825   -0.2622    3.5629 H   0  0  0  1  0  0  0  0  0  0  0  0
   -0.0347   -0.9468    2.5122 H   0  0  0  1  0  0  0  0  0  0  0  0
    4.7884   -0.9110    0.4432 H   0  0  0  1  0  0  0  0  0  0  0  0
   -3.9654    0.5829    1.4092 H   0  0  0  1  0  0  0  0  0  0  0  0
   -5.4290    1.4062    0.9271 H   0  0  0  1  0  0  0  0  0  0  0  0
   -3.8709    2.0614    0.4830 H   0  0  0  1  0  0  0  0  0  0  0  0
    2.6836    1.7645    1.1013 H   0  0  0  1  0  0  0  0  0  0  0  0
    1.9646    0.7456   -0.1230 H   0  0  0  1  0  0  0  0  0  0  0  0
    0.9063    2.9892    0.3624 H   0  0  0  1  0  0  0  0  0  0  0  0
   -0.8887    4.5901    0.3647 H   0  0  0  1  0  0  0  0  0  0  0  0
   -3.0457    2.3228    2.9860 H   0  0  0  1  0  0  0  0  0  0  0  0
   -1.3166    0.6472    3.0511 H   0  0  0  1  0  0  0  0  0  0  0  0
  1  3  4  0  0  0  0
  1 14  4  0  0  0  0
  1 21  1  0  0  0  0
  2 14  4  0  0  0  0
  2 15  4  0  0  0  0
  2 30  1  0  0  0  0
  3 16  4  0  0  0  0
  4  5  4  0  0  0  0
  4  7  4  0  0  0  0
  4 17  1  0  0  0  0
  5  9  4  0  0  0  0
  5 31  1  0  0  0  0
  6  7  4  0  0  0  0
  6  8  4  0  0  0  0
  6 32  1  0  0  0  0
  7 33  1  0  0  0  0
  8  9  4  0  0  0  0
  8 20  1  0  0  0  0
  9 34  1  0  0  0  0
 10 11  1  0  0  0  0
 10 21  1  0  0  0  0
 10 24  1  0  0  0  0
 10 35  1  0  0  0  0
 11 12  1  0  0  0  0
 11 36  1  0  0  0  0
 11 37  1  0  0  0  0
 12 23  1  0  0  0  0
 12 38  1  0  0  0  0
 12 39  1  0  0  0  0
 13 23  1  0  0  0  0
 13 25  4  0  0  0  0
 13 29  4  0  0  0  0
 15 16  4  0  0  0  0
 15 18  4  0  0  0  0
 16 17  4  0  0  0  0
 17 19  4  0  0  0  0
 18 19  4  0  0  0  0
 20 22  1  0  0  0  0
 21 40  1  0  0  0  0
 22 41  1  0  0  0  0
 22 42  1  0  0  0  0
 22 43  1  0  0  0  0
 23 24  1  0  0  0  0
 24 44  1  0  0  0  0
 24 45  1  0  0  0  0
 25 26  4  0  0  0  0
 25 46  1  0  0  0  0
 26 27  4  0  0  0  0
 26 47  1  0  0  0  0
 27 28  4  0  0  0  0
 28 29  4  0  0  0  0
 28 48  1  0  0  0  0
 29 49  1  0  0  0  0
M  END
> <ConfClashScore>
0 

> <ConfOneFourInteractionScore>
-0.983503 

> <ConfScore>
0.0455081 

> <ConfScorePBest>
0.00311342 

> <ConfTolerance>
0.545198 

> <HETNAM>
     OWQ A 303  OWQ                                                       

> <pdb_OW>
Q_303 -16.5129 3.80749 7.62812 0.15963 1.39178 -0.28144 -3.20151 0 0 0 -1.30514 0 0 0 0 0 0 0 0 -8.31393

$$$$
6yky_lig_1.pdb
 OpenBabel04162415593D

 49 53  0  0  0  0  0  0  0  0999 V2000
    0.6248   -0.6925    1.2324 C   0  0  0  1  0  0  0  0  0  0  0  0
    1.7342   -2.2198    2.5537 C   0  0  0  1  0  0  0  0  0  0  0  0
    1.2100   -1.1128    0.1316 N   0  0  0  1  0  0  0  0  0  0  0  0
    3.1104   -2.5230   -2.1347 C   0  0  0  1  0  0  0  0  0  0  0  0
    2.6375   -3.4027   -3.0900 C   0  0  0  1  0  0  0  0  0  0  0  0
    4.2421   -1.2754   -3.8405 C   0  0  0  1  0  0  0  0  0  0  0  0
    3.9160   -1.4593   -2.5100 C   0  0  0  1  0  0  0  0  0  0  0  0
    3.7679   -2.1577   -4.7988 C   0  0  0  1  0  0  0  0  0  0  0  0
    2.9646   -3.2182   -4.4243 C   0  0  0  1  0  0  0  0  0  0  0  0
   -1.1243    0.8322    2.1030 C   0  0  0  1  0  0  0  0  0  0  0  0
   -2.1726   -0.1906    2.4715 C   0  0  0  1  0  0  0  0  0  0  0  0
   -3.2950    0.6275    3.0778 C   0  0  0  1  0  0  0  0  0  0  0  0
   -4.1520    2.9081    2.4169 C   0  0  0  1  0  0  0  0  0  0  0  0
    0.8749   -1.2266    2.4151 N   0  0  0  1  0  0  0  0  0  0  0  0
    2.3859   -2.7065    1.4149 C   0  0  0  1  0  0  0  0  0  0  0  0
    2.0885   -2.1069    0.1739 C   0  0  0  1  0  0  0  0  0  0  0  0
    2.8503   -2.7615   -0.7542 N   0  0  0  1  0  0  0  0  0  0  0  0
    3.2965   -3.6793    1.1927 N   0  0  0  1  0  0  0  0  0  0  0  0
    3.5857   -3.7344   -0.0607 N   0  0  0  1  0  0  0  0  0  0  0  0
    4.0900   -1.9814   -6.0950 O   0  0  0  1  0  0  0  0  0  0  0  0
   -0.2472    0.3231    1.0559 N   0  0  0  1  0  0  0  0  0  0  0  0
    4.9155   -0.8255   -6.3689 C   0  0  0  1  0  0  0  0  0  0  0  0
   -3.1879    1.9149    2.3670 N   0  0  0  1  0  0  0  0  0  0  0  0
   -1.9397    2.0215    1.5995 C   0  0  0  1  0  0  0  0  0  0  0  0
   -5.2693    2.8473    1.6048 C   0  0  0  1  0  0  0  0  0  0  0  0
   -6.2085    3.8575    1.6897 C   0  0  0  1  0  0  0  0  0  0  0  0
   -6.0936    4.8999    2.5182 N   0  0  0  1  0  0  0  0  0  0  0  0
   -5.0032    4.9484    3.2967 C   0  0  0  1  0  0  0  0  0  0  0  0
   -4.0160    3.9787    3.2790 C   0  0  0  1  0  0  0  0  0  0  0  0
    1.9226   -2.6318    3.4899 H   0  0  0  1  0  0  0  0  0  0  0  0
    2.0364   -4.2031   -2.8077 H   0  0  0  1  0  0  0  0  0  0  0  0
    4.8432   -0.4750   -4.1227 H   0  0  0  1  0  0  0  0  0  0  0  0
    4.2751   -0.7996   -1.7906 H   0  0  0  1  0  0  0  0  0  0  0  0
    2.6055   -3.8779   -5.1437 H   0  0  0  1  0  0  0  0  0  0  0  0
   -0.5402    1.1044    2.9571 H   0  0  0  1  0  0  0  0  0  0  0  0
   -2.5123   -0.7152    1.6030 H   0  0  0  1  0  0  0  0  0  0  0  0
   -1.7862   -0.8901    3.1830 H   0  0  0  1  0  0  0  0  0  0  0  0
   -4.2449    0.1681    2.9003 H   0  0  0  1  0  0  0  0  0  0  0  0
   -3.1517    0.7564    4.1303 H   0  0  0  1  0  0  0  0  0  0  0  0
   -0.2932    0.7429    0.1716 H   0  0  0  1  0  0  0  0  0  0  0  0
    4.4724    0.0426   -5.9273 H   0  0  0  1  0  0  0  0  0  0  0  0
    4.9942   -0.6864   -7.4269 H   0  0  0  1  0  0  0  0  0  0  0  0
    5.8905   -0.9777   -5.9551 H   0  0  0  1  0  0  0  0  0  0  0  0
   -2.1264    1.9425    0.5489 H   0  0  0  1  0  0  0  0  0  0  0  0
   -1.4397    2.9449    1.8050 H   0  0  0  1  0  0  0  0  0  0  0  0
   -5.4005    2.0563    0.9425 H   0  0  0  1  0  0  0  0  0  0  0  0
   -7.0475    3.8038    1.0776 H   0  0  0  1  0  0  0  0  0  0  0  0
   -4.8940    5.7539    3.9454 H   0  0  0  1  0  0  0  0  0  0  0  0
   -3.1874    4.0546    3.9030 H   0  0  0  1  0  0  0  0  0  0  0  0
  1  3  4  0  0  0  0
  1 14  4  0  0  0  0
  1 21  1  0  0  0  0
  2 14  4  0  0  0  0
  2 15  4  0  0  0  0
  2 30  1  0  0  0  0
  3 16  4  0  0  0  0
  4  5  4  0  0  0  0
  4  7  4  0  0  0  0
  4 17  1  0  0  0  0
  5  9  4  0  0  0  0
  5 31  1  0  0  0  0
  6  7  4  0  0  0  0
  6  8  4  0  0  0  0
  6 32  1  0  0  0  0
  7 33  1  0  0  0  0
  8  9  4  0  0  0  0
  8 20  1  0  0  0  0
  9 34  1  0  0  0  0
 10 11  1  0  0  0  0
 10 21  1  0  0  0  0
 10 24  1  0  0  0  0
 10 35  1  0  0  0  0
 11 12  1  0  0  0  0
 11 36  1  0  0  0  0
 11 37  1  0  0  0  0
 12 23  1  0  0  0  0
 12 38  1  0  0  0  0
 12 39  1  0  0  0  0
 13 23  1  0  0  0  0
 13 25  4  0  0  0  0
 13 29  4  0  0  0  0
 15 16  4  0  0  0  0
 15 18  4  0  0  0  0
 16 17  4  0  0  0  0
 17 19  4  0  0  0  0
 18 19  4  0  0  0  0
 20 22  1  0  0  0  0
 21 40  1  0  0  0  0
 22 41  1  0  0  0  0
 22 42  1  0  0  0  0
 22 43  1  0  0  0  0
 23 24  1  0  0  0  0
 24 44  1  0  0  0  0
 24 45  1  0  0  0  0
 25 26  4  0  0  0  0
 25 46  1  0  0  0  0
 26 27  4  0  0  0  0
 26 47  1  0  0  0  0
 27 28  4  0  0  0  0
 28 29  4  0  0  0  0
 28 48  1  0  0  0  0
 29 49  1  0  0  0  0
M  END
> <ConfClashScore>
0 

> <ConfOneFourInteractionScore>
-0.984874 

> <ConfScore>
0.0462802 

> <ConfScorePBest>
0.00310009 

> <ConfTolerance>
0.536748 

> <HETNAM>
     OWQ A 303  OWQ                                                       

> <pdb_OW>
Q_303 -16.5129 3.80749 7.62812 0.15963 1.39178 -0.28144 -3.20151 0 0 0 -1.30514 0 0 0 0 0 0 0 0 -8.31393

$$$$
6yky_lig_1.pdb
 OpenBabel04162415593D

 49 53  0  0  0  0  0  0  0  0999 V2000
    1.0922   -1.1512   -2.6849 C   0  0  0  1  0  0  0  0  0  0  0  0
    2.9526   -2.2770   -3.4471 C   0  0  0  1  0  0  0  0  0  0  0  0
    1.4235   -1.3135   -1.4221 N   0  0  0  1  0  0  0  0  0  0  0  0
    2.9024   -1.8799    1.4210 C   0  0  0  1  0  0  0  0  0  0  0  0
    1.8481   -2.4678    2.0939 C   0  0  0  1  0  0  0  0  0  0  0  0
    3.2878   -0.4277    3.2891 C   0  0  0  1  0  0  0  0  0  0  0  0
    3.6217   -0.8565    2.0183 C   0  0  0  1  0  0  0  0  0  0  0  0
    2.2303   -1.0173    3.9642 C   0  0  0  1  0  0  0  0  0  0  0  0
    1.5133   -2.0377    3.3684 C   0  0  0  1  0  0  0  0  0  0  0  0
   -1.0256    0.0179   -2.0223 C   0  0  0  1  0  0  0  0  0  0  0  0
   -2.0052   -1.0867   -1.5951 C   0  0  0  1  0  0  0  0  0  0  0  0
   -3.2184   -0.2654   -1.1325 C   0  0  0  1  0  0  0  0  0  0  0  0
   -3.4864    2.2722   -1.0768 C   0  0  0  1  0  0  0  0  0  0  0  0
    1.8316   -1.6175   -3.6761 N   0  0  0  1  0  0  0  0  0  0  0  0
    3.3531   -2.4785   -2.1213 C   0  0  0  1  0  0  0  0  0  0  0  0
    2.5336   -1.9638   -1.0958 C   0  0  0  1  0  0  0  0  0  0  0  0
    3.1468   -2.2963    0.0804 N   0  0  0  1  0  0  0  0  0  0  0  0
    4.4070   -3.0889   -1.5368 N   0  0  0  1  0  0  0  0  0  0  0  0
    4.3137   -2.9988   -0.2558 N   0  0  0  1  0  0  0  0  0  0  0  0
    1.9016   -0.5958    5.2008 O   0  0  0  1  0  0  0  0  0  0  0  0
   -0.0399   -0.4869   -2.9794 N   0  0  0  1  0  0  0  0  0  0  0  0
    2.6036    0.5861    5.6514 C   0  0  0  1  0  0  0  0  0  0  0  0
   -2.9397    1.1329   -1.5777 N   0  0  0  1  0  0  0  0  0  0  0  0
   -1.9532    1.0311   -2.6692 C   0  0  0  1  0  0  0  0  0  0  0  0
   -2.7966    3.0316   -0.1499 C   0  0  0  1  0  0  0  0  0  0  0  0
   -3.3411    4.2328    0.2627 C   0  0  0  1  0  0  0  0  0  0  0  0
   -4.5088    4.7031   -0.1863 N   0  0  0  1  0  0  0  0  0  0  0  0
   -5.1690    3.9545   -1.0813 C   0  0  0  1  0  0  0  0  0  0  0  0
   -4.6954    2.7421   -1.5515 C   0  0  0  1  0  0  0  0  0  0  0  0
    3.5260   -2.6391   -4.2356 H   0  0  0  1  0  0  0  0  0  0  0  0
    1.3059   -3.2329    1.6441 H   0  0  0  1  0  0  0  0  0  0  0  0
    3.8300    0.3374    3.7389 H   0  0  0  1  0  0  0  0  0  0  0  0
    4.4125   -0.4113    1.5103 H   0  0  0  1  0  0  0  0  0  0  0  0
    0.7225   -2.4828    3.8764 H   0  0  0  1  0  0  0  0  0  0  0  0
   -0.5207    0.4375   -1.1774 H   0  0  0  1  0  0  0  0  0  0  0  0
   -2.2564   -1.7242   -2.4169 H   0  0  0  1  0  0  0  0  0  0  0  0
   -1.6050   -1.6750   -0.7960 H   0  0  0  1  0  0  0  0  0  0  0  0
   -4.1148   -0.6320   -1.5875 H   0  0  0  1  0  0  0  0  0  0  0  0
   -3.3154   -0.3073   -0.0677 H   0  0  0  1  0  0  0  0  0  0  0  0
   -0.2227   -0.3250   -3.9285 H   0  0  0  1  0  0  0  0  0  0  0  0
    2.2105    1.4471    5.1523 H   0  0  0  1  0  0  0  0  0  0  0  0
    3.6454    0.4890    5.4275 H   0  0  0  1  0  0  0  0  0  0  0  0
    2.4741    0.6965    6.7078 H   0  0  0  1  0  0  0  0  0  0  0  0
   -2.3877    0.6623   -3.5748 H   0  0  0  1  0  0  0  0  0  0  0  0
   -1.4642    1.9632   -2.8614 H   0  0  0  1  0  0  0  0  0  0  0  0
   -1.8851    2.7049    0.2296 H   0  0  0  1  0  0  0  0  0  0  0  0
   -2.8155    4.7998    0.9583 H   0  0  0  1  0  0  0  0  0  0  0  0
   -6.0814    4.3018   -1.4398 H   0  0  0  1  0  0  0  0  0  0  0  0
   -5.2395    2.1951   -2.2489 H   0  0  0  1  0  0  0  0  0  0  0  0
  1  3  4  0  0  0  0
  1 14  4  0  0  0  0
  1 21  1  0  0  0  0
  2 14  4  0  0  0  0
  2 15  4  0  0  0  0
  2 30  1  0  0  0  0
  3 16  4  0  0  0  0
  4  5  4  0  0  0  0
  4  7  4  0  0  0  0
  4 17  1  0  0  0  0
  5  9  4  0  0  0  0
  5 31  1  0  0  0  0
  6  7  4  0  0  0  0
  6  8  4  0  0  0  0
  6 32  1  0  0  0  0
  7 33  1  0  0  0  0
  8  9  4  0  0  0  0
  8 20  1  0  0  0  0
  9 34  1  0  0  0  0
 10 11  1  0  0  0  0
 10 21  1  0  0  0  0
 10 24  1  0  0  0  0
 10 35  1  0  0  0  0
 11 12  1  0  0  0  0
 11 36  1  0  0  0  0
 11 37  1  0  0  0  0
 12 23  1  0  0  0  0
 12 38  1  0  0  0  0
 12 39  1  0  0  0  0
 13 23  1  0  0  0  0
 13 25  4  0  0  0  0
 13 29  4  0  0  0  0
 15 16  4  0  0  0  0
 15 18  4  0  0  0  0
 16 17  4  0  0  0  0
 17 19  4  0  0  0  0
 18 19  4  0  0  0  0
 20 22  1  0  0  0  0
 21 40  1  0  0  0  0
 22 41  1  0  0  0  0
 22 42  1  0  0  0  0
 22 43  1  0  0  0  0
 23 24  1  0  0  0  0
 24 44  1  0  0  0  0
 24 45  1  0  0  0  0
 25 26  4  0  0  0  0
 25 46  1  0  0  0  0
 26 27  4  0  0  0  0
 26 47  1  0  0  0  0
 27 28  4  0  0  0  0
 28 29  4  0  0  0  0
 28 48  1  0  0  0  0
 29 49  1  0  0  0  0
M  END
> <ConfClashScore>
0 

> <ConfOneFourInteractionScore>
-0.986948 

> <ConfScore>
0.0485651 

> <ConfScorePBest>
0.00308676 

> <ConfTolerance>
0.422906 

> <HETNAM>
     OWQ A 303  OWQ                                                       

> <pdb_OW>
Q_303 -16.5129 3.80749 7.62812 0.15963 1.39178 -0.28144 -3.20151 0 0 0 -1.30514 0 0 0 0 0 0 0 0 -8.31393

$$$$
6yky_lig_1.pdb
 OpenBabel04162415593D

 49 53  0  0  0  0  0  0  0  0999 V2000
    0.8636   -0.7063    1.1556 C   0  0  0  1  0  0  0  0  0  0  0  0
    1.4797   -2.6013    2.3127 C   0  0  0  1  0  0  0  0  0  0  0  0
    1.3142   -1.1725    0.0109 N   0  0  0  1  0  0  0  0  0  0  0  0
    2.6029   -2.8831   -2.4419 C   0  0  0  1  0  0  0  0  0  0  0  0
    3.7864   -3.2376   -3.0613 C   0  0  0  1  0  0  0  0  0  0  0  0
    1.8330   -1.8834   -4.4804 C   0  0  0  1  0  0  0  0  0  0  0  0
    1.6257   -2.2026   -3.1517 C   0  0  0  1  0  0  0  0  0  0  0  0
    3.0201   -2.2389   -5.1017 C   0  0  0  1  0  0  0  0  0  0  0  0
    3.9942   -2.9174   -4.3939 C   0  0  0  1  0  0  0  0  0  0  0  0
   -0.3118    1.0672    2.3907 C   0  0  0  1  0  0  0  0  0  0  0  0
   -1.3268    0.0692    2.9910 C   0  0  0  1  0  0  0  0  0  0  0  0
   -2.5212    0.8623    3.4584 C   0  0  0  1  0  0  0  0  0  0  0  0
   -3.1844    3.2563    2.8002 C   0  0  0  1  0  0  0  0  0  0  0  0
    0.9407   -1.3961    2.2802 N   0  0  0  1  0  0  0  0  0  0  0  0
    1.9755   -3.1463    1.1228 C   0  0  0  1  0  0  0  0  0  0  0  0
    1.8723   -2.3751   -0.0531 C   0  0  0  1  0  0  0  0  0  0  0  0
    2.4238   -3.1311   -1.0503 N   0  0  0  1  0  0  0  0  0  0  0  0
    2.5727   -4.3134    0.7968 N   0  0  0  1  0  0  0  0  0  0  0  0
    2.8451   -4.3327   -0.4614 N   0  0  0  1  0  0  0  0  0  0  0  0
    3.3370   -1.9768   -6.3920 O   0  0  0  1  0  0  0  0  0  0  0  0
    0.2959    0.5338    1.1843 N   0  0  0  1  0  0  0  0  0  0  0  0
    2.3741   -1.2481   -7.1692 C   0  0  0  1  0  0  0  0  0  0  0  0
   -2.2859    2.2096    2.7412 N   0  0  0  1  0  0  0  0  0  0  0  0
   -1.1748    2.2743    2.0802 C   0  0  0  1  0  0  0  0  0  0  0  0
   -4.3716    3.1277    3.4971 C   0  0  0  1  0  0  0  0  0  0  0  0
   -5.2406    4.2016    3.5337 C   0  0  0  1  0  0  0  0  0  0  0  0
   -4.9958    5.3660    2.9250 N   0  0  0  1  0  0  0  0  0  0  0  0
   -3.8431    5.4753    2.2493 C   0  0  0  1  0  0  0  0  0  0  0  0
   -2.9149    4.4523    2.1640 C   0  0  0  1  0  0  0  0  0  0  0  0
    1.5347   -3.1343    3.2040 H   0  0  0  1  0  0  0  0  0  0  0  0
    4.5211   -3.7446   -2.5276 H   0  0  0  1  0  0  0  0  0  0  0  0
    1.0983   -1.3764   -5.0140 H   0  0  0  1  0  0  0  0  0  0  0  0
    0.7368   -1.9323   -2.6844 H   0  0  0  1  0  0  0  0  0  0  0  0
    4.8831   -3.1877   -4.8611 H   0  0  0  1  0  0  0  0  0  0  0  0
    0.4531    1.3116    3.0979 H   0  0  0  1  0  0  0  0  0  0  0  0
   -1.6271   -0.6383    2.2466 H   0  0  0  1  0  0  0  0  0  0  0  0
   -0.8856   -0.4475    3.8176 H   0  0  0  1  0  0  0  0  0  0  0  0
   -3.4390    0.4081    3.1482 H   0  0  0  1  0  0  0  0  0  0  0  0
   -2.5222    0.9793    4.5220 H   0  0  0  1  0  0  0  0  0  0  0  0
    0.2982    1.0788    0.3698 H   0  0  0  1  0  0  0  0  0  0  0  0
    2.5688   -1.3976   -8.2107 H   0  0  0  1  0  0  0  0  0  0  0  0
    2.4460   -0.2055   -6.9393 H   0  0  0  1  0  0  0  0  0  0  0  0
    1.3900   -1.5981   -6.9368 H   0  0  0  1  0  0  0  0  0  0  0  0
   -0.6500    3.1648    2.3569 H   0  0  0  1  0  0  0  0  0  0  0  0
   -1.3878    2.2964    1.0318 H   0  0  0  1  0  0  0  0  0  0  0  0
   -4.6062    2.2395    3.9846 H   0  0  0  1  0  0  0  0  0  0  0  0
   -6.1305    4.0984    4.0619 H   0  0  0  1  0  0  0  0  0  0  0  0
   -3.6364    6.3724    1.7656 H   0  0  0  1  0  0  0  0  0  0  0  0
   -2.0312    4.5816    1.6311 H   0  0  0  1  0  0  0  0  0  0  0  0
  1  3  4  0  0  0  0
  1 14  4  0  0  0  0
  1 21  1  0  0  0  0
  2 14  4  0  0  0  0
  2 15  4  0  0  0  0
  2 30  1  0  0  0  0
  3 16  4  0  0  0  0
  4  5  4  0  0  0  0
  4  7  4  0  0  0  0
  4 17  1  0  0  0  0
  5  9  4  0  0  0  0
  5 31  1  0  0  0  0
  6  7  4  0  0  0  0
  6  8  4  0  0  0  0
  6 32  1  0  0  0  0
  7 33  1  0  0  0  0
  8  9  4  0  0  0  0
  8 20  1  0  0  0  0
  9 34  1  0  0  0  0
 10 11  1  0  0  0  0
 10 21  1  0  0  0  0
 10 24  1  0  0  0  0
 10 35  1  0  0  0  0
 11 12  1  0  0  0  0
 11 36  1  0  0  0  0
 11 37  1  0  0  0  0
 12 23  1  0  0  0  0
 12 38  1  0  0  0  0
 12 39  1  0  0  0  0
 13 23  1  0  0  0  0
 13 25  4  0  0  0  0
 13 29  4  0  0  0  0
 15 16  4  0  0  0  0
 15 18  4  0  0  0  0
 16 17  4  0  0  0  0
 17 19  4  0  0  0  0
 18 19  4  0  0  0  0
 20 22  1  0  0  0  0
 21 40  1  0  0  0  0
 22 41  1  0  0  0  0
 22 42  1  0  0  0  0
 22 43  1  0  0  0  0
 23 24  1  0  0  0  0
 24 44  1  0  0  0  0
 24 45  1  0  0  0  0
 25 26  4  0  0  0  0
 25 46  1  0  0  0  0
 26 27  4  0  0  0  0
 26 47  1  0  0  0  0
 27 28  4  0  0  0  0
 28 29  4  0  0  0  0
 28 48  1  0  0  0  0
 29 49  1  0  0  0  0
M  END
> <ConfClashScore>
0 

> <ConfOneFourInteractionScore>
-0.987833 

> <ConfScore>
0.0496842 

> <ConfScorePBest>
0.00307343 

> <ConfTolerance>
0.470355 

> <HETNAM>
     OWQ A 303  OWQ                                                       

> <pdb_OW>
Q_303 -16.5129 3.80749 7.62812 0.15963 1.39178 -0.28144 -3.20151 0 0 0 -1.30514 0 0 0 0 0 0 0 0 -8.31393

$$$$
6yky_lig_1.pdb
 OpenBabel04162415593D

 49 53  0  0  0  0  0  0  0  0999 V2000
    0.7860   -2.4223   -1.8602 C   0  0  0  1  0  0  0  0  0  0  0  0
    2.3595   -2.7001   -3.5205 C   0  0  0  1  0  0  0  0  0  0  0  0
    1.4010   -1.3751   -1.3542 N   0  0  0  1  0  0  0  0  0  0  0  0
    3.3796    1.1033   -0.6152 C   0  0  0  1  0  0  0  0  0  0  0  0
    4.4534    1.9638   -0.4862 C   0  0  0  1  0  0  0  0  0  0  0  0
    2.3672    2.0714    1.3303 C   0  0  0  1  0  0  0  0  0  0  0  0
    2.3362    1.1552    0.2959 C   0  0  0  1  0  0  0  0  0  0  0  0
    3.4441    2.9345    1.4599 C   0  0  0  1  0  0  0  0  0  0  0  0
    4.4844    2.8825    0.5513 C   0  0  0  1  0  0  0  0  0  0  0  0
   -0.9670   -2.3095   -0.0673 C   0  0  0  1  0  0  0  0  0  0  0  0
   -1.9821   -3.3077    0.5325 C   0  0  0  1  0  0  0  0  0  0  0  0
   -3.1769   -2.5149    0.9992 C   0  0  0  1  0  0  0  0  0  0  0  0
   -3.8264   -0.1373    0.3396 C   0  0  0  1  0  0  0  0  0  0  0  0
    1.2467   -3.0724   -2.9146 N   0  0  0  1  0  0  0  0  0  0  0  0
    3.0548   -1.5917   -3.0239 C   0  0  0  1  0  0  0  0  0  0  0  0
    2.5269   -0.9284   -1.8972 C   0  0  0  1  0  0  0  0  0  0  0  0
    3.3876    0.0991   -1.6260 N   0  0  0  1  0  0  0  0  0  0  0  0
    4.1898   -0.9524   -3.3818 N   0  0  0  1  0  0  0  0  0  0  0  0
    4.4086    0.0358   -2.5861 N   0  0  0  1  0  0  0  0  0  0  0  0
    3.5872    3.8670    2.4314 O   0  0  0  1  0  0  0  0  0  0  0  0
   -0.3529   -2.8478   -1.2846 N   0  0  0  1  0  0  0  0  0  0  0  0
    2.5827    3.9054    3.4571 C   0  0  0  1  0  0  0  0  0  0  0  0
   -2.9416   -1.1676    0.2821 N   0  0  0  1  0  0  0  0  0  0  0  0
   -1.8301   -1.1026   -0.3783 C   0  0  0  1  0  0  0  0  0  0  0  0
   -4.0838    0.4991    1.5398 C   0  0  0  1  0  0  0  0  0  0  0  0
   -4.9138    1.6039    1.5417 C   0  0  0  1  0  0  0  0  0  0  0  0
   -5.4885    2.0932    0.4387 N   0  0  0  1  0  0  0  0  0  0  0  0
   -5.2338    1.4638   -0.7172 C   0  0  0  1  0  0  0  0  0  0  0  0
   -4.4124    0.3539   -0.8106 C   0  0  0  1  0  0  0  0  0  0  0  0
    2.7119   -3.2199   -4.3495 H   0  0  0  1  0  0  0  0  0  0  0  0
    5.2381    1.9220   -1.1675 H   0  0  0  1  0  0  0  0  0  0  0  0
    1.5825    2.1131    2.0116 H   0  0  0  1  0  0  0  0  0  0  0  0
    1.5301    0.5050    0.2011 H   0  0  0  1  0  0  0  0  0  0  0  0
    5.2904    3.5328    0.6461 H   0  0  0  1  0  0  0  0  0  0  0  0
   -0.2025   -2.0649    0.6403 H   0  0  0  1  0  0  0  0  0  0  0  0
   -2.2818   -4.0154   -0.2121 H   0  0  0  1  0  0  0  0  0  0  0  0
   -1.5412   -3.8243    1.3593 H   0  0  0  1  0  0  0  0  0  0  0  0
   -4.0945   -2.9693    0.6885 H   0  0  0  1  0  0  0  0  0  0  0  0
   -3.1785   -2.3979    2.0628 H   0  0  0  1  0  0  0  0  0  0  0  0
   -0.8180   -3.5910   -1.7223 H   0  0  0  1  0  0  0  0  0  0  0  0
    2.5907    2.9831    3.9996 H   0  0  0  1  0  0  0  0  0  0  0  0
    1.6213    4.0472    3.0093 H   0  0  0  1  0  0  0  0  0  0  0  0
    2.7877    4.7145    4.1266 H   0  0  0  1  0  0  0  0  0  0  0  0
   -1.3057   -0.2120   -0.1014 H   0  0  0  1  0  0  0  0  0  0  0  0
   -2.0425   -1.0806   -1.4268 H   0  0  0  1  0  0  0  0  0  0  0  0
   -3.6606    0.1528    2.4245 H   0  0  0  1  0  0  0  0  0  0  0  0
   -5.1009    2.0789    2.4478 H   0  0  0  1  0  0  0  0  0  0  0  0
   -5.6749    1.8273   -1.5861 H   0  0  0  1  0  0  0  0  0  0  0  0
   -4.2396   -0.1017   -1.7295 H   0  0  0  1  0  0  0  0  0  0  0  0
  1  3  4  0  0  0  0
  1 14  4  0  0  0  0
  1 21  1  0  0  0  0
  2 14  4  0  0  0  0
  2 15  4  0  0  0  0
  2 30  1  0  0  0  0
  3 16  4  0  0  0  0
  4  5  4  0  0  0  0
  4  7  4  0  0  0  0
  4 17  1  0  0  0  0
  5  9  4  0  0  0  0
  5 31  1  0  0  0  0
  6  7  4  0  0  0  0
  6  8  4  0  0  0  0
  6 32  1  0  0  0  0
  7 33  1  0  0  0  0
  8  9  4  0  0  0  0
  8 20  1  0  0  0  0
  9 34  1  0  0  0  0
 10 11  1  0  0  0  0
 10 21  1  0  0  0  0
 10 24  1  0  0  0  0
 10 35  1  0  0  0  0
 11 12  1  0  0  0  0
 11 36  1  0  0  0  0
 11 37  1  0  0  0  0
 12 23  1  0  0  0  0
 12 38  1  0  0  0  0
 12 39  1  0  0  0  0
 13 23  1  0  0  0  0
 13 25  4  0  0  0  0
 13 29  4  0  0  0  0
 15 16  4  0  0  0  0
 15 18  4  0  0  0  0
 16 17  4  0  0  0  0
 17 19  4  0  0  0  0
 18 19  4  0  0  0  0
 20 22  1  0  0  0  0
 21 40  1  0  0  0  0
 22 41  1  0  0  0  0
 22 42  1  0  0  0  0
 22 43  1  0  0  0  0
 23 24  1  0  0  0  0
 24 44  1  0  0  0  0
 24 45  1  0  0  0  0
 25 26  4  0  0  0  0
 25 46  1  0  0  0  0
 26 27  4  0  0  0  0
 26 47  1  0  0  0  0
 27 28  4  0  0  0  0
 28 29  4  0  0  0  0
 28 48  1  0  0  0  0
 29 49  1  0  0  0  0
M  END
> <ConfClashScore>
0 

> <ConfOneFourInteractionScore>
-0.984874 

> <ConfScore>
0.0497366 

> <ConfScorePBest>
0.00306011 

> <ConfTolerance>
0.594366 

> <HETNAM>
     OWQ A 303  OWQ                                                       

> <pdb_OW>
Q_303 -16.5129 3.80749 7.62812 0.15963 1.39178 -0.28144 -3.20151 0 0 0 -1.30514 0 0 0 0 0 0 0 0 -8.31393

$$$$
6yky_lig_1.pdb
 OpenBabel04162415593D

 49 53  0  0  0  0  0  0  0  0999 V2000
    0.6797    0.0839    0.9168 C   0  0  0  1  0  0  0  0  0  0  0  0
    2.5598    0.7123    2.0914 C   0  0  0  1  0  0  0  0  0  0  0  0
    1.3786   -0.5373   -0.0087 N   0  0  0  1  0  0  0  0  0  0  0  0
    3.6761   -1.7819   -1.9704 C   0  0  0  1  0  0  0  0  0  0  0  0
    2.4717   -2.0527   -2.5918 C   0  0  0  1  0  0  0  0  0  0  0  0
    4.8377   -2.9681   -3.6997 C   0  0  0  1  0  0  0  0  0  0  0  0
    4.8607   -2.2425   -2.5236 C   0  0  0  1  0  0  0  0  0  0  0  0
    3.6298   -3.2398   -4.3232 C   0  0  0  1  0  0  0  0  0  0  0  0
    2.4488   -2.7804   -3.7714 C   0  0  0  1  0  0  0  0  0  0  0  0
   -1.5461    0.6459    1.8384 C   0  0  0  1  0  0  0  0  0  0  0  0
   -2.5952   -0.3971    2.3135 C   0  0  0  1  0  0  0  0  0  0  0  0
   -3.8391    0.3810    2.7915 C   0  0  0  1  0  0  0  0  0  0  0  0
   -4.4285    2.8358    2.4491 C   0  0  0  1  0  0  0  0  0  0  0  0
    1.2478    0.6944    1.9420 N   0  0  0  1  0  0  0  0  0  0  0  0
    3.3523    0.0666    1.1355 C   0  0  0  1  0  0  0  0  0  0  0  0
    2.7038   -0.5718    0.0585 C   0  0  0  1  0  0  0  0  0  0  0  0
    3.6953   -1.1125   -0.7127 N   0  0  0  1  0  0  0  0  0  0  0  0
    4.6822   -0.1097    0.9762 N   0  0  0  1  0  0  0  0  0  0  0  0
    4.9116   -0.7924   -0.0910 N   0  0  0  1  0  0  0  0  0  0  0  0
    3.4825   -3.9424   -5.4715 O   0  0  0  1  0  0  0  0  0  0  0  0
   -0.6617    0.0989    0.8172 N   0  0  0  1  0  0  0  0  0  0  0  0
    4.6785   -4.2874   -6.1877 C   0  0  0  1  0  0  0  0  0  0  0  0
   -3.6387    1.7269    2.1838 N   0  0  0  1  0  0  0  0  0  0  0  0
   -2.4893    1.7206    1.2641 C   0  0  0  1  0  0  0  0  0  0  0  0
   -4.2041    3.6826    3.5188 C   0  0  0  1  0  0  0  0  0  0  0  0
   -5.0447    4.7648    3.6975 C   0  0  0  1  0  0  0  0  0  0  0  0
   -6.0727    5.0383    2.8884 N   0  0  0  1  0  0  0  0  0  0  0  0
   -6.2812    4.2066    1.8579 C   0  0  0  1  0  0  0  0  0  0  0  0
   -5.4869    3.1024    1.6026 C   0  0  0  1  0  0  0  0  0  0  0  0
    2.9951    1.1962    2.9025 H   0  0  0  1  0  0  0  0  0  0  0  0
    1.5827   -1.7105   -2.1746 H   0  0  0  1  0  0  0  0  0  0  0  0
    5.7268   -3.3103   -4.1170 H   0  0  0  1  0  0  0  0  0  0  0  0
    5.7666   -2.0421   -2.0538 H   0  0  0  1  0  0  0  0  0  0  0  0
    1.5429   -2.9808   -4.2412 H   0  0  0  1  0  0  0  0  0  0  0  0
   -0.9622    1.0223    2.6521 H   0  0  0  1  0  0  0  0  0  0  0  0
   -2.1951   -0.9767    3.1190 H   0  0  0  1  0  0  0  0  0  0  0  0
   -2.8587   -1.0450    1.5037 H   0  0  0  1  0  0  0  0  0  0  0  0
   -3.8695    0.4408    3.8594 H   0  0  0  1  0  0  0  0  0  0  0  0
   -4.7392   -0.0735    2.4335 H   0  0  0  1  0  0  0  0  0  0  0  0
   -1.0684   -0.2804    0.0103 H   0  0  0  1  0  0  0  0  0  0  0  0
    4.5927   -3.9627   -7.2036 H   0  0  0  1  0  0  0  0  0  0  0  0
    4.8152   -5.3483   -6.1629 H   0  0  0  1  0  0  0  0  0  0  0  0
    5.5187   -3.8082   -5.7302 H   0  0  0  1  0  0  0  0  0  0  0  0
   -2.7988    1.4623    0.2729 H   0  0  0  1  0  0  0  0  0  0  0  0
   -2.0098    2.6771    1.2506 H   0  0  0  1  0  0  0  0  0  0  0  0
   -3.4176    3.5084    4.1765 H   0  0  0  1  0  0  0  0  0  0  0  0
   -4.8684    5.3988    4.5028 H   0  0  0  1  0  0  0  0  0  0  0  0
   -7.0787    4.4007    1.2191 H   0  0  0  1  0  0  0  0  0  0  0  0
   -5.6832    2.4851    0.7890 H   0  0  0  1  0  0  0  0  0  0  0  0
  1  3  4  0  0  0  0
  1 14  4  0  0  0  0
  1 21  1  0  0  0  0
  2 14  4  0  0  0  0
  2 15  4  0  0  0  0
  2 30  1  0  0  0  0
  3 16  4  0  0  0  0
  4  5  4  0  0  0  0
  4  7  4  0  0  0  0
  4 17  1  0  0  0  0
  5  9  4  0  0  0  0
  5 31  1  0  0  0  0
  6  7  4  0  0  0  0
  6  8  4  0  0  0  0
  6 32  1  0  0  0  0
  7 33  1  0  0  0  0
  8  9  4  0  0  0  0
  8 20  1  0  0  0  0
  9 34  1  0  0  0  0
 10 11  1  0  0  0  0
 10 21  1  0  0  0  0
 10 24  1  0  0  0  0
 10 35  1  0  0  0  0
 11 12  1  0  0  0  0
 11 36  1  0  0  0  0
 11 37  1  0  0  0  0
 12 23  1  0  0  0  0
 12 38  1  0  0  0  0
 12 39  1  0  0  0  0
 13 23  1  0  0  0  0
 13 25  4  0  0  0  0
 13 29  4  0  0  0  0
 15 16  4  0  0  0  0
 15 18  4  0  0  0  0
 16 17  4  0  0  0  0
 17 19  4  0  0  0  0
 18 19  4  0  0  0  0
 20 22  1  0  0  0  0
 21 40  1  0  0  0  0
 22 41  1  0  0  0  0
 22 42  1  0  0  0  0
 22 43  1  0  0  0  0
 23 24  1  0  0  0  0
 24 44  1  0  0  0  0
 24 45  1  0  0  0  0
 25 26  4  0  0  0  0
 25 46  1  0  0  0  0
 26 27  4  0  0  0  0
 26 47  1  0  0  0  0
 27 28  4  0  0  0  0
 28 29  4  0  0  0  0
 28 48  1  0  0  0  0
 29 49  1  0  0  0  0
M  END
> <ConfClashScore>
0 

> <ConfOneFourInteractionScore>
-0.986948 

> <ConfScore>
0.0507949 

> <ConfScorePBest>
0.00304678 

> <ConfTolerance>
0.441465 

> <HETNAM>
     OWQ A 303  OWQ                                                       

> <pdb_OW>
Q_303 -16.5129 3.80749 7.62812 0.15963 1.39178 -0.28144 -3.20151 0 0 0 -1.30514 0 0 0 0 0 0 0 0 -8.31393

$$$$
6yky_lig_1.pdb
 OpenBabel04162415593D

 49 53  0  0  0  0  0  0  0  0999 V2000
    0.7908   -2.3557   -1.9316 C   0  0  0  1  0  0  0  0  0  0  0  0
    2.5577   -2.6571   -3.3796 C   0  0  0  1  0  0  0  0  0  0  0  0
    1.3599   -1.3287   -1.3381 N   0  0  0  1  0  0  0  0  0  0  0  0
    3.2843    1.0932   -0.3211 C   0  0  0  1  0  0  0  0  0  0  0  0
    4.1852    1.0493    0.7262 C   0  0  0  1  0  0  0  0  0  0  0  0
    2.1367    2.9114    0.7393 C   0  0  0  1  0  0  0  0  0  0  0  0
    2.2569    2.0238   -0.3133 C   0  0  0  1  0  0  0  0  0  0  0  0
    3.0402    2.8676    1.7897 C   0  0  0  1  0  0  0  0  0  0  0  0
    4.0644    1.9396    1.7818 C   0  0  0  1  0  0  0  0  0  0  0  0
   -1.0884   -2.2024   -0.2836 C   0  0  0  1  0  0  0  0  0  0  0  0
   -2.1112   -3.2228    0.2636 C   0  0  0  1  0  0  0  0  0  0  0  0
   -3.3373   -2.4539    0.6872 C   0  0  0  1  0  0  0  0  0  0  0  0
   -4.0174   -0.0580    0.0242 C   0  0  0  1  0  0  0  0  0  0  0  0
    1.3678   -3.0073   -2.9261 N   0  0  0  1  0  0  0  0  0  0  0  0
    3.2090   -1.5708   -2.7844 C   0  0  0  1  0  0  0  0  0  0  0  0
    2.5563   -0.9050   -1.7266 C   0  0  0  1  0  0  0  0  0  0  0  0
    3.3987    0.0984   -1.3348 N   0  0  0  1  0  0  0  0  0  0  0  0
    4.3952   -0.9565   -2.9858 N   0  0  0  1  0  0  0  0  0  0  0  0
    4.5330    0.0187   -2.1566 N   0  0  0  1  0  0  0  0  0  0  0  0
    2.9192    3.7338    2.8236 O   0  0  0  1  0  0  0  0  0  0  0  0
   -0.4148   -2.7187   -1.4797 N   0  0  0  1  0  0  0  0  0  0  0  0
    3.8942    3.6421    3.8740 C   0  0  0  1  0  0  0  0  0  0  0  0
   -3.0943   -1.0958   -0.0065 N   0  0  0  1  0  0  0  0  0  0  0  0
   -1.9574   -1.0064   -0.6192 C   0  0  0  1  0  0  0  0  0  0  0  0
   -5.2233   -0.2067    0.6841 C   0  0  0  1  0  0  0  0  0  0  0  0
   -6.1110    0.8524    0.6932 C   0  0  0  1  0  0  0  0  0  0  0  0
   -5.8672    2.0207    0.0917 N   0  0  0  1  0  0  0  0  0  0  0  0
   -4.6961    2.1495   -0.5480 C   0  0  0  1  0  0  0  0  0  0  0  0
   -3.7485    1.1424   -0.6039 C   0  0  0  1  0  0  0  0  0  0  0  0
    3.0015   -3.1778   -4.1629 H   0  0  0  1  0  0  0  0  0  0  0  0
    4.9535    0.3485    0.7222 H   0  0  0  1  0  0  0  0  0  0  0  0
    1.3683    3.6123    0.7432 H   0  0  0  1  0  0  0  0  0  0  0  0
    1.5767    2.0540   -1.0994 H   0  0  0  1  0  0  0  0  0  0  0  0
    4.7447    1.9093    2.5679 H   0  0  0  1  0  0  0  0  0  0  0  0
   -0.3583   -1.9528    0.4578 H   0  0  0  1  0  0  0  0  0  0  0  0
   -1.6969   -3.7406    1.1032 H   0  0  0  1  0  0  0  0  0  0  0  0
   -2.3679   -3.9275   -0.4996 H   0  0  0  1  0  0  0  0  0  0  0  0
   -4.2335   -2.9197    0.3340 H   0  0  0  1  0  0  0  0  0  0  0  0
   -3.3853   -2.3477    1.7509 H   0  0  0  1  0  0  0  0  0  0  0  0
   -0.8955   -3.3965   -1.9992 H   0  0  0  1  0  0  0  0  0  0  0  0
    3.9908    4.5926    4.3557 H   0  0  0  1  0  0  0  0  0  0  0  0
    4.8382    3.3547    3.4601 H   0  0  0  1  0  0  0  0  0  0  0  0
    3.5801    2.9105    4.5889 H   0  0  0  1  0  0  0  0  0  0  0  0
   -2.1261   -0.9771   -1.6754 H   0  0  0  1  0  0  0  0  0  0  0  0
   -1.4597   -0.1103   -0.3120 H   0  0  0  1  0  0  0  0  0  0  0  0
   -5.4579   -1.0987    1.1645 H   0  0  0  1  0  0  0  0  0  0  0  0
   -7.0150    0.7342    1.1936 H   0  0  0  1  0  0  0  0  0  0  0  0
   -4.4896    3.0501   -1.0255 H   0  0  0  1  0  0  0  0  0  0  0  0
   -2.8511    1.2866   -1.1093 H   0  0  0  1  0  0  0  0  0  0  0  0
  1  3  4  0  0  0  0
  1 14  4  0  0  0  0
  1 21  1  0  0  0  0
  2 14  4  0  0  0  0
  2 15  4  0  0  0  0
  2 30  1  0  0  0  0
  3 16  4  0  0  0  0
  4  5  4  0  0  0  0
  4  7  4  0  0  0  0
  4 17  1  0  0  0  0
  5  9  4  0  0  0  0
  5 31  1  0  0  0  0
  6  7  4  0  0  0  0
  6  8  4  0  0  0  0
  6 32  1  0  0  0  0
  7 33  1  0  0  0  0
  8  9  4  0  0  0  0
  8 20  1  0  0  0  0
  9 34  1  0  0  0  0
 10 11  1  0  0  0  0
 10 21  1  0  0  0  0
 10 24  1  0  0  0  0
 10 35  1  0  0  0  0
 11 12  1  0  0  0  0
 11 36  1  0  0  0  0
 11 37  1  0  0  0  0
 12 23  1  0  0  0  0
 12 38  1  0  0  0  0
 12 39  1  0  0  0  0
 13 23  1  0  0  0  0
 13 25  4  0  0  0  0
 13 29  4  0  0  0  0
 15 16  4  0  0  0  0
 15 18  4  0  0  0  0
 16 17  4  0  0  0  0
 17 19  4  0  0  0  0
 18 19  4  0  0  0  0
 20 22  1  0  0  0  0
 21 40  1  0  0  0  0
 22 41  1  0  0  0  0
 22 42  1  0  0  0  0
 22 43  1  0  0  0  0
 23 24  1  0  0  0  0
 24 44  1  0  0  0  0
 24 45  1  0  0  0  0
 25 26  4  0  0  0  0
 25 46  1  0  0  0  0
 26 27  4  0  0  0  0
 26 47  1  0  0  0  0
 27 28  4  0  0  0  0
 28 29  4  0  0  0  0
 28 48  1  0  0  0  0
 29 49  1  0  0  0  0
M  END
> <ConfClashScore>
0 

> <ConfOneFourInteractionScore>
-0.984874 

> <ConfScore>
0.0537986 

> <ConfScorePBest>
0.00303345 

> <ConfTolerance>
0.640835 

> <HETNAM>
     OWQ A 303  OWQ                                                       

> <pdb_OW>
Q_303 -16.5129 3.80749 7.62812 0.15963 1.39178 -0.28144 -3.20151 0 0 0 -1.30514 0 0 0 0 0 0 0 0 -8.31393

$$$$
6yky_lig_1.pdb
 OpenBabel04162415593D

 49 53  0  0  0  0  0  0  0  0999 V2000
    0.5299   -0.0441    0.8408 C   0  0  0  1  0  0  0  0  0  0  0  0
    2.0558   -0.1249    2.5655 C   0  0  0  1  0  0  0  0  0  0  0  0
    1.3802   -0.5444   -0.0296 N   0  0  0  1  0  0  0  0  0  0  0  0
    3.8970   -1.8799   -1.6146 C   0  0  0  1  0  0  0  0  0  0  0  0
    3.0186   -2.8093   -2.1388 C   0  0  0  1  0  0  0  0  0  0  0  0
    5.2479   -2.0399   -3.5886 C   0  0  0  1  0  0  0  0  0  0  0  0
    5.0148   -1.4965   -2.3393 C   0  0  0  1  0  0  0  0  0  0  0  0
    4.3670   -2.9721   -4.1145 C   0  0  0  1  0  0  0  0  0  0  0  0
    3.2526   -3.3542   -3.3917 C   0  0  0  1  0  0  0  0  0  0  0  0
   -1.7331    0.7794    1.3436 C   0  0  0  1  0  0  0  0  0  0  0  0
   -2.7005   -0.3317    1.7813 C   0  0  0  1  0  0  0  0  0  0  0  0
   -3.9360    0.4788    2.2022 C   0  0  0  1  0  0  0  0  0  0  0  0
   -4.2669    3.0464    2.2039 C   0  0  0  1  0  0  0  0  0  0  0  0
    0.8517    0.1629    2.1058 N   0  0  0  1  0  0  0  0  0  0  0  0
    3.0005   -0.6600    1.6824 C   0  0  0  1  0  0  0  0  0  0  0  0
    2.6138   -0.8640    0.3419 C   0  0  0  1  0  0  0  0  0  0  0  0
    3.7075   -1.3861   -0.2915 N   0  0  0  1  0  0  0  0  0  0  0  0
    4.2856   -1.0584    1.8038 N   0  0  0  1  0  0  0  0  0  0  0  0
    4.7234   -1.4859    0.6710 N   0  0  0  1  0  0  0  0  0  0  0  0
    4.7014   -3.4377   -5.3414 O   0  0  0  1  0  0  0  0  0  0  0  0
   -0.7297    0.2729    0.4239 N   0  0  0  1  0  0  0  0  0  0  0  0
    3.7202   -4.2249   -6.0344 C   0  0  0  1  0  0  0  0  0  0  0  0
   -3.6740    1.8705    1.7270 N   0  0  0  1  0  0  0  0  0  0  0  0
   -2.6667    1.7595    0.6557 C   0  0  0  1  0  0  0  0  0  0  0  0
   -5.5126    3.4410    1.7521 C   0  0  0  1  0  0  0  0  0  0  0  0
   -6.0625    4.6061    2.2519 C   0  0  0  1  0  0  0  0  0  0  0  0
   -5.4501    5.3802    3.1530 N   0  0  0  1  0  0  0  0  0  0  0  0
   -4.2410    4.9880    3.5789 C   0  0  0  1  0  0  0  0  0  0  0  0
   -3.6185    3.8345    3.1346 C   0  0  0  1  0  0  0  0  0  0  0  0
    2.2970    0.0425    3.5632 H   0  0  0  1  0  0  0  0  0  0  0  0
    2.1822   -3.0998   -1.5933 H   0  0  0  1  0  0  0  0  0  0  0  0
    6.0844   -1.7494   -4.1341 H   0  0  0  1  0  0  0  0  0  0  0  0
    5.6778   -0.8002   -1.9431 H   0  0  0  1  0  0  0  0  0  0  0  0
    2.5895   -4.0505   -3.7879 H   0  0  0  1  0  0  0  0  0  0  0  0
   -1.2507    1.2287    2.1864 H   0  0  0  1  0  0  0  0  0  0  0  0
   -2.3043   -0.8929    2.6017 H   0  0  0  1  0  0  0  0  0  0  0  0
   -2.9259   -0.9938    0.9715 H   0  0  0  1  0  0  0  0  0  0  0  0
   -4.0511    0.4614    3.2659 H   0  0  0  1  0  0  0  0  0  0  0  0
   -4.8176    0.0850    1.7411 H   0  0  0  1  0  0  0  0  0  0  0  0
   -0.9636    0.1558   -0.5206 H   0  0  0  1  0  0  0  0  0  0  0  0
    4.1284   -4.5690   -6.9616 H   0  0  0  1  0  0  0  0  0  0  0  0
    2.8542   -3.6266   -6.2264 H   0  0  0  1  0  0  0  0  0  0  0  0
    3.4471   -5.0655   -5.4313 H   0  0  0  1  0  0  0  0  0  0  0  0
   -3.0785    1.3606   -0.2478 H   0  0  0  1  0  0  0  0  0  0  0  0
   -2.1908    2.6952    0.4487 H   0  0  0  1  0  0  0  0  0  0  0  0
   -6.0262    2.8717    1.0494 H   0  0  0  1  0  0  0  0  0  0  0  0
   -7.0009    4.8953    1.9094 H   0  0  0  1  0  0  0  0  0  0  0  0
   -3.7467    5.5792    4.2773 H   0  0  0  1  0  0  0  0  0  0  0  0
   -2.6804    3.5663    3.4946 H   0  0  0  1  0  0  0  0  0  0  0  0
  1  3  4  0  0  0  0
  1 14  4  0  0  0  0
  1 21  1  0  0  0  0
  2 14  4  0  0  0  0
  2 15  4  0  0  0  0
  2 30  1  0  0  0  0
  3 16  4  0  0  0  0
  4  5  4  0  0  0  0
  4  7  4  0  0  0  0
  4 17  1  0  0  0  0
  5  9  4  0  0  0  0
  5 31  1  0  0  0  0
  6  7  4  0  0  0  0
  6  8  4  0  0  0  0
  6 32  1  0  0  0  0
  7 33  1  0  0  0  0
  8  9  4  0  0  0  0
  8 20  1  0  0  0  0
  9 34  1  0  0  0  0
 10 11  1  0  0  0  0
 10 21  1  0  0  0  0
 10 24  1  0  0  0  0
 10 35  1  0  0  0  0
 11 12  1  0  0  0  0
 11 36  1  0  0  0  0
 11 37  1  0  0  0  0
 12 23  1  0  0  0  0
 12 38  1  0  0  0  0
 12 39  1  0  0  0  0
 13 23  1  0  0  0  0
 13 25  4  0  0  0  0
 13 29  4  0  0  0  0
 15 16  4  0  0  0  0
 15 18  4  0  0  0  0
 16 17  4  0  0  0  0
 17 19  4  0  0  0  0
 18 19  4  0  0  0  0
 20 22  1  0  0  0  0
 21 40  1  0  0  0  0
 22 41  1  0  0  0  0
 22 42  1  0  0  0  0
 22 43  1  0  0  0  0
 23 24  1  0  0  0  0
 24 44  1  0  0  0  0
 24 45  1  0  0  0  0
 25 26  4  0  0  0  0
 25 46  1  0  0  0  0
 26 27  4  0  0  0  0
 26 47  1  0  0  0  0
 27 28  4  0  0  0  0
 28 29  4  0  0  0  0
 28 48  1  0  0  0  0
 29 49  1  0  0  0  0
M  END
> <ConfClashScore>
0 

> <ConfOneFourInteractionScore>
-0.986948 

> <ConfScore>
0.0545964 

> <ConfScorePBest>
0.00302012 

> <ConfTolerance>
0.515098 

> <HETNAM>
     OWQ A 303  OWQ                                                       

> <pdb_OW>
Q_303 -16.5129 3.80749 7.62812 0.15963 1.39178 -0.28144 -3.20151 0 0 0 -1.30514 0 0 0 0 0 0 0 0 -8.31393

$$$$
6yky_lig_1.pdb
 OpenBabel04162415593D

 49 53  0  0  0  0  0  0  0  0999 V2000
    0.3780    0.3160    0.2534 C   0  0  0  1  0  0  0  0  0  0  0  0
    0.9736    2.4608   -0.3418 C   0  0  0  1  0  0  0  0  0  0  0  0
    1.2183   -0.2301   -0.5990 N   0  0  0  1  0  0  0  0  0  0  0  0
    3.4531   -0.9210   -2.8642 C   0  0  0  1  0  0  0  0  0  0  0  0
    2.8457   -2.1041   -2.4881 C   0  0  0  1  0  0  0  0  0  0  0  0
    5.1100   -2.1555   -4.0799 C   0  0  0  1  0  0  0  0  0  0  0  0
    4.5885   -0.9467   -3.6591 C   0  0  0  1  0  0  0  0  0  0  0  0
    4.5010   -3.3423   -3.7026 C   0  0  0  1  0  0  0  0  0  0  0  0
    3.3689   -3.3164   -2.9101 C   0  0  0  1  0  0  0  0  0  0  0  0
   -1.2583    0.1148    2.0978 C   0  0  0  1  0  0  0  0  0  0  0  0
   -2.3282   -0.9077    2.5711 C   0  0  0  1  0  0  0  0  0  0  0  0
   -3.5394   -0.1048    3.0903 C   0  0  0  1  0  0  0  0  0  0  0  0
   -4.0871    2.4088    2.8221 C   0  0  0  1  0  0  0  0  0  0  0  0
    0.2534    1.6251    0.3841 N   0  0  0  1  0  0  0  0  0  0  0  0
    1.8839    1.9339   -1.2650 C   0  0  0  1  0  0  0  0  0  0  0  0
    1.9837    0.5314   -1.3710 C   0  0  0  1  0  0  0  0  0  0  0  0
    2.9292    0.2913   -2.3294 N   0  0  0  1  0  0  0  0  0  0  0  0
    2.7546    2.4747   -2.1450 N   0  0  0  1  0  0  0  0  0  0  0  0
    3.3770    1.5427   -2.7786 N   0  0  0  1  0  0  0  0  0  0  0  0
    5.1037   -4.4613   -4.1699 O   0  0  0  1  0  0  0  0  0  0  0  0
   -0.4129   -0.4330    1.0513 N   0  0  0  1  0  0  0  0  0  0  0  0
    4.5541   -5.7229   -3.7591 C   0  0  0  1  0  0  0  0  0  0  0  0
   -3.3113    1.2478    2.5078 N   0  0  0  1  0  0  0  0  0  0  0  0
   -2.1805    1.2287    1.5655 C   0  0  0  1  0  0  0  0  0  0  0  0
   -5.3016    2.2902    3.4722 C   0  0  0  1  0  0  0  0  0  0  0  0
   -6.0163    3.4374    3.7600 C   0  0  0  1  0  0  0  0  0  0  0  0
   -5.5961    4.6649    3.4391 N   0  0  0  1  0  0  0  0  0  0  0  0
   -4.4190    4.7648    2.8052 C   0  0  0  1  0  0  0  0  0  0  0  0
   -3.6372    3.6696    2.4818 C   0  0  0  1  0  0  0  0  0  0  0  0
    0.8664    3.4892   -0.2298 H   0  0  0  1  0  0  0  0  0  0  0  0
    1.9962   -2.0848   -1.8884 H   0  0  0  1  0  0  0  0  0  0  0  0
    5.9595   -2.1747   -4.6795 H   0  0  0  1  0  0  0  0  0  0  0  0
    5.0478   -0.0565   -3.9388 H   0  0  0  1  0  0  0  0  0  0  0  0
    2.9096   -4.2065   -2.6304 H   0  0  0  1  0  0  0  0  0  0  0  0
   -0.6481    0.4562    2.9077 H   0  0  0  1  0  0  0  0  0  0  0  0
   -1.9299   -1.5162    3.3559 H   0  0  0  1  0  0  0  0  0  0  0  0
   -2.6260   -1.5297    1.7530 H   0  0  0  1  0  0  0  0  0  0  0  0
   -4.4591   -0.5251    2.7405 H   0  0  0  1  0  0  0  0  0  0  0  0
   -3.5475   -0.0677    4.1596 H   0  0  0  1  0  0  0  0  0  0  0  0
   -0.4168   -1.4037    0.9163 H   0  0  0  1  0  0  0  0  0  0  0  0
    4.0276   -6.1668   -4.5780 H   0  0  0  1  0  0  0  0  0  0  0  0
    3.8794   -5.5690   -2.9430 H   0  0  0  1  0  0  0  0  0  0  0  0
    5.3459   -6.3730   -3.4501 H   0  0  0  1  0  0  0  0  0  0  0  0
   -1.6736    2.1710    1.5631 H   0  0  0  1  0  0  0  0  0  0  0  0
   -2.5165    1.0013    0.5754 H   0  0  0  1  0  0  0  0  0  0  0  0
   -5.6702    1.3553    3.7397 H   0  0  0  1  0  0  0  0  0  0  0  0
   -6.9277    3.3407    4.2514 H   0  0  0  1  0  0  0  0  0  0  0  0
   -4.0768    5.7115    2.5436 H   0  0  0  1  0  0  0  0  0  0  0  0
   -2.7282    3.7935    1.9920 H   0  0  0  1  0  0  0  0  0  0  0  0
  1  3  4  0  0  0  0
  1 14  4  0  0  0  0
  1 21  1  0  0  0  0
  2 14  4  0  0  0  0
  2 15  4  0  0  0  0
  2 30  1  0  0  0  0
  3 16  4  0  0  0  0
  4  5  4  0  0  0  0
  4  7  4  0  0  0  0
  4 17  1  0  0  0  0
  5  9  4  0  0  0  0
  5 31  1  0  0  0  0
  6  7  4  0  0  0  0
  6  8  4  0  0  0  0
  6 32  1  0  0  0  0
  7 33  1  0  0  0  0
  8  9  4  0  0  0  0
  8 20  1  0  0  0  0
  9 34  1  0  0  0  0
 10 11  1  0  0  0  0
 10 21  1  0  0  0  0
 10 24  1  0  0  0  0
 10 35  1  0  0  0  0
 11 12  1  0  0  0  0
 11 36  1  0  0  0  0
 11 37  1  0  0  0  0
 12 23  1  0  0  0  0
 12 38  1  0  0  0  0
 12 39  1  0  0  0  0
 13 23  1  0  0  0  0
 13 25  4  0  0  0  0
 13 29  4  0  0  0  0
 15 16  4  0  0  0  0
 15 18  4  0  0  0  0
 16 17  4  0  0  0  0
 17 19  4  0  0  0  0
 18 19  4  0  0  0  0
 20 22  1  0  0  0  0
 21 40  1  0  0  0  0
 22 41  1  0  0  0  0
 22 42  1  0  0  0  0
 22 43  1  0  0  0  0
 23 24  1  0  0  0  0
 24 44  1  0  0  0  0
 24 45  1  0  0  0  0
 25 26  4  0  0  0  0
 25 46  1  0  0  0  0
 26 27  4  0  0  0  0
 26 47  1  0  0  0  0
 27 28  4  0  0  0  0
 28 29  4  0  0  0  0
 28 48  1  0  0  0  0
 29 49  1  0  0  0  0
M  END
> <ConfClashScore>
0 

> <ConfOneFourInteractionScore>
-0.987833 

> <ConfScore>
0.0550957 

> <ConfScorePBest>
0.00300679 

> <ConfTolerance>
0.312143 

> <HETNAM>
     OWQ A 303  OWQ                                                       

> <pdb_OW>
Q_303 -16.5129 3.80749 7.62812 0.15963 1.39178 -0.28144 -3.20151 0 0 0 -1.30514 0 0 0 0 0 0 0 0 -8.31393

$$$$
6yky_lig_1.pdb
 OpenBabel04162415593D

 49 53  0  0  0  0  0  0  0  0999 V2000
    1.0394   -0.2534   -2.6231 C   0  0  0  1  0  0  0  0  0  0  0  0
    2.4232   -1.6294   -3.8484 C   0  0  0  1  0  0  0  0  0  0  0  0
    1.4606   -0.7349   -1.4734 N   0  0  0  1  0  0  0  0  0  0  0  0
    2.7592   -2.4570    0.9507 C   0  0  0  1  0  0  0  0  0  0  0  0
    2.6373   -1.2982    1.6939 C   0  0  0  1  0  0  0  0  0  0  0  0
    2.5580   -3.7636    2.9506 C   0  0  0  1  0  0  0  0  0  0  0  0
    2.7222   -3.6915    1.5801 C   0  0  0  1  0  0  0  0  0  0  0  0
    2.4358   -2.6014    3.6962 C   0  0  0  1  0  0  0  0  0  0  0  0
    2.4727   -1.3706    3.0684 C   0  0  0  1  0  0  0  0  0  0  0  0
   -0.5051    1.2455   -1.4124 C   0  0  0  1  0  0  0  0  0  0  0  0
   -1.5201    0.2474   -0.8121 C   0  0  0  1  0  0  0  0  0  0  0  0
   -2.7145    1.0404   -0.3447 C   0  0  0  1  0  0  0  0  0  0  0  0
   -3.3908    3.4497   -1.0021 C   0  0  0  1  0  0  0  0  0  0  0  0
    1.5034   -0.6840   -3.7832 N   0  0  0  1  0  0  0  0  0  0  0  0
    2.9072   -2.1774   -2.6551 C   0  0  0  1  0  0  0  0  0  0  0  0
    2.3839   -1.6879   -1.4407 C   0  0  0  1  0  0  0  0  0  0  0  0
    3.0182   -2.3832   -0.4485 N   0  0  0  1  0  0  0  0  0  0  0  0
    3.8179   -3.1291   -2.3553 N   0  0  0  1  0  0  0  0  0  0  0  0
    3.9037   -3.2705   -1.0785 N   0  0  0  1  0  0  0  0  0  0  0  0
    2.2821   -2.6710    5.0236 O   0  0  0  1  0  0  0  0  0  0  0  0
    0.1027    0.7120   -2.6191 N   0  0  0  1  0  0  0  0  0  0  0  0
    2.3826   -3.9444    5.7455 C   0  0  0  1  0  0  0  0  0  0  0  0
   -2.4792    2.3878   -1.0619 N   0  0  0  1  0  0  0  0  0  0  0  0
   -1.3681    2.4526   -1.7230 C   0  0  0  1  0  0  0  0  0  0  0  0
   -3.1150    4.6514   -1.6278 C   0  0  0  1  0  0  0  0  0  0  0  0
   -4.0438    5.6714   -1.5469 C   0  0  0  1  0  0  0  0  0  0  0  0
   -5.2020    5.5601   -0.8894 N   0  0  0  1  0  0  0  0  0  0  0  0
   -5.4545    4.3910   -0.2838 C   0  0  0  1  0  0  0  0  0  0  0  0
   -4.5827    3.3167   -0.3170 C   0  0  0  1  0  0  0  0  0  0  0  0
    2.7804   -1.9599   -4.7675 H   0  0  0  1  0  0  0  0  0  0  0  0
    2.6691   -0.3719    1.2221 H   0  0  0  1  0  0  0  0  0  0  0  0
    2.5262   -4.6898    3.4225 H   0  0  0  1  0  0  0  0  0  0  0  0
    2.8179   -4.5633    1.0213 H   0  0  0  1  0  0  0  0  0  0  0  0
    2.3770   -0.4988    3.6272 H   0  0  0  1  0  0  0  0  0  0  0  0
    0.2598    1.4899   -0.7052 H   0  0  0  1  0  0  0  0  0  0  0  0
   -1.8203   -0.4601   -1.5566 H   0  0  0  1  0  0  0  0  0  0  0  0
   -1.0788   -0.2693    0.0144 H   0  0  0  1  0  0  0  0  0  0  0  0
   -3.6323    0.5863   -0.6550 H   0  0  0  1  0  0  0  0  0  0  0  0
   -2.7154    1.1575    0.7188 H   0  0  0  1  0  0  0  0  0  0  0  0
   -0.1868    1.0771   -3.4812 H   0  0  0  1  0  0  0  0  0  0  0  0
    3.0876   -4.5802    5.2519 H   0  0  0  1  0  0  0  0  0  0  0  0
    1.4246   -4.4207    5.7633 H   0  0  0  1  0  0  0  0  0  0  0  0
    2.7089   -3.7611    6.7479 H   0  0  0  1  0  0  0  0  0  0  0  0
   -0.8433    3.3431   -1.4463 H   0  0  0  1  0  0  0  0  0  0  0  0
   -1.5811    2.4747   -2.7713 H   0  0  0  1  0  0  0  0  0  0  0  0
   -2.2252    4.7852   -2.1494 H   0  0  0  1  0  0  0  0  0  0  0  0
   -3.8307    6.5716   -2.0221 H   0  0  0  1  0  0  0  0  0  0  0  0
   -6.3491    4.2863    0.2362 H   0  0  0  1  0  0  0  0  0  0  0  0
   -4.8206    2.4262    0.1647 H   0  0  0  1  0  0  0  0  0  0  0  0
  1  3  4  0  0  0  0
  1 14  4  0  0  0  0
  1 21  1  0  0  0  0
  2 14  4  0  0  0  0
  2 15  4  0  0  0  0
  2 30  1  0  0  0  0
  3 16  4  0  0  0  0
  4  5  4  0  0  0  0
  4  7  4  0  0  0  0
  4 17  1  0  0  0  0
  5  9  4  0  0  0  0
  5 31  1  0  0  0  0
  6  7  4  0  0  0  0
  6  8  4  0  0  0  0
  6 32  1  0  0  0  0
  7 33  1  0  0  0  0
  8  9  4  0  0  0  0
  8 20  1  0  0  0  0
  9 34  1  0  0  0  0
 10 11  1  0  0  0  0
 10 21  1  0  0  0  0
 10 24  1  0  0  0  0
 10 35  1  0  0  0  0
 11 12  1  0  0  0  0
 11 36  1  0  0  0  0
 11 37  1  0  0  0  0
 12 23  1  0  0  0  0
 12 38  1  0  0  0  0
 12 39  1  0  0  0  0
 13 23  1  0  0  0  0
 13 25  4  0  0  0  0
 13 29  4  0  0  0  0
 15 16  4  0  0  0  0
 15 18  4  0  0  0  0
 16 17  4  0  0  0  0
 17 19  4  0  0  0  0
 18 19  4  0  0  0  0
 20 22  1  0  0  0  0
 21 40  1  0  0  0  0
 22 41  1  0  0  0  0
 22 42  1  0  0  0  0
 22 43  1  0  0  0  0
 23 24  1  0  0  0  0
 24 44  1  0  0  0  0
 24 45  1  0  0  0  0
 25 26  4  0  0  0  0
 25 46  1  0  0  0  0
 26 27  4  0  0  0  0
 26 47  1  0  0  0  0
 27 28  4  0  0  0  0
 28 29  4  0  0  0  0
 28 48  1  0  0  0  0
 29 49  1  0  0  0  0
M  END
> <ConfClashScore>
0 

> <ConfOneFourInteractionScore>
-0.986948 

> <ConfScore>
0.0560825 

> <ConfScorePBest>
0.00299346 

> <ConfTolerance>
0.555959 

> <HETNAM>
     OWQ A 303  OWQ                                                       

> <pdb_OW>
Q_303 -16.5129 3.80749 7.62812 0.15963 1.39178 -0.28144 -3.20151 0 0 0 -1.30514 0 0 0 0 0 0 0 0 -8.31393

$$$$
6yky_lig_1.pdb
 OpenBabel04162415593D

 49 53  0  0  0  0  0  0  0  0999 V2000
    1.4406   -2.4945   -1.8659 C   0  0  0  1  0  0  0  0  0  0  0  0
    3.4740   -2.5491   -2.9484 C   0  0  0  1  0  0  0  0  0  0  0  0
    1.7231   -1.3718   -1.2408 N   0  0  0  1  0  0  0  0  0  0  0  0
    3.0265    1.3585   -0.0367 C   0  0  0  1  0  0  0  0  0  0  0  0
    1.9064    1.1240    0.7383 C   0  0  0  1  0  0  0  0  0  0  0  0
    3.1624    3.5893    0.8306 C   0  0  0  1  0  0  0  0  0  0  0  0
    3.6539    2.5937    0.0075 C   0  0  0  1  0  0  0  0  0  0  0  0
    2.0390    3.3543    1.6080 C   0  0  0  1  0  0  0  0  0  0  0  0
    1.4136    2.1226    1.5638 C   0  0  0  1  0  0  0  0  0  0  0  0
   -0.7364   -2.6074   -0.7256 C   0  0  0  1  0  0  0  0  0  0  0  0
   -1.7281   -3.7044   -0.3068 C   0  0  0  1  0  0  0  0  0  0  0  0
   -2.9351   -2.8734    0.1550 C   0  0  0  1  0  0  0  0  0  0  0  0
   -3.1880   -0.3140    0.2296 C   0  0  0  1  0  0  0  0  0  0  0  0
    2.2879   -3.0734   -2.6986 N   0  0  0  1  0  0  0  0  0  0  0  0
    3.8269   -1.3546   -2.3103 C   0  0  0  1  0  0  0  0  0  0  0  0
    2.8920   -0.7720   -1.4301 C   0  0  0  1  0  0  0  0  0  0  0  0
    3.4813    0.3656   -0.9519 N   0  0  0  1  0  0  0  0  0  0  0  0
    4.9213   -0.5628   -2.3290 N   0  0  0  1  0  0  0  0  0  0  0  0
    4.7489    0.4460   -1.5478 N   0  0  0  1  0  0  0  0  0  0  0  0
    1.6476    4.4039    2.3689 O   0  0  0  1  0  0  0  0  0  0  0  0
    0.2403   -3.1136   -1.6738 N   0  0  0  1  0  0  0  0  0  0  0  0
    0.4841    4.2208    3.1907 C   0  0  0  1  0  0  0  0  0  0  0  0
   -2.6412   -1.4759   -0.2830 N   0  0  0  1  0  0  0  0  0  0  0  0
   -1.6518   -1.5825   -1.3713 C   0  0  0  1  0  0  0  0  0  0  0  0
   -4.4572    0.0491   -0.1813 C   0  0  0  1  0  0  0  0  0  0  0  0
   -5.0150    1.2064    0.3277 C   0  0  0  1  0  0  0  0  0  0  0  0
   -4.3887    2.0020    1.2001 N   0  0  0  1  0  0  0  0  0  0  0  0
   -3.1571    1.6403    1.5865 C   0  0  0  1  0  0  0  0  0  0  0  0
   -2.5251    0.4967    1.1303 C   0  0  0  1  0  0  0  0  0  0  0  0
    4.1321   -3.0142   -3.6057 H   0  0  0  1  0  0  0  0  0  0  0  0
    1.4334    0.1986    0.7021 H   0  0  0  1  0  0  0  0  0  0  0  0
    3.6355    4.5148    0.8668 H   0  0  0  1  0  0  0  0  0  0  0  0
    4.4944    2.7714   -0.5788 H   0  0  0  1  0  0  0  0  0  0  0  0
    0.5731    1.9449    2.1500 H   0  0  0  1  0  0  0  0  0  0  0  0
   -0.2306   -2.1965    0.1231 H   0  0  0  1  0  0  0  0  0  0  0  0
   -1.9825   -4.3358   -1.1323 H   0  0  0  1  0  0  0  0  0  0  0  0
   -1.3366   -4.3001    0.4911 H   0  0  0  1  0  0  0  0  0  0  0  0
   -3.0364   -2.9191    1.2192 H   0  0  0  1  0  0  0  0  0  0  0  0
   -3.8333   -3.2293   -0.3049 H   0  0  0  1  0  0  0  0  0  0  0  0
    0.0316   -3.9208   -2.1889 H   0  0  0  1  0  0  0  0  0  0  0  0
    0.5678    3.2993    3.7281 H   0  0  0  1  0  0  0  0  0  0  0  0
   -0.3886    4.1948    2.5723 H   0  0  0  1  0  0  0  0  0  0  0  0
    0.4064    5.0319    3.8842 H   0  0  0  1  0  0  0  0  0  0  0  0
   -1.1530   -0.6544   -1.5577 H   0  0  0  1  0  0  0  0  0  0  0  0
   -2.0864   -1.9432   -2.2801 H   0  0  0  1  0  0  0  0  0  0  0  0
   -4.9822   -0.5378   -0.8607 H   0  0  0  1  0  0  0  0  0  0  0  0
   -5.9710    1.4719    0.0160 H   0  0  0  1  0  0  0  0  0  0  0  0
   -2.6519    2.2486    2.2621 H   0  0  0  1  0  0  0  0  0  0  0  0
   -1.5692    0.2524    1.4593 H   0  0  0  1  0  0  0  0  0  0  0  0
  1  3  4  0  0  0  0
  1 14  4  0  0  0  0
  1 21  1  0  0  0  0
  2 14  4  0  0  0  0
  2 15  4  0  0  0  0
  2 30  1  0  0  0  0
  3 16  4  0  0  0  0
  4  5  4  0  0  0  0
  4  7  4  0  0  0  0
  4 17  1  0  0  0  0
  5  9  4  0  0  0  0
  5 31  1  0  0  0  0
  6  7  4  0  0  0  0
  6  8  4  0  0  0  0
  6 32  1  0  0  0  0
  7 33  1  0  0  0  0
  8  9  4  0  0  0  0
  8 20  1  0  0  0  0
  9 34  1  0  0  0  0
 10 11  1  0  0  0  0
 10 21  1  0  0  0  0
 10 24  1  0  0  0  0
 10 35  1  0  0  0  0
 11 12  1  0  0  0  0
 11 36  1  0  0  0  0
 11 37  1  0  0  0  0
 12 23  1  0  0  0  0
 12 38  1  0  0  0  0
 12 39  1  0  0  0  0
 13 23  1  0  0  0  0
 13 25  4  0  0  0  0
 13 29  4  0  0  0  0
 15 16  4  0  0  0  0
 15 18  4  0  0  0  0
 16 17  4  0  0  0  0
 17 19  4  0  0  0  0
 18 19  4  0  0  0  0
 20 22  1  0  0  0  0
 21 40  1  0  0  0  0
 22 41  1  0  0  0  0
 22 42  1  0  0  0  0
 22 43  1  0  0  0  0
 23 24  1  0  0  0  0
 24 44  1  0  0  0  0
 24 45  1  0  0  0  0
 25 26  4  0  0  0  0
 25 46  1  0  0  0  0
 26 27  4  0  0  0  0
 26 47  1  0  0  0  0
 27 28  4  0  0  0  0
 28 29  4  0  0  0  0
 28 48  1  0  0  0  0
 29 49  1  0  0  0  0
M  END
> <ConfClashScore>
0 

> <ConfOneFourInteractionScore>
-0.986948 

> <ConfScore>
0.0564292 

> <ConfScorePBest>
0.00298014 

> <ConfTolerance>
0.427406 

> <HETNAM>
     OWQ A 303  OWQ                                                       

> <pdb_OW>
Q_303 -16.5129 3.80749 7.62812 0.15963 1.39178 -0.28144 -3.20151 0 0 0 -1.30514 0 0 0 0 0 0 0 0 -8.31393

$$$$
6yky_lig_1.pdb
 OpenBabel04162415593D

 49 53  0  0  0  0  0  0  0  0999 V2000
    0.6831   -0.4602   -2.5505 C   0  0  0  1  0  0  0  0  0  0  0  0
    1.8047   -1.9254   -3.9306 C   0  0  0  1  0  0  0  0  0  0  0  0
    1.1568   -1.0166   -1.4565 N   0  0  0  1  0  0  0  0  0  0  0  0
    2.7307   -2.7660    0.8001 C   0  0  0  1  0  0  0  0  0  0  0  0
    3.7703   -2.0662    1.3829 C   0  0  0  1  0  0  0  0  0  0  0  0
    1.9890   -3.4736    2.9672 C   0  0  0  1  0  0  0  0  0  0  0  0
    1.8403   -3.4730    1.5931 C   0  0  0  1  0  0  0  0  0  0  0  0
    3.0316   -2.7718    3.5520 C   0  0  0  1  0  0  0  0  0  0  0  0
    3.9193   -2.0669    2.7610 C   0  0  0  1  0  0  0  0  0  0  0  0
   -0.7625    1.1435   -1.2372 C   0  0  0  1  0  0  0  0  0  0  0  0
   -1.7682    0.1475   -0.6181 C   0  0  0  1  0  0  0  0  0  0  0  0
   -2.9700    0.9380   -0.1656 C   0  0  0  1  0  0  0  0  0  0  0  0
   -3.6669    3.3258   -0.8682 C   0  0  0  1  0  0  0  0  0  0  0  0
    0.9940   -0.8972   -3.7584 N   0  0  0  1  0  0  0  0  0  0  0  0
    2.3380   -2.5555   -2.8005 C   0  0  0  1  0  0  0  0  0  0  0  0
    1.9791   -2.0558   -1.5317 C   0  0  0  1  0  0  0  0  0  0  0  0
    2.6282   -2.8407   -0.6192 N   0  0  0  1  0  0  0  0  0  0  0  0
    3.1723   -3.6006   -2.6087 N   0  0  0  1  0  0  0  0  0  0  0  0
    3.3593   -3.7899   -1.3490 N   0  0  0  1  0  0  0  0  0  0  0  0
    3.0789   -2.8496    4.8961 O   0  0  0  1  0  0  0  0  0  0  0  0
   -0.1479    0.5915   -2.4371 N   0  0  0  1  0  0  0  0  0  0  0  0
    4.1623   -2.1168    5.5139 C   0  0  0  1  0  0  0  0  0  0  0  0
   -2.7473    2.2737   -0.9080 N   0  0  0  1  0  0  0  0  0  0  0  0
   -1.6368    2.3364   -1.5703 C   0  0  0  1  0  0  0  0  0  0  0  0
   -3.4479    4.4812   -1.5955 C   0  0  0  1  0  0  0  0  0  0  0  0
   -4.3847    5.4950   -1.5305 C   0  0  0  1  0  0  0  0  0  0  0  0
   -5.4982    5.4207   -0.7951 N   0  0  0  1  0  0  0  0  0  0  0  0
   -5.6956    4.2967   -0.0917 C   0  0  0  1  0  0  0  0  0  0  0  0
   -4.8120    3.2315   -0.1017 C   0  0  0  1  0  0  0  0  0  0  0  0
    2.0419   -2.2601   -4.8863 H   0  0  0  1  0  0  0  0  0  0  0  0
    4.4406   -1.5392    0.7876 H   0  0  0  1  0  0  0  0  0  0  0  0
    1.3186   -4.0007    3.5625 H   0  0  0  1  0  0  0  0  0  0  0  0
    1.0604   -4.0028    1.1541 H   0  0  0  1  0  0  0  0  0  0  0  0
    4.6992   -1.5371    3.1999 H   0  0  0  1  0  0  0  0  0  0  0  0
    0.0000    1.4083   -0.5348 H   0  0  0  1  0  0  0  0  0  0  0  0
   -1.3222   -0.3494    0.2180 H   0  0  0  1  0  0  0  0  0  0  0  0
   -2.0618   -0.5767   -1.3490 H   0  0  0  1  0  0  0  0  0  0  0  0
   -3.8835    0.4695   -0.4671 H   0  0  0  1  0  0  0  0  0  0  0  0
   -2.9721    1.0750    0.8956 H   0  0  0  1  0  0  0  0  0  0  0  0
   -0.3700    1.0482   -3.2753 H   0  0  0  1  0  0  0  0  0  0  0  0
    5.0886   -2.3955    5.0565 H   0  0  0  1  0  0  0  0  0  0  0  0
    4.1975   -2.3461    6.5585 H   0  0  0  1  0  0  0  0  0  0  0  0
    4.0023   -1.0669    5.3839 H   0  0  0  1  0  0  0  0  0  0  0  0
   -1.1204    3.2368   -1.3105 H   0  0  0  1  0  0  0  0  0  0  0  0
   -1.8499    2.3368   -2.6189 H   0  0  0  1  0  0  0  0  0  0  0  0
   -2.5943    4.5853   -2.1803 H   0  0  0  1  0  0  0  0  0  0  0  0
   -4.2145    6.3601   -2.0821 H   0  0  0  1  0  0  0  0  0  0  0  0
   -6.5546    4.2214    0.4898 H   0  0  0  1  0  0  0  0  0  0  0  0
   -5.0065    2.3764    0.4573 H   0  0  0  1  0  0  0  0  0  0  0  0
  1  3  4  0  0  0  0
  1 14  4  0  0  0  0
  1 21  1  0  0  0  0
  2 14  4  0  0  0  0
  2 15  4  0  0  0  0
  2 30  1  0  0  0  0
  3 16  4  0  0  0  0
  4  5  4  0  0  0  0
  4  7  4  0  0  0  0
  4 17  1  0  0  0  0
  5  9  4  0  0  0  0
  5 31  1  0  0  0  0
  6  7  4  0  0  0  0
  6  8  4  0  0  0  0
  6 32  1  0  0  0  0
  7 33  1  0  0  0  0
  8  9  4  0  0  0  0
  8 20  1  0  0  0  0
  9 34  1  0  0  0  0
 10 11  1  0  0  0  0
 10 21  1  0  0  0  0
 10 24  1  0  0  0  0
 10 35  1  0  0  0  0
 11 12  1  0  0  0  0
 11 36  1  0  0  0  0
 11 37  1  0  0  0  0
 12 23  1  0  0  0  0
 12 38  1  0  0  0  0
 12 39  1  0  0  0  0
 13 23  1  0  0  0  0
 13 25  4  0  0  0  0
 13 29  4  0  0  0  0
 15 16  4  0  0  0  0
 15 18  4  0  0  0  0
 16 17  4  0  0  0  0
 17 19  4  0  0  0  0
 18 19  4  0  0  0  0
 20 22  1  0  0  0  0
 21 40  1  0  0  0  0
 22 41  1  0  0  0  0
 22 42  1  0  0  0  0
 22 43  1  0  0  0  0
 23 24  1  0  0  0  0
 24 44  1  0  0  0  0
 24 45  1  0  0  0  0
 25 26  4  0  0  0  0
 25 46  1  0  0  0  0
 26 27  4  0  0  0  0
 26 47  1  0  0  0  0
 27 28  4  0  0  0  0
 28 29  4  0  0  0  0
 28 48  1  0  0  0  0
 29 49  1  0  0  0  0
M  END
> <ConfClashScore>
0 

> <ConfOneFourInteractionScore>
-0.994714 

> <ConfScore>
0.0575589 

> <ConfScorePBest>
0.00296681 

> <ConfTolerance>
0.656346 

> <HETNAM>
     OWQ A 303  OWQ                                                       

> <pdb_OW>
Q_303 -16.5129 3.80749 7.62812 0.15963 1.39178 -0.28144 -3.20151 0 0 0 -1.30514 0 0 0 0 0 0 0 0 -8.31393

$$$$
6yky_lig_1.pdb
 OpenBabel04162415593D

 49 53  0  0  0  0  0  0  0  0999 V2000
   -0.1343   -0.4572    0.5568 C   0  0  0  1  0  0  0  0  0  0  0  0
   -1.9242   -1.0814   -0.7531 C   0  0  0  1  0  0  0  0  0  0  0  0
    0.7464   -0.8000   -0.3585 N   0  0  0  1  0  0  0  0  0  0  0  0
    2.3629   -1.8269   -2.9921 C   0  0  0  1  0  0  0  0  0  0  0  0
    3.2779   -0.9866   -2.3866 C   0  0  0  1  0  0  0  0  0  0  0  0
    4.0960   -2.7065   -4.3956 C   0  0  0  1  0  0  0  0  0  0  0  0
    2.7718   -2.6863   -3.9999 C   0  0  0  1  0  0  0  0  0  0  0  0
    5.0139   -1.8637   -3.7884 C   0  0  0  1  0  0  0  0  0  0  0  0
    4.6059   -1.0070   -2.7835 C   0  0  0  1  0  0  0  0  0  0  0  0
   -0.5232    0.6058    2.7972 C   0  0  0  1  0  0  0  0  0  0  0  0
   -1.5393   -0.4064    3.2702 C   0  0  0  1  0  0  0  0  0  0  0  0
   -2.6362    0.4489    3.9008 C   0  0  0  1  0  0  0  0  0  0  0  0
   -3.5162    2.6928    3.1897 C   0  0  0  1  0  0  0  0  0  0  0  0
   -1.4359   -0.5914    0.3718 N   0  0  0  1  0  0  0  0  0  0  0  0
   -1.0318   -1.4624   -1.7616 C   0  0  0  1  0  0  0  0  0  0  0  0
    0.3482   -1.3017   -1.5211 C   0  0  0  1  0  0  0  0  0  0  0  0
    0.9824   -1.7442   -2.6489 N   0  0  0  1  0  0  0  0  0  0  0  0
   -1.1742   -1.9847   -2.9993 N   0  0  0  1  0  0  0  0  0  0  0  0
   -0.0188   -2.1594   -3.5397 N   0  0  0  1  0  0  0  0  0  0  0  0
    6.2873   -1.8143   -4.2464 O   0  0  0  1  0  0  0  0  0  0  0  0
    0.3046    0.0481    1.7237 N   0  0  0  1  0  0  0  0  0  0  0  0
    6.6620   -2.7726   -5.2484 C   0  0  0  1  0  0  0  0  0  0  0  0
   -2.5656    1.6977    3.1302 N   0  0  0  1  0  0  0  0  0  0  0  0
   -1.3587    1.7620    2.2856 C   0  0  0  1  0  0  0  0  0  0  0  0
   -3.5572    3.6366    4.1993 C   0  0  0  1  0  0  0  0  0  0  0  0
   -4.5486    4.5989    4.1696 C   0  0  0  1  0  0  0  0  0  0  0  0
   -5.4791    4.6660    3.2127 N   0  0  0  1  0  0  0  0  0  0  0  0
   -5.4300    3.7421    2.2425 C   0  0  0  1  0  0  0  0  0  0  0  0
   -4.4704    2.7461    2.1925 C   0  0  0  1  0  0  0  0  0  0  0  0
   -2.9506   -1.1821   -0.8868 H   0  0  0  1  0  0  0  0  0  0  0  0
    2.9702   -0.3390   -1.6332 H   0  0  0  1  0  0  0  0  0  0  0  0
    4.4037   -3.3541   -5.1490 H   0  0  0  1  0  0  0  0  0  0  0  0
    2.0824   -3.3157   -4.4582 H   0  0  0  1  0  0  0  0  0  0  0  0
    5.2953   -0.3775   -2.3251 H   0  0  0  1  0  0  0  0  0  0  0  0
    0.1039    0.9196    3.6054 H   0  0  0  1  0  0  0  0  0  0  0  0
   -1.9232   -0.9740    2.4484 H   0  0  0  1  0  0  0  0  0  0  0  0
   -1.1099   -1.0691    3.9923 H   0  0  0  1  0  0  0  0  0  0  0  0
   -2.4382    0.6251    4.9374 H   0  0  0  1  0  0  0  0  0  0  0  0
   -3.5945   -0.0150    3.7941 H   0  0  0  1  0  0  0  0  0  0  0  0
    1.2736    0.0429    1.8706 H   0  0  0  1  0  0  0  0  0  0  0  0
    7.6776   -2.6052   -5.5407 H   0  0  0  1  0  0  0  0  0  0  0  0
    6.0236   -2.6655   -6.1004 H   0  0  0  1  0  0  0  0  0  0  0  0
    6.5639   -3.7610   -4.8506 H   0  0  0  1  0  0  0  0  0  0  0  0
   -0.8475    2.6930    2.4156 H   0  0  0  1  0  0  0  0  0  0  0  0
   -1.6048    1.6310    1.2525 H   0  0  0  1  0  0  0  0  0  0  0  0
   -2.8553    3.6225    4.9665 H   0  0  0  1  0  0  0  0  0  0  0  0
   -4.5717    5.3070    4.9310 H   0  0  0  1  0  0  0  0  0  0  0  0
   -6.1480    3.7755    1.4908 H   0  0  0  1  0  0  0  0  0  0  0  0
   -4.4679    2.0511    1.4189 H   0  0  0  1  0  0  0  0  0  0  0  0
  1  3  4  0  0  0  0
  1 14  4  0  0  0  0
  1 21  1  0  0  0  0
  2 14  4  0  0  0  0
  2 15  4  0  0  0  0
  2 30  1  0  0  0  0
  3 16  4  0  0  0  0
  4  5  4  0  0  0  0
  4  7  4  0  0  0  0
  4 17  1  0  0  0  0
  5  9  4  0  0  0  0
  5 31  1  0  0  0  0
  6  7  4  0  0  0  0
  6  8  4  0  0  0  0
  6 32  1  0  0  0  0
  7 33  1  0  0  0  0
  8  9  4  0  0  0  0
  8 20  1  0  0  0  0
  9 34  1  0  0  0  0
 10 11  1  0  0  0  0
 10 21  1  0  0  0  0
 10 24  1  0  0  0  0
 10 35  1  0  0  0  0
 11 12  1  0  0  0  0
 11 36  1  0  0  0  0
 11 37  1  0  0  0  0
 12 23  1  0  0  0  0
 12 38  1  0  0  0  0
 12 39  1  0  0  0  0
 13 23  1  0  0  0  0
 13 25  4  0  0  0  0
 13 29  4  0  0  0  0
 15 16  4  0  0  0  0
 15 18  4  0  0  0  0
 16 17  4  0  0  0  0
 17 19  4  0  0  0  0
 18 19  4  0  0  0  0
 20 22  1  0  0  0  0
 21 40  1  0  0  0  0
 22 41  1  0  0  0  0
 22 42  1  0  0  0  0
 22 43  1  0  0  0  0
 23 24  1  0  0  0  0
 24 44  1  0  0  0  0
 24 45  1  0  0  0  0
 25 26  4  0  0  0  0
 25 46  1  0  0  0  0
 26 27  4  0  0  0  0
 26 47  1  0  0  0  0
 27 28  4  0  0  0  0
 28 29  4  0  0  0  0
 28 48  1  0  0  0  0
 29 49  1  0  0  0  0
M  END
> <ConfClashScore>
0 

> <ConfOneFourInteractionScore>
-0.983503 

> <ConfScore>
0.0577888 

> <ConfScorePBest>
0.00295348 

> <ConfTolerance>
0.441608 

> <HETNAM>
     OWQ A 303  OWQ                                                       

> <pdb_OW>
Q_303 -16.5129 3.80749 7.62812 0.15963 1.39178 -0.28144 -3.20151 0 0 0 -1.30514 0 0 0 0 0 0 0 0 -8.31393

$$$$
6yky_lig_1.pdb
 OpenBabel04162415593D

 49 53  0  0  0  0  0  0  0  0999 V2000
    3.3162   -0.8654   -1.1381 C   0  0  0  1  0  0  0  0  0  0  0  0
    3.4421   -1.6822   -3.2891 C   0  0  0  1  0  0  0  0  0  0  0  0
    2.0017   -0.9152   -1.1202 N   0  0  0  1  0  0  0  0  0  0  0  0
   -1.1461   -1.3643   -1.6571 C   0  0  0  1  0  0  0  0  0  0  0  0
   -1.0027   -1.5896   -0.3011 C   0  0  0  1  0  0  0  0  0  0  0  0
   -3.5017   -1.0367   -1.3560 C   0  0  0  1  0  0  0  0  0  0  0  0
   -2.3978   -1.0901   -2.1859 C   0  0  0  1  0  0  0  0  0  0  0  0
   -3.3582   -1.2627    0.0041 C   0  0  0  1  0  0  0  0  0  0  0  0
   -2.1100   -1.5360    0.5311 C   0  0  0  1  0  0  0  0  0  0  0  0
    3.3006    0.0930    1.1424 C   0  0  0  1  0  0  0  0  0  0  0  0
    2.2778   -0.9271    1.6902 C   0  0  0  1  0  0  0  0  0  0  0  0
    1.0522   -0.1580    2.1146 C   0  0  0  1  0  0  0  0  0  0  0  0
    0.3801    2.2293    1.4517 C   0  0  0  1  0  0  0  0  0  0  0  0
    4.0242   -1.2370   -2.1904 N   0  0  0  1  0  0  0  0  0  0  0  0
    2.0450   -1.7562   -3.3248 C   0  0  0  1  0  0  0  0  0  0  0  0
    1.3301   -1.3492   -2.1796 C   0  0  0  1  0  0  0  0  0  0  0  0
    0.0070   -1.5205   -2.4796 N   0  0  0  1  0  0  0  0  0  0  0  0
    1.1447   -2.1491   -4.2522 N   0  0  0  1  0  0  0  0  0  0  0  0
   -0.0497   -2.0230   -3.7883 N   0  0  0  1  0  0  0  0  0  0  0  0
   -4.3634   -1.2418    0.9113 O   0  0  0  1  0  0  0  0  0  0  0  0
    3.9669   -0.4185   -0.0427 N   0  0  0  1  0  0  0  0  0  0  0  0
   -5.6946   -1.0412    0.4111 C   0  0  0  1  0  0  0  0  0  0  0  0
    1.2952    1.2001    1.4207 N   0  0  0  1  0  0  0  0  0  0  0  0
    2.4317    1.2892    0.8074 C   0  0  0  1  0  0  0  0  0  0  0  0
   -0.6539    2.4046    0.5507 C   0  0  0  1  0  0  0  0  0  0  0  0
   -1.4988    3.4863    0.7108 C   0  0  0  1  0  0  0  0  0  0  0  0
   -1.3685    4.3812    1.6948 N   0  0  0  1  0  0  0  0  0  0  0  0
   -0.3591    4.2015    2.5586 C   0  0  0  1  0  0  0  0  0  0  0  0
    0.5307    3.1448    2.4749 C   0  0  0  1  0  0  0  0  0  0  0  0
    4.0101   -1.9717   -4.1107 H   0  0  0  1  0  0  0  0  0  0  0  0
   -0.0642   -1.7993    0.0949 H   0  0  0  1  0  0  0  0  0  0  0  0
   -4.4402   -0.8271   -1.7520 H   0  0  0  1  0  0  0  0  0  0  0  0
   -2.5061   -0.9246   -3.2069 H   0  0  0  1  0  0  0  0  0  0  0  0
   -2.0016   -1.7016    1.5521 H   0  0  0  1  0  0  0  0  0  0  0  0
    4.0312    0.3424    1.8833 H   0  0  0  1  0  0  0  0  0  0  0  0
    2.6926   -1.4451    2.5296 H   0  0  0  1  0  0  0  0  0  0  0  0
    2.0206   -1.6318    0.9272 H   0  0  0  1  0  0  0  0  0  0  0  0
    0.1557   -0.6236    1.7619 H   0  0  0  1  0  0  0  0  0  0  0  0
    1.0049   -0.0518    3.1783 H   0  0  0  1  0  0  0  0  0  0  0  0
    4.9466   -0.4406   -0.0474 H   0  0  0  1  0  0  0  0  0  0  0  0
   -6.3820   -1.0035    1.2302 H   0  0  0  1  0  0  0  0  0  0  0  0
   -5.9573   -1.8505   -0.2377 H   0  0  0  1  0  0  0  0  0  0  0  0
   -5.7363   -0.1201   -0.1319 H   0  0  0  1  0  0  0  0  0  0  0  0
    2.2623    1.3186   -0.2487 H   0  0  0  1  0  0  0  0  0  0  0  0
    2.9298    2.1851    1.1142 H   0  0  0  1  0  0  0  0  0  0  0  0
   -0.7931    1.7350   -0.2328 H   0  0  0  1  0  0  0  0  0  0  0  0
   -2.2758    3.6104    0.0307 H   0  0  0  1  0  0  0  0  0  0  0  0
   -0.2390    4.8895    3.3292 H   0  0  0  1  0  0  0  0  0  0  0  0
    1.2982    3.0421    3.1692 H   0  0  0  1  0  0  0  0  0  0  0  0
  1  3  4  0  0  0  0
  1 14  4  0  0  0  0
  1 21  1  0  0  0  0
  2 14  4  0  0  0  0
  2 15  4  0  0  0  0
  2 30  1  0  0  0  0
  3 16  4  0  0  0  0
  4  5  4  0  0  0  0
  4  7  4  0  0  0  0
  4 17  1  0  0  0  0
  5  9  4  0  0  0  0
  5 31  1  0  0  0  0
  6  7  4  0  0  0  0
  6  8  4  0  0  0  0
  6 32  1  0  0  0  0
  7 33  1  0  0  0  0
  8  9  4  0  0  0  0
  8 20  1  0  0  0  0
  9 34  1  0  0  0  0
 10 11  1  0  0  0  0
 10 21  1  0  0  0  0
 10 24  1  0  0  0  0
 10 35  1  0  0  0  0
 11 12  1  0  0  0  0
 11 36  1  0  0  0  0
 11 37  1  0  0  0  0
 12 23  1  0  0  0  0
 12 38  1  0  0  0  0
 12 39  1  0  0  0  0
 13 23  1  0  0  0  0
 13 25  4  0  0  0  0
 13 29  4  0  0  0  0
 15 16  4  0  0  0  0
 15 18  4  0  0  0  0
 16 17  4  0  0  0  0
 17 19  4  0  0  0  0
 18 19  4  0  0  0  0
 20 22  1  0  0  0  0
 21 40  1  0  0  0  0
 22 41  1  0  0  0  0
 22 42  1  0  0  0  0
 22 43  1  0  0  0  0
 23 24  1  0  0  0  0
 24 44  1  0  0  0  0
 24 45  1  0  0  0  0
 25 26  4  0  0  0  0
 25 46  1  0  0  0  0
 26 27  4  0  0  0  0
 26 47  1  0  0  0  0
 27 28  4  0  0  0  0
 28 29  4  0  0  0  0
 28 48  1  0  0  0  0
 29 49  1  0  0  0  0
M  END
> <ConfClashScore>
0 

> <ConfOneFourInteractionScore>
-0.983503 

> <ConfScore>
0.0577888 

> <ConfScorePBest>
0.00294015 

> <ConfTolerance>
0.536242 

> <HETNAM>
     OWQ A 303  OWQ                                                       

> <pdb_OW>
Q_303 -16.5129 3.80749 7.62812 0.15963 1.39178 -0.28144 -3.20151 0 0 0 -1.30514 0 0 0 0 0 0 0 0 -8.31393

$$$$
6yky_lig_1.pdb
 OpenBabel04162415593D

 49 53  0  0  0  0  0  0  0  0999 V2000
    2.0538   -0.2408   -2.4113 C   0  0  0  1  0  0  0  0  0  0  0  0
    3.4558   -1.7890   -3.3844 C   0  0  0  1  0  0  0  0  0  0  0  0
    1.7977   -1.0158   -1.3795 N   0  0  0  1  0  0  0  0  0  0  0  0
    1.5921   -3.3783    0.8521 C   0  0  0  1  0  0  0  0  0  0  0  0
    0.6703   -2.4218    1.2337 C   0  0  0  1  0  0  0  0  0  0  0  0
    1.2803   -4.5149    2.9397 C   0  0  0  1  0  0  0  0  0  0  0  0
    1.8996   -4.4249    1.7073 C   0  0  0  1  0  0  0  0  0  0  0  0
    0.3557   -3.5556    3.3226 C   0  0  0  1  0  0  0  0  0  0  0  0
    0.0493   -2.5121    2.4696 C   0  0  0  1  0  0  0  0  0  0  0  0
    0.6302    1.5196   -1.4254 C   0  0  0  1  0  0  0  0  0  0  0  0
   -0.4400    0.4973   -0.9521 C   0  0  0  1  0  0  0  0  0  0  0  0
   -1.6507    1.3004   -0.4322 C   0  0  0  1  0  0  0  0  0  0  0  0
   -2.1822    3.7913   -0.7056 C   0  0  0  1  0  0  0  0  0  0  0  0
    2.8600   -0.6104   -3.3911 N   0  0  0  1  0  0  0  0  0  0  0  0
    3.2188   -2.6541   -2.3102 C   0  0  0  1  0  0  0  0  0  0  0  0
    2.3517   -2.2185   -1.2871 C   0  0  0  1  0  0  0  0  0  0  0  0
    2.2973   -3.2387   -0.3782 N   0  0  0  1  0  0  0  0  0  0  0  0
    3.6452   -3.8943   -1.9860 N   0  0  0  1  0  0  0  0  0  0  0  0
    3.1252   -4.2606   -0.8666 N   0  0  0  1  0  0  0  0  0  0  0  0
   -0.1777   -3.7440    4.5452 O   0  0  0  1  0  0  0  0  0  0  0  0
    1.4750    0.9719   -2.4724 N   0  0  0  1  0  0  0  0  0  0  0  0
   -1.1605   -2.7597    4.9426 C   0  0  0  1  0  0  0  0  0  0  0  0
   -1.4223    2.6532   -1.0143 N   0  0  0  1  0  0  0  0  0  0  0  0
   -0.2918    2.6341   -1.9570 C   0  0  0  1  0  0  0  0  0  0  0  0
   -1.9192    4.9201   -1.4594 C   0  0  0  1  0  0  0  0  0  0  0  0
   -2.6388    6.0720   -1.2045 C   0  0  0  1  0  0  0  0  0  0  0  0
   -3.5804    6.1563   -0.2598 N   0  0  0  1  0  0  0  0  0  0  0  0
   -3.8220    5.0556    0.4664 C   0  0  0  1  0  0  0  0  0  0  0  0
   -3.1515    3.8600    0.2760 C   0  0  0  1  0  0  0  0  0  0  0  0
    4.0881   -2.0685   -4.1614 H   0  0  0  1  0  0  0  0  0  0  0  0
    0.4427   -1.6343    0.5936 H   0  0  0  1  0  0  0  0  0  0  0  0
    1.5079   -5.3023    3.5798 H   0  0  0  1  0  0  0  0  0  0  0  0
    2.5962   -5.1424    1.4218 H   0  0  0  1  0  0  0  0  0  0  0  0
   -0.6473   -1.7946    2.7552 H   0  0  0  1  0  0  0  0  0  0  0  0
    1.2407    1.8605   -0.6155 H   0  0  0  1  0  0  0  0  0  0  0  0
   -0.0416   -0.1116   -0.1677 H   0  0  0  1  0  0  0  0  0  0  0  0
   -0.7383   -0.1243   -1.7704 H   0  0  0  1  0  0  0  0  0  0  0  0
   -2.5706    0.8806   -0.7819 H   0  0  0  1  0  0  0  0  0  0  0  0
   -1.6584    1.3372    0.6371 H   0  0  0  1  0  0  0  0  0  0  0  0
    1.6327    1.5183   -3.2706 H   0  0  0  1  0  0  0  0  0  0  0  0
   -2.0147   -2.8290    4.3020 H   0  0  0  1  0  0  0  0  0  0  0  0
   -0.7357   -1.7807    4.8656 H   0  0  0  1  0  0  0  0  0  0  0  0
   -1.4580   -2.9414    5.9542 H   0  0  0  1  0  0  0  0  0  0  0  0
    0.2154    3.5762   -1.9592 H   0  0  0  1  0  0  0  0  0  0  0  0
   -0.6282    2.4071   -2.9470 H   0  0  0  1  0  0  0  0  0  0  0  0
   -1.1936    4.9026   -2.2042 H   0  0  0  1  0  0  0  0  0  0  0  0
   -2.4374    6.9164   -1.7772 H   0  0  0  1  0  0  0  0  0  0  0  0
   -4.5485    5.1025    1.2090 H   0  0  0  1  0  0  0  0  0  0  0  0
   -3.3733    3.0291    0.8607 H   0  0  0  1  0  0  0  0  0  0  0  0
  1  3  4  0  0  0  0
  1 14  4  0  0  0  0
  1 21  1  0  0  0  0
  2 14  4  0  0  0  0
  2 15  4  0  0  0  0
  2 30  1  0  0  0  0
  3 16  4  0  0  0  0
  4  5  4  0  0  0  0
  4  7  4  0  0  0  0
  4 17  1  0  0  0  0
  5  9  4  0  0  0  0
  5 31  1  0  0  0  0
  6  7  4  0  0  0  0
  6  8  4  0  0  0  0
  6 32  1  0  0  0  0
  7 33  1  0  0  0  0
  8  9  4  0  0  0  0
  8 20  1  0  0  0  0
  9 34  1  0  0  0  0
 10 11  1  0  0  0  0
 10 21  1  0  0  0  0
 10 24  1  0  0  0  0
 10 35  1  0  0  0  0
 11 12  1  0  0  0  0
 11 36  1  0  0  0  0
 11 37  1  0  0  0  0
 12 23  1  0  0  0  0
 12 38  1  0  0  0  0
 12 39  1  0  0  0  0
 13 23  1  0  0  0  0
 13 25  4  0  0  0  0
 13 29  4  0  0  0  0
 15 16  4  0  0  0  0
 15 18  4  0  0  0  0
 16 17  4  0  0  0  0
 17 19  4  0  0  0  0
 18 19  4  0  0  0  0
 20 22  1  0  0  0  0
 21 40  1  0  0  0  0
 22 41  1  0  0  0  0
 22 42  1  0  0  0  0
 22 43  1  0  0  0  0
 23 24  1  0  0  0  0
 24 44  1  0  0  0  0
 24 45  1  0  0  0  0
 25 26  4  0  0  0  0
 25 46  1  0  0  0  0
 26 27  4  0  0  0  0
 26 47  1  0  0  0  0
 27 28  4  0  0  0  0
 28 29  4  0  0  0  0
 28 48  1  0  0  0  0
 29 49  1  0  0  0  0
M  END
> <ConfClashScore>
0 

> <ConfOneFourInteractionScore>
-0.987833 

> <ConfScore>
0.0579396 

> <ConfScorePBest>
0.00292682 

> <ConfTolerance>
0.518775 

> <HETNAM>
     OWQ A 303  OWQ                                                       

> <pdb_OW>
Q_303 -16.5129 3.80749 7.62812 0.15963 1.39178 -0.28144 -3.20151 0 0 0 -1.30514 0 0 0 0 0 0 0 0 -8.31393

$$$$
6yky_lig_1.pdb
 OpenBabel04162415593D

 49 53  0  0  0  0  0  0  0  0999 V2000
    0.1131    0.0413    0.6246 C   0  0  0  1  0  0  0  0  0  0  0  0
   -1.9608   -0.1297   -0.3650 C   0  0  0  1  0  0  0  0  0  0  0  0
    0.7073   -0.6272   -0.3402 N   0  0  0  1  0  0  0  0  0  0  0  0
    1.5139   -2.3321   -3.0363 C   0  0  0  1  0  0  0  0  0  0  0  0
    1.7814   -2.2230   -4.3879 C   0  0  0  1  0  0  0  0  0  0  0  0
    3.4995   -3.6439   -2.7470 C   0  0  0  1  0  0  0  0  0  0  0  0
    2.3727   -3.0459   -2.2150 C   0  0  0  1  0  0  0  0  0  0  0  0
    3.7679   -3.5346   -4.1025 C   0  0  0  1  0  0  0  0  0  0  0  0
    2.9115   -2.8228   -4.9212 C   0  0  0  1  0  0  0  0  0  0  0  0
    0.2506    1.0480    2.8651 C   0  0  0  1  0  0  0  0  0  0  0  0
   -0.7551    0.0521    3.4844 C   0  0  0  1  0  0  0  0  0  0  0  0
   -1.9567    0.8427    3.9371 C   0  0  0  1  0  0  0  0  0  0  0  0
   -2.6401    3.2151    3.2339 C   0  0  0  1  0  0  0  0  0  0  0  0
   -1.1854    0.2873    0.6194 N   0  0  0  1  0  0  0  0  0  0  0  0
   -1.3807   -0.8461   -1.4180 C   0  0  0  1  0  0  0  0  0  0  0  0
    0.0080   -1.0855   -1.3711 C   0  0  0  1  0  0  0  0  0  0  0  0
    0.3077   -1.7935   -2.5020 N   0  0  0  1  0  0  0  0  0  0  0  0
   -1.8556   -1.4070   -2.5516 N   0  0  0  1  0  0  0  0  0  0  0  0
   -0.8955   -1.9656   -3.2026 N   0  0  0  1  0  0  0  0  0  0  0  0
    4.8925   -4.1638   -4.5080 O   0  0  0  1  0  0  0  0  0  0  0  0
    0.8630    0.4976    1.6688 N   0  0  0  1  0  0  0  0  0  0  0  0
    5.3358   -4.0182   -5.8773 C   0  0  0  1  0  0  0  0  0  0  0  0
   -1.7340    2.1784    3.1946 N   0  0  0  1  0  0  0  0  0  0  0  0
   -0.6236    2.2409    2.5321 C   0  0  0  1  0  0  0  0  0  0  0  0
   -3.4949    3.4448    2.1718 C   0  0  0  1  0  0  0  0  0  0  0  0
   -4.3910    4.4935    2.2545 C   0  0  0  1  0  0  0  0  0  0  0  0
   -4.4754    5.3063    3.3121 N   0  0  0  1  0  0  0  0  0  0  0  0
   -3.6377    5.0748    4.3328 C   0  0  0  1  0  0  0  0  0  0  0  0
   -2.7124    4.0456    4.3352 C   0  0  0  1  0  0  0  0  0  0  0  0
   -2.9814    0.0701   -0.3578 H   0  0  0  1  0  0  0  0  0  0  0  0
    1.1349   -1.6908   -5.0047 H   0  0  0  1  0  0  0  0  0  0  0  0
    4.1460   -4.1761   -2.1302 H   0  0  0  1  0  0  0  0  0  0  0  0
    2.1692   -3.1313   -1.1987 H   0  0  0  1  0  0  0  0  0  0  0  0
    3.1149   -2.7374   -5.9375 H   0  0  0  1  0  0  0  0  0  0  0  0
    1.0132    1.3128    3.5673 H   0  0  0  1  0  0  0  0  0  0  0  0
   -0.3090   -0.4449    4.3204 H   0  0  0  1  0  0  0  0  0  0  0  0
   -1.0488   -0.6721    2.7535 H   0  0  0  1  0  0  0  0  0  0  0  0
   -2.8703    0.3742    3.6358 H   0  0  0  1  0  0  0  0  0  0  0  0
   -1.9587    0.9797    4.9983 H   0  0  0  1  0  0  0  0  0  0  0  0
    1.8403    0.4528    1.6101 H   0  0  0  1  0  0  0  0  0  0  0  0
    5.5680   -2.9916   -6.0703 H   0  0  0  1  0  0  0  0  0  0  0  0
    4.5587   -4.3384   -6.5395 H   0  0  0  1  0  0  0  0  0  0  0  0
    6.2086   -4.6167   -6.0349 H   0  0  0  1  0  0  0  0  0  0  0  0
   -0.1071    3.1413    2.7918 H   0  0  0  1  0  0  0  0  0  0  0  0
   -0.8370    2.2413    1.4835 H   0  0  0  1  0  0  0  0  0  0  0  0
   -3.4641    2.8397    1.3265 H   0  0  0  1  0  0  0  0  0  0  0  0
   -5.0326    4.6587    1.4528 H   0  0  0  1  0  0  0  0  0  0  0  0
   -3.6854    5.6990    5.1633 H   0  0  0  1  0  0  0  0  0  0  0  0
   -2.0835    3.9003    5.1506 H   0  0  0  1  0  0  0  0  0  0  0  0
  1  3  4  0  0  0  0
  1 14  4  0  0  0  0
  1 21  1  0  0  0  0
  2 14  4  0  0  0  0
  2 15  4  0  0  0  0
  2 30  1  0  0  0  0
  3 16  4  0  0  0  0
  4  5  4  0  0  0  0
  4  7  4  0  0  0  0
  4 17  1  0  0  0  0
  5  9  4  0  0  0  0
  5 31  1  0  0  0  0
  6  7  4  0  0  0  0
  6  8  4  0  0  0  0
  6 32  1  0  0  0  0
  7 33  1  0  0  0  0
  8  9  4  0  0  0  0
  8 20  1  0  0  0  0
  9 34  1  0  0  0  0
 10 11  1  0  0  0  0
 10 21  1  0  0  0  0
 10 24  1  0  0  0  0
 10 35  1  0  0  0  0
 11 12  1  0  0  0  0
 11 36  1  0  0  0  0
 11 37  1  0  0  0  0
 12 23  1  0  0  0  0
 12 38  1  0  0  0  0
 12 39  1  0  0  0  0
 13 23  1  0  0  0  0
 13 25  4  0  0  0  0
 13 29  4  0  0  0  0
 15 16  4  0  0  0  0
 15 18  4  0  0  0  0
 16 17  4  0  0  0  0
 17 19  4  0  0  0  0
 18 19  4  0  0  0  0
 20 22  1  0  0  0  0
 21 40  1  0  0  0  0
 22 41  1  0  0  0  0
 22 42  1  0  0  0  0
 22 43  1  0  0  0  0
 23 24  1  0  0  0  0
 24 44  1  0  0  0  0
 24 45  1  0  0  0  0
 25 26  4  0  0  0  0
 25 46  1  0  0  0  0
 26 27  4  0  0  0  0
 26 47  1  0  0  0  0
 27 28  4  0  0  0  0
 28 29  4  0  0  0  0
 28 48  1  0  0  0  0
 29 49  1  0  0  0  0
M  END
> <ConfClashScore>
0 

> <ConfOneFourInteractionScore>
-0.983503 

> <ConfScore>
0.0580036 

> <ConfScorePBest>
0.0029135 

> <ConfTolerance>
0.416361 

> <HETNAM>
     OWQ A 303  OWQ                                                       

> <pdb_OW>
Q_303 -16.5129 3.80749 7.62812 0.15963 1.39178 -0.28144 -3.20151 0 0 0 -1.30514 0 0 0 0 0 0 0 0 -8.31393

$$$$
6yky_lig_1.pdb
 OpenBabel04162415593D

 49 53  0  0  0  0  0  0  0  0999 V2000
    1.5370    0.3409    0.4947 C   0  0  0  1  0  0  0  0  0  0  0  0
    2.5140    2.0950   -0.6358 C   0  0  0  1  0  0  0  0  0  0  0  0
    1.3315   -0.3480   -0.6071 N   0  0  0  1  0  0  0  0  0  0  0  0
    1.1221   -1.5056   -3.6434 C   0  0  0  1  0  0  0  0  0  0  0  0
   -0.2136   -1.5913   -3.9879 C   0  0  0  1  0  0  0  0  0  0  0  0
    1.4236   -3.8103   -4.2304 C   0  0  0  1  0  0  0  0  0  0  0  0
    1.9414   -2.6174   -3.7623 C   0  0  0  1  0  0  0  0  0  0  0  0
    0.0839   -3.8964   -4.5760 C   0  0  0  1  0  0  0  0  0  0  0  0
   -0.7328   -2.7877   -4.4574 C   0  0  0  1  0  0  0  0  0  0  0  0
    1.3584    0.4627    2.9547 C   0  0  0  1  0  0  0  0  0  0  0  0
    0.6038   -0.2689    4.0590 C   0  0  0  1  0  0  0  0  0  0  0  0
   -0.8229    0.2508    3.9136 C   0  0  0  1  0  0  0  0  0  0  0  0
   -1.5707    2.6364    3.5663 C   0  0  0  1  0  0  0  0  0  0  0  0
    2.1121    1.5308    0.4885 N   0  0  0  1  0  0  0  0  0  0  0  0
    2.3201    1.4059   -1.8384 C   0  0  0  1  0  0  0  0  0  0  0  0
    1.7026    0.1395   -1.7846 C   0  0  0  1  0  0  0  0  0  0  0  0
    1.6370   -0.3040   -3.0765 N   0  0  0  1  0  0  0  0  0  0  0  0
    2.5976    1.6723   -3.1334 N   0  0  0  1  0  0  0  0  0  0  0  0
    2.2112    0.6949   -3.8771 N   0  0  0  1  0  0  0  0  0  0  0  0
   -0.3100   -5.1151   -5.0160 O   0  0  0  1  0  0  0  0  0  0  0  0
    1.1482   -0.1836    1.6709 N   0  0  0  1  0  0  0  0  0  0  0  0
   -1.6701   -5.2449   -5.4583 C   0  0  0  1  0  0  0  0  0  0  0  0
   -0.6062    1.6490    3.4848 N   0  0  0  1  0  0  0  0  0  0  0  0
    0.7531    1.8725    2.9605 C   0  0  0  1  0  0  0  0  0  0  0  0
   -1.3386    3.8936    3.0399 C   0  0  0  1  0  0  0  0  0  0  0  0
   -2.3313    4.8497    3.1397 C   0  0  0  1  0  0  0  0  0  0  0  0
   -3.5119    4.6249    3.7245 N   0  0  0  1  0  0  0  0  0  0  0  0
   -3.7218    3.4029    4.2344 C   0  0  0  1  0  0  0  0  0  0  0  0
   -2.7849    2.3860    4.1753 C   0  0  0  1  0  0  0  0  0  0  0  0
    2.9654    3.0319   -0.6278 H   0  0  0  1  0  0  0  0  0  0  0  0
   -0.8292   -0.7582   -3.8949 H   0  0  0  1  0  0  0  0  0  0  0  0
    2.0392   -4.6434   -4.3235 H   0  0  0  1  0  0  0  0  0  0  0  0
    2.9456   -2.5540   -3.4992 H   0  0  0  1  0  0  0  0  0  0  0  0
   -1.7370   -2.8512   -4.7204 H   0  0  0  1  0  0  0  0  0  0  0  0
    2.4060    0.4981    3.1695 H   0  0  0  1  0  0  0  0  0  0  0  0
    0.6424   -1.3281    3.9126 H   0  0  0  1  0  0  0  0  0  0  0  0
    1.0035   -0.0265    5.0215 H   0  0  0  1  0  0  0  0  0  0  0  0
   -1.3477    0.2081    4.8451 H   0  0  0  1  0  0  0  0  0  0  0  0
   -1.3631   -0.3021    3.1737 H   0  0  0  1  0  0  0  0  0  0  0  0
    0.6964   -1.0532    1.6610 H   0  0  0  1  0  0  0  0  0  0  0  0
   -1.8781   -4.4995   -6.1973 H   0  0  0  1  0  0  0  0  0  0  0  0
   -2.3296   -5.1151   -4.6258 H   0  0  0  1  0  0  0  0  0  0  0  0
   -1.8161   -6.2168   -5.8815 H   0  0  0  1  0  0  0  0  0  0  0  0
    1.3087    2.5265    3.5997 H   0  0  0  1  0  0  0  0  0  0  0  0
    0.7214    2.2811    1.9721 H   0  0  0  1  0  0  0  0  0  0  0  0
   -0.4338    4.1156    2.5775 H   0  0  0  1  0  0  0  0  0  0  0  0
   -2.1506    5.7923    2.7393 H   0  0  0  1  0  0  0  0  0  0  0  0
   -4.6330    3.2098    4.6970 H   0  0  0  1  0  0  0  0  0  0  0  0
   -2.9912    1.4512    4.5816 H   0  0  0  1  0  0  0  0  0  0  0  0
  1  3  4  0  0  0  0
  1 14  4  0  0  0  0
  1 21  1  0  0  0  0
  2 14  4  0  0  0  0
  2 15  4  0  0  0  0
  2 30  1  0  0  0  0
  3 16  4  0  0  0  0
  4  5  4  0  0  0  0
  4  7  4  0  0  0  0
  4 17  1  0  0  0  0
  5  9  4  0  0  0  0
  5 31  1  0  0  0  0
  6  7  4  0  0  0  0
  6  8  4  0  0  0  0
  6 32  1  0  0  0  0
  7 33  1  0  0  0  0
  8  9  4  0  0  0  0
  8 20  1  0  0  0  0
  9 34  1  0  0  0  0
 10 11  1  0  0  0  0
 10 21  1  0  0  0  0
 10 24  1  0  0  0  0
 10 35  1  0  0  0  0
 11 12  1  0  0  0  0
 11 36  1  0  0  0  0
 11 37  1  0  0  0  0
 12 23  1  0  0  0  0
 12 38  1  0  0  0  0
 12 39  1  0  0  0  0
 13 23  1  0  0  0  0
 13 25  4  0  0  0  0
 13 29  4  0  0  0  0
 15 16  4  0  0  0  0
 15 18  4  0  0  0  0
 16 17  4  0  0  0  0
 17 19  4  0  0  0  0
 18 19  4  0  0  0  0
 20 22  1  0  0  0  0
 21 40  1  0  0  0  0
 22 41  1  0  0  0  0
 22 42  1  0  0  0  0
 22 43  1  0  0  0  0
 23 24  1  0  0  0  0
 24 44  1  0  0  0  0
 24 45  1  0  0  0  0
 25 26  4  0  0  0  0
 25 46  1  0  0  0  0
 26 27  4  0  0  0  0
 26 47  1  0  0  0  0
 27 28  4  0  0  0  0
 28 29  4  0  0  0  0
 28 48  1  0  0  0  0
 29 49  1  0  0  0  0
M  END
> <ConfClashScore>
0 

> <ConfOneFourInteractionScore>
-0.99264 

> <ConfScore>
0.0586966 

> <ConfScorePBest>
0.00290017 

> <ConfTolerance>
0.878215 

> <HETNAM>
     OWQ A 303  OWQ                                                       

> <pdb_OW>
Q_303 -16.5129 3.80749 7.62812 0.15963 1.39178 -0.28144 -3.20151 0 0 0 -1.30514 0 0 0 0 0 0 0 0 -8.31393

$$$$
6yky_lig_1.pdb
 OpenBabel04162415593D

 49 53  0  0  0  0  0  0  0  0999 V2000
   -0.1444   -0.1498    0.3161 C   0  0  0  1  0  0  0  0  0  0  0  0
   -1.8668   -0.3774   -1.1974 C   0  0  0  1  0  0  0  0  0  0  0  0
    0.7546   -0.6030   -0.5308 N   0  0  0  1  0  0  0  0  0  0  0  0
    2.4360   -1.7809   -3.0584 C   0  0  0  1  0  0  0  0  0  0  0  0
    3.1077   -1.0867   -4.0468 C   0  0  0  1  0  0  0  0  0  0  0  0
    4.3794   -3.1340   -2.6848 C   0  0  0  1  0  0  0  0  0  0  0  0
    3.0718   -2.8079   -2.3782 C   0  0  0  1  0  0  0  0  0  0  0  0
    5.0533   -2.4378   -3.6762 C   0  0  0  1  0  0  0  0  0  0  0  0
    4.4192   -1.4139   -4.3543 C   0  0  0  1  0  0  0  0  0  0  0  0
   -0.6072    0.7363    2.6112 C   0  0  0  1  0  0  0  0  0  0  0  0
   -1.6430   -0.2957    3.0307 C   0  0  0  1  0  0  0  0  0  0  0  0
   -2.7346    0.5521    3.6590 C   0  0  0  1  0  0  0  0  0  0  0  0
   -3.7346    2.7291    2.8247 C   0  0  0  1  0  0  0  0  0  0  0  0
   -1.4223   -0.0372   -0.0013 N   0  0  0  1  0  0  0  0  0  0  0  0
   -0.9532   -0.8659   -2.1383 C   0  0  0  1  0  0  0  0  0  0  0  0
    0.4002   -0.9692   -1.7564 C   0  0  0  1  0  0  0  0  0  0  0  0
    1.0629   -1.4659   -2.8446 N   0  0  0  1  0  0  0  0  0  0  0  0
   -1.0529   -1.2951   -3.4153 N   0  0  0  1  0  0  0  0  0  0  0  0
    0.1047   -1.6507   -3.8525 N   0  0  0  1  0  0  0  0  0  0  0  0
    6.3170   -2.7074   -4.0239 O   0  0  0  1  0  0  0  0  0  0  0  0
    0.2479    0.2104    1.5433 N   0  0  0  1  0  0  0  0  0  0  0  0
    7.1216   -3.6973   -3.2989 C   0  0  0  1  0  0  0  0  0  0  0  0
   -2.6959    1.7869    2.8620 N   0  0  0  1  0  0  0  0  0  0  0  0
   -1.4392    1.9177    2.1082 C   0  0  0  1  0  0  0  0  0  0  0  0
   -4.8702    2.6336    2.0417 C   0  0  0  1  0  0  0  0  0  0  0  0
   -5.8135    3.6410    2.1133 C   0  0  0  1  0  0  0  0  0  0  0  0
   -5.6859    4.7125    2.9018 N   0  0  0  1  0  0  0  0  0  0  0  0
   -4.5780    4.7943    3.6522 C   0  0  0  1  0  0  0  0  0  0  0  0
   -3.5853    3.8300    3.6453 C   0  0  0  1  0  0  0  0  0  0  0  0
   -2.8749   -0.2842   -1.4353 H   0  0  0  1  0  0  0  0  0  0  0  0
    2.6293   -0.3190   -4.5599 H   0  0  0  1  0  0  0  0  0  0  0  0
    4.8579   -3.9018   -2.1717 H   0  0  0  1  0  0  0  0  0  0  0  0
    2.5650   -3.3328   -1.6372 H   0  0  0  1  0  0  0  0  0  0  0  0
    4.9260   -0.8889   -5.0953 H   0  0  0  1  0  0  0  0  0  0  0  0
   -0.0011    1.0260    3.4440 H   0  0  0  1  0  0  0  0  0  0  0  0
   -2.0140   -0.8343    2.1838 H   0  0  0  1  0  0  0  0  0  0  0  0
   -1.2342   -0.9840    3.7406 H   0  0  0  1  0  0  0  0  0  0  0  0
   -2.5211    0.7523    4.6882 H   0  0  0  1  0  0  0  0  0  0  0  0
   -3.6877    0.0726    3.5786 H   0  0  0  1  0  0  0  0  0  0  0  0
    1.2012    0.1130    1.7485 H   0  0  0  1  0  0  0  0  0  0  0  0
    6.7018   -4.6714   -3.4402 H   0  0  0  1  0  0  0  0  0  0  0  0
    7.1254   -3.4587   -2.2559 H   0  0  0  1  0  0  0  0  0  0  0  0
    8.1243   -3.6838   -3.6721 H   0  0  0  1  0  0  0  0  0  0  0  0
   -1.6137    1.8436    1.0551 H   0  0  0  1  0  0  0  0  0  0  0  0
   -0.9562    2.8475    2.3255 H   0  0  0  1  0  0  0  0  0  0  0  0
   -5.0118    1.8191    1.4109 H   0  0  0  1  0  0  0  0  0  0  0  0
   -6.6662    3.5612    1.5234 H   0  0  0  1  0  0  0  0  0  0  0  0
   -4.4587    5.6227    4.2696 H   0  0  0  1  0  0  0  0  0  0  0  0
   -2.7429    3.9324    4.2465 H   0  0  0  1  0  0  0  0  0  0  0  0
  1  3  4  0  0  0  0
  1 14  4  0  0  0  0
  1 21  1  0  0  0  0
  2 14  4  0  0  0  0
  2 15  4  0  0  0  0
  2 30  1  0  0  0  0
  3 16  4  0  0  0  0
  4  5  4  0  0  0  0
  4  7  4  0  0  0  0
  4 17  1  0  0  0  0
  5  9  4  0  0  0  0
  5 31  1  0  0  0  0
  6  7  4  0  0  0  0
  6  8  4  0  0  0  0
  6 32  1  0  0  0  0
  7 33  1  0  0  0  0
  8  9  4  0  0  0  0
  8 20  1  0  0  0  0
  9 34  1  0  0  0  0
 10 11  1  0  0  0  0
 10 21  1  0  0  0  0
 10 24  1  0  0  0  0
 10 35  1  0  0  0  0
 11 12  1  0  0  0  0
 11 36  1  0  0  0  0
 11 37  1  0  0  0  0
 12 23  1  0  0  0  0
 12 38  1  0  0  0  0
 12 39  1  0  0  0  0
 13 23  1  0  0  0  0
 13 25  4  0  0  0  0
 13 29  4  0  0  0  0
 15 16  4  0  0  0  0
 15 18  4  0  0  0  0
 16 17  4  0  0  0  0
 17 19  4  0  0  0  0
 18 19  4  0  0  0  0
 20 22  1  0  0  0  0
 21 40  1  0  0  0  0
 22 41  1  0  0  0  0
 22 42  1  0  0  0  0
 22 43  1  0  0  0  0
 23 24  1  0  0  0  0
 24 44  1  0  0  0  0
 24 45  1  0  0  0  0
 25 26  4  0  0  0  0
 25 46  1  0  0  0  0
 26 27  4  0  0  0  0
 26 47  1  0  0  0  0
 27 28  4  0  0  0  0
 28 29  4  0  0  0  0
 28 48  1  0  0  0  0
 29 49  1  0  0  0  0
M  END
> <ConfClashScore>
0 

> <ConfOneFourInteractionScore>
-0.983503 

> <ConfScore>
0.0587446 

> <ConfScorePBest>
0.00288684 

> <ConfTolerance>
0.501106 

> <HETNAM>
     OWQ A 303  OWQ                                                       

> <pdb_OW>
Q_303 -16.5129 3.80749 7.62812 0.15963 1.39178 -0.28144 -3.20151 0 0 0 -1.30514 0 0 0 0 0 0 0 0 -8.31393

$$$$
6yky_lig_1.pdb
 OpenBabel04162415593D

 49 53  0  0  0  0  0  0  0  0999 V2000
   -0.2100   -0.5023    0.2752 C   0  0  0  1  0  0  0  0  0  0  0  0
   -1.9870   -1.1358   -1.0478 C   0  0  0  1  0  0  0  0  0  0  0  0
    0.6786   -0.8301   -0.6378 N   0  0  0  1  0  0  0  0  0  0  0  0
    2.3063   -1.8415   -3.3125 C   0  0  0  1  0  0  0  0  0  0  0  0
    3.1764   -2.4678   -2.4402 C   0  0  0  1  0  0  0  0  0  0  0  0
    4.1447   -1.2754   -4.7433 C   0  0  0  1  0  0  0  0  0  0  0  0
    2.7914   -1.2421   -4.4644 C   0  0  0  1  0  0  0  0  0  0  0  0
    5.0175   -1.9035   -3.8685 C   0  0  0  1  0  0  0  0  0  0  0  0
    4.5337   -2.5011   -2.7200 C   0  0  0  1  0  0  0  0  0  0  0  0
   -0.6669    0.5469    2.4686 C   0  0  0  1  0  0  0  0  0  0  0  0
   -1.7159   -0.4962    2.9437 C   0  0  0  1  0  0  0  0  0  0  0  0
   -2.9600    0.2817    3.4214 C   0  0  0  1  0  0  0  0  0  0  0  0
   -3.5576    2.7474    3.0810 C   0  0  0  1  0  0  0  0  0  0  0  0
   -1.5093   -0.6483    0.0828 N   0  0  0  1  0  0  0  0  0  0  0  0
   -1.0858   -1.5012   -2.0542 C   0  0  0  1  0  0  0  0  0  0  0  0
    0.2913   -1.3282   -1.8056 C   0  0  0  1  0  0  0  0  0  0  0  0
    0.9355   -1.7569   -2.9331 N   0  0  0  1  0  0  0  0  0  0  0  0
   -1.2168   -2.0168   -3.2960 N   0  0  0  1  0  0  0  0  0  0  0  0
   -0.0570   -2.1764   -3.8316 N   0  0  0  1  0  0  0  0  0  0  0  0
    6.3320   -1.8671   -4.2475 O   0  0  0  1  0  0  0  0  0  0  0  0
    0.2179   -0.0002    1.4475 N   0  0  0  1  0  0  0  0  0  0  0  0
    7.1812   -2.6825   -3.4070 C   0  0  0  1  0  0  0  0  0  0  0  0
   -2.7597    1.6276    2.8135 N   0  0  0  1  0  0  0  0  0  0  0  0
   -1.6102    1.6214    1.8940 C   0  0  0  1  0  0  0  0  0  0  0  0
   -3.3794    3.4790    4.2406 C   0  0  0  1  0  0  0  0  0  0  0  0
   -4.1858    4.5790    4.4630 C   0  0  0  1  0  0  0  0  0  0  0  0
   -5.1381    4.9758    3.6134 N   0  0  0  1  0  0  0  0  0  0  0  0
   -5.3029    4.2547    2.4953 C   0  0  0  1  0  0  0  0  0  0  0  0
   -4.5378    3.1422    2.1916 C   0  0  0  1  0  0  0  0  0  0  0  0
   -3.0117   -1.2460   -1.1873 H   0  0  0  1  0  0  0  0  0  0  0  0
    2.8129   -2.9140   -1.5740 H   0  0  0  1  0  0  0  0  0  0  0  0
    4.5082   -0.8291   -5.6095 H   0  0  0  1  0  0  0  0  0  0  0  0
    2.1371   -0.7674   -5.1187 H   0  0  0  1  0  0  0  0  0  0  0  0
    5.1879   -2.9758   -2.0657 H   0  0  0  1  0  0  0  0  0  0  0  0
   -0.0832    0.9236    3.2824 H   0  0  0  1  0  0  0  0  0  0  0  0
   -1.3158   -1.0755    3.7495 H   0  0  0  1  0  0  0  0  0  0  0  0
   -1.9791   -1.1443    2.1341 H   0  0  0  1  0  0  0  0  0  0  0  0
   -2.9906    0.3418    4.4893 H   0  0  0  1  0  0  0  0  0  0  0  0
   -3.8599   -0.1730    3.0633 H   0  0  0  1  0  0  0  0  0  0  0  0
    1.1816   -0.0024    1.6257 H   0  0  0  1  0  0  0  0  0  0  0  0
    8.1694   -2.7091   -3.8165 H   0  0  0  1  0  0  0  0  0  0  0  0
    6.7879   -3.6765   -3.3604 H   0  0  0  1  0  0  0  0  0  0  0  0
    7.2146   -2.2651   -2.4223 H   0  0  0  1  0  0  0  0  0  0  0  0
   -1.9195    1.3628    0.9028 H   0  0  0  1  0  0  0  0  0  0  0  0
   -1.1309    2.5779    1.8804 H   0  0  0  1  0  0  0  0  0  0  0  0
   -2.6522    3.2067    4.9324 H   0  0  0  1  0  0  0  0  0  0  0  0
   -4.0443    5.1260    5.3362 H   0  0  0  1  0  0  0  0  0  0  0  0
   -6.0416    4.5455    1.8235 H   0  0  0  1  0  0  0  0  0  0  0  0
   -4.6978    2.6136    1.3103 H   0  0  0  1  0  0  0  0  0  0  0  0
  1  3  4  0  0  0  0
  1 14  4  0  0  0  0
  1 21  1  0  0  0  0
  2 14  4  0  0  0  0
  2 15  4  0  0  0  0
  2 30  1  0  0  0  0
  3 16  4  0  0  0  0
  4  5  4  0  0  0  0
  4  7  4  0  0  0  0
  4 17  1  0  0  0  0
  5  9  4  0  0  0  0
  5 31  1  0  0  0  0
  6  7  4  0  0  0  0
  6  8  4  0  0  0  0
  6 32  1  0  0  0  0
  7 33  1  0  0  0  0
  8  9  4  0  0  0  0
  8 20  1  0  0  0  0
  9 34  1  0  0  0  0
 10 11  1  0  0  0  0
 10 21  1  0  0  0  0
 10 24  1  0  0  0  0
 10 35  1  0  0  0  0
 11 12  1  0  0  0  0
 11 36  1  0  0  0  0
 11 37  1  0  0  0  0
 12 23  1  0  0  0  0
 12 38  1  0  0  0  0
 12 39  1  0  0  0  0
 13 23  1  0  0  0  0
 13 25  4  0  0  0  0
 13 29  4  0  0  0  0
 15 16  4  0  0  0  0
 15 18  4  0  0  0  0
 16 17  4  0  0  0  0
 17 19  4  0  0  0  0
 18 19  4  0  0  0  0
 20 22  1  0  0  0  0
 21 40  1  0  0  0  0
 22 41  1  0  0  0  0
 22 42  1  0  0  0  0
 22 43  1  0  0  0  0
 23 24  1  0  0  0  0
 24 44  1  0  0  0  0
 24 45  1  0  0  0  0
 25 26  4  0  0  0  0
 25 46  1  0  0  0  0
 26 27  4  0  0  0  0
 26 47  1  0  0  0  0
 27 28  4  0  0  0  0
 28 29  4  0  0  0  0
 28 48  1  0  0  0  0
 29 49  1  0  0  0  0
M  END
> <ConfClashScore>
0 

> <ConfOneFourInteractionScore>
-0.983503 

> <ConfScore>
0.0587446 

> <ConfScorePBest>
0.00287351 

> <ConfTolerance>
0.448156 

> <HETNAM>
     OWQ A 303  OWQ                                                       

> <pdb_OW>
Q_303 -16.5129 3.80749 7.62812 0.15963 1.39178 -0.28144 -3.20151 0 0 0 -1.30514 0 0 0 0 0 0 0 0 -8.31393

$$$$
6yky_lig_1.pdb
 OpenBabel04162415593D

 49 53  0  0  0  0  0  0  0  0999 V2000
    1.0297   -0.7163    0.9956 C   0  0  0  1  0  0  0  0  0  0  0  0
    1.6549   -2.7426    1.8970 C   0  0  0  1  0  0  0  0  0  0  0  0
    1.0666   -1.1728   -0.2377 N   0  0  0  1  0  0  0  0  0  0  0  0
    1.3324   -2.8486   -2.9704 C   0  0  0  1  0  0  0  0  0  0  0  0
    1.3621   -3.8252   -3.9480 C   0  0  0  1  0  0  0  0  0  0  0  0
    1.1016   -1.1623   -4.6587 C   0  0  0  1  0  0  0  0  0  0  0  0
    1.2046   -1.5150   -3.3263 C   0  0  0  1  0  0  0  0  0  0  0  0
    1.1313   -2.1416   -5.6393 C   0  0  0  1  0  0  0  0  0  0  0  0
    1.2588   -3.4713   -5.2842 C   0  0  0  1  0  0  0  0  0  0  0  0
    0.5924    1.2935    2.4682 C   0  0  0  1  0  0  0  0  0  0  0  0
   -0.2547    0.5031    3.4656 C   0  0  0  1  0  0  0  0  0  0  0  0
   -1.6776    1.0446    3.2465 C   0  0  0  1  0  0  0  0  0  0  0  0
   -2.1476    3.5191    3.5926 C   0  0  0  1  0  0  0  0  0  0  0  0
    1.3148   -1.4745    2.0397 N   0  0  0  1  0  0  0  0  0  0  0  0
    1.7101   -3.2808    0.6062 C   0  0  0  1  0  0  0  0  0  0  0  0
    1.3980   -2.4354   -0.4783 C   0  0  0  1  0  0  0  0  0  0  0  0
    1.5285   -3.2011   -1.6038 N   0  0  0  1  0  0  0  0  0  0  0  0
    2.0106   -4.4983    0.1040 N   0  0  0  1  0  0  0  0  0  0  0  0
    1.9134   -4.4818   -1.1797 N   0  0  0  1  0  0  0  0  0  0  0  0
    1.0278   -1.6767   -6.9070 O   0  0  0  1  0  0  0  0  0  0  0  0
    0.6911    0.5631    1.2019 N   0  0  0  1  0  0  0  0  0  0  0  0
    1.0730   -2.6448   -7.9668 C   0  0  0  1  0  0  0  0  0  0  0  0
   -1.3711    2.4680    3.0629 N   0  0  0  1  0  0  0  0  0  0  0  0
   -0.1298    2.6686    2.2423 C   0  0  0  1  0  0  0  0  0  0  0  0
   -3.2015    4.0503    2.8724 C   0  0  0  1  0  0  0  0  0  0  0  0
   -3.8786    5.1383    3.3896 C   0  0  0  1  0  0  0  0  0  0  0  0
   -3.5662    5.7116    4.5558 N   0  0  0  1  0  0  0  0  0  0  0  0
   -2.5396    5.1891    5.2415 C   0  0  0  1  0  0  0  0  0  0  0  0
   -1.8099    4.0992    4.7998 C   0  0  0  1  0  0  0  0  0  0  0  0
    1.8770   -3.3292    2.7265 H   0  0  0  1  0  0  0  0  0  0  0  0
    1.4620   -4.8253   -3.6811 H   0  0  0  1  0  0  0  0  0  0  0  0
    1.0016   -0.1621   -4.9256 H   0  0  0  1  0  0  0  0  0  0  0  0
    1.1863   -0.7799   -2.5908 H   0  0  0  1  0  0  0  0  0  0  0  0
    1.2771   -4.2064   -6.0197 H   0  0  0  1  0  0  0  0  0  0  0  0
    1.5729    1.4543    2.8651 H   0  0  0  1  0  0  0  0  0  0  0  0
   -0.2095   -0.5455    3.2573 H   0  0  0  1  0  0  0  0  0  0  0  0
    0.0713    0.6823    4.4688 H   0  0  0  1  0  0  0  0  0  0  0  0
   -2.3032    0.8781    4.0984 H   0  0  0  1  0  0  0  0  0  0  0  0
   -2.1365    0.6203    2.3780 H   0  0  0  1  0  0  0  0  0  0  0  0
    0.4809    1.0807    0.3967 H   0  0  0  1  0  0  0  0  0  0  0  0
    0.9858   -2.1466   -8.9097 H   0  0  0  1  0  0  0  0  0  0  0  0
    0.2642   -3.3360   -7.8528 H   0  0  0  1  0  0  0  0  0  0  0  0
    2.0026   -3.1732   -7.9275 H   0  0  0  1  0  0  0  0  0  0  0  0
    0.4561    3.4862    2.6070 H   0  0  0  1  0  0  0  0  0  0  0  0
   -0.3612    2.8275    1.2098 H   0  0  0  1  0  0  0  0  0  0  0  0
   -3.4794    3.6389    1.9585 H   0  0  0  1  0  0  0  0  0  0  0  0
   -4.6718    5.5309    2.8436 H   0  0  0  1  0  0  0  0  0  0  0  0
   -2.2788    5.6238    6.1495 H   0  0  0  1  0  0  0  0  0  0  0  0
   -1.0222    3.7242    5.3660 H   0  0  0  1  0  0  0  0  0  0  0  0
  1  3  4  0  0  0  0
  1 14  4  0  0  0  0
  1 21  1  0  0  0  0
  2 14  4  0  0  0  0
  2 15  4  0  0  0  0
  2 30  1  0  0  0  0
  3 16  4  0  0  0  0
  4  5  4  0  0  0  0
  4  7  4  0  0  0  0
  4 17  1  0  0  0  0
  5  9  4  0  0  0  0
  5 31  1  0  0  0  0
  6  7  4  0  0  0  0
  6  8  4  0  0  0  0
  6 32  1  0  0  0  0
  7 33  1  0  0  0  0
  8  9  4  0  0  0  0
  8 20  1  0  0  0  0
  9 34  1  0  0  0  0
 10 11  1  0  0  0  0
 10 21  1  0  0  0  0
 10 24  1  0  0  0  0
 10 35  1  0  0  0  0
 11 12  1  0  0  0  0
 11 36  1  0  0  0  0
 11 37  1  0  0  0  0
 12 23  1  0  0  0  0
 12 38  1  0  0  0  0
 12 39  1  0  0  0  0
 13 23  1  0  0  0  0
 13 25  4  0  0  0  0
 13 29  4  0  0  0  0
 15 16  4  0  0  0  0
 15 18  4  0  0  0  0
 16 17  4  0  0  0  0
 17 19  4  0  0  0  0
 18 19  4  0  0  0  0
 20 22  1  0  0  0  0
 21 40  1  0  0  0  0
 22 41  1  0  0  0  0
 22 42  1  0  0  0  0
 22 43  1  0  0  0  0
 23 24  1  0  0  0  0
 24 44  1  0  0  0  0
 24 45  1  0  0  0  0
 25 26  4  0  0  0  0
 25 46  1  0  0  0  0
 26 27  4  0  0  0  0
 26 47  1  0  0  0  0
 27 28  4  0  0  0  0
 28 29  4  0  0  0  0
 28 48  1  0  0  0  0
 29 49  1  0  0  0  0
M  END
> <ConfClashScore>
0 

> <ConfOneFourInteractionScore>
-0.987833 

> <ConfScore>
0.059758 

> <ConfScorePBest>
0.00286018 

> <ConfTolerance>
0.558938 

> <HETNAM>
     OWQ A 303  OWQ                                                       

> <pdb_OW>
Q_303 -16.5129 3.80749 7.62812 0.15963 1.39178 -0.28144 -3.20151 0 0 0 -1.30514 0 0 0 0 0 0 0 0 -8.31393

$$$$
6yky_lig_1.pdb
 OpenBabel04162415593D

 49 53  0  0  0  0  0  0  0  0999 V2000
    1.5824   -0.5126    1.0470 C   0  0  0  1  0  0  0  0  0  0  0  0
    2.4262   -2.5026    1.8454 C   0  0  0  1  0  0  0  0  0  0  0  0
    1.2947   -1.0247   -0.1302 N   0  0  0  1  0  0  0  0  0  0  0  0
    0.8452   -2.8765   -2.7706 C   0  0  0  1  0  0  0  0  0  0  0  0
    0.7730   -1.5866   -3.2615 C   0  0  0  1  0  0  0  0  0  0  0  0
   -0.2947   -3.6842   -4.7189 C   0  0  0  1  0  0  0  0  0  0  0  0
    0.3083   -3.9266   -3.4990 C   0  0  0  1  0  0  0  0  0  0  0  0
   -0.3672   -2.3904   -5.2114 C   0  0  0  1  0  0  0  0  0  0  0  0
    0.1683   -1.3436   -4.4849 C   0  0  0  1  0  0  0  0  0  0  0  0
    1.5571    1.4200    2.5694 C   0  0  0  1  0  0  0  0  0  0  0  0
    0.8170    0.6838    3.6820 C   0  0  0  1  0  0  0  0  0  0  0  0
   -0.6006    1.2270    3.5799 C   0  0  0  1  0  0  0  0  0  0  0  0
   -1.4099    3.5469    3.0335 C   0  0  0  1  0  0  0  0  0  0  0  0
    2.1333   -1.2258    2.0136 N   0  0  0  1  0  0  0  0  0  0  0  0
    2.1413   -3.0990    0.6119 C   0  0  0  1  0  0  0  0  0  0  0  0
    1.5536   -2.3003   -0.3906 C   0  0  0  1  0  0  0  0  0  0  0  0
    1.3852   -3.1173   -1.4742 N   0  0  0  1  0  0  0  0  0  0  0  0
    2.3015   -4.3410    0.1053 N   0  0  0  1  0  0  0  0  0  0  0  0
    1.8703   -4.3815   -1.1072 N   0  0  0  1  0  0  0  0  0  0  0  0
   -0.9358   -2.0313   -6.3868 O   0  0  0  1  0  0  0  0  0  0  0  0
    1.3025    0.8022    1.2797 N   0  0  0  1  0  0  0  0  0  0  0  0
   -1.5496   -3.0715   -7.1637 C   0  0  0  1  0  0  0  0  0  0  0  0
   -0.4125    2.5965    3.0767 N   0  0  0  1  0  0  0  0  0  0  0  0
    0.9724    2.8305    2.6238 C   0  0  0  1  0  0  0  0  0  0  0  0
   -1.0781    4.8260    2.6266 C   0  0  0  1  0  0  0  0  0  0  0  0
   -2.0709    5.7859    2.5758 C   0  0  0  1  0  0  0  0  0  0  0  0
   -3.3438    5.5445    2.9038 N   0  0  0  1  0  0  0  0  0  0  0  0
   -3.6506    4.3013    3.3007 C   0  0  0  1  0  0  0  0  0  0  0  0
   -2.7206    3.2793    3.3773 C   0  0  0  1  0  0  0  0  0  0  0  0
    2.8597   -3.0534    2.6138 H   0  0  0  1  0  0  0  0  0  0  0  0
    1.1723   -0.7983   -2.7131 H   0  0  0  1  0  0  0  0  0  0  0  0
   -0.6940   -4.4725   -5.2673 H   0  0  0  1  0  0  0  0  0  0  0  0
    0.3591   -4.8967   -3.1277 H   0  0  0  1  0  0  0  0  0  0  0  0
    0.1175   -0.3735   -4.8562 H   0  0  0  1  0  0  0  0  0  0  0  0
    2.6106    1.4355    2.7563 H   0  0  0  1  0  0  0  0  0  0  0  0
    0.8347   -0.3736    3.5192 H   0  0  0  1  0  0  0  0  0  0  0  0
    1.2441    0.9052    4.6378 H   0  0  0  1  0  0  0  0  0  0  0  0
   -1.0764    1.2345    4.5382 H   0  0  0  1  0  0  0  0  0  0  0  0
   -1.1837    0.6460    2.8962 H   0  0  0  1  0  0  0  0  0  0  0  0
    0.9198    1.3437    0.5582 H   0  0  0  1  0  0  0  0  0  0  0  0
   -2.3927   -3.4629   -6.6337 H   0  0  0  1  0  0  0  0  0  0  0  0
   -0.8407   -3.8547   -7.3340 H   0  0  0  1  0  0  0  0  0  0  0  0
   -1.8727   -2.6720   -8.1022 H   0  0  0  1  0  0  0  0  0  0  0  0
    1.5069    3.4420    3.3204 H   0  0  0  1  0  0  0  0  0  0  0  0
    0.9888    3.2912    1.6582 H   0  0  0  1  0  0  0  0  0  0  0  0
   -0.0997    5.0613    2.3638 H   0  0  0  1  0  0  0  0  0  0  0  0
   -1.8144    6.7451    2.2664 H   0  0  0  1  0  0  0  0  0  0  0  0
   -4.6353    4.0948    3.5639 H   0  0  0  1  0  0  0  0  0  0  0  0
   -3.0032    2.3278    3.6878 H   0  0  0  1  0  0  0  0  0  0  0  0
  1  3  4  0  0  0  0
  1 14  4  0  0  0  0
  1 21  1  0  0  0  0
  2 14  4  0  0  0  0
  2 15  4  0  0  0  0
  2 30  1  0  0  0  0
  3 16  4  0  0  0  0
  4  5  4  0  0  0  0
  4  7  4  0  0  0  0
  4 17  1  0  0  0  0
  5  9  4  0  0  0  0
  5 31  1  0  0  0  0
  6  7  4  0  0  0  0
  6  8  4  0  0  0  0
  6 32  1  0  0  0  0
  7 33  1  0  0  0  0
  8  9  4  0  0  0  0
  8 20  1  0  0  0  0
  9 34  1  0  0  0  0
 10 11  1  0  0  0  0
 10 21  1  0  0  0  0
 10 24  1  0  0  0  0
 10 35  1  0  0  0  0
 11 12  1  0  0  0  0
 11 36  1  0  0  0  0
 11 37  1  0  0  0  0
 12 23  1  0  0  0  0
 12 38  1  0  0  0  0
 12 39  1  0  0  0  0
 13 23  1  0  0  0  0
 13 25  4  0  0  0  0
 13 29  4  0  0  0  0
 15 16  4  0  0  0  0
 15 18  4  0  0  0  0
 16 17  4  0  0  0  0
 17 19  4  0  0  0  0
 18 19  4  0  0  0  0
 20 22  1  0  0  0  0
 21 40  1  0  0  0  0
 22 41  1  0  0  0  0
 22 42  1  0  0  0  0
 22 43  1  0  0  0  0
 23 24  1  0  0  0  0
 24 44  1  0  0  0  0
 24 45  1  0  0  0  0
 25 26  4  0  0  0  0
 25 46  1  0  0  0  0
 26 27  4  0  0  0  0
 26 47  1  0  0  0  0
 27 28  4  0  0  0  0
 28 29  4  0  0  0  0
 28 48  1  0  0  0  0
 29 49  1  0  0  0  0
M  END
> <ConfClashScore>
0 

> <ConfOneFourInteractionScore>
-0.987833 

> <ConfScore>
0.0597797 

> <ConfScorePBest>
0.00284685 

> <ConfTolerance>
0.689163 

> <HETNAM>
     OWQ A 303  OWQ                                                       

> <pdb_OW>
Q_303 -16.5129 3.80749 7.62812 0.15963 1.39178 -0.28144 -3.20151 0 0 0 -1.30514 0 0 0 0 0 0 0 0 -8.31393

$$$$
6yky_lig_1.pdb
 OpenBabel04162415593D

 49 53  0  0  0  0  0  0  0  0999 V2000
    0.5650   -0.0724    0.8269 C   0  0  0  1  0  0  0  0  0  0  0  0
    2.1717    0.0551    2.4736 C   0  0  0  1  0  0  0  0  0  0  0  0
    1.4009   -0.5893   -0.0478 N   0  0  0  1  0  0  0  0  0  0  0  0
    3.9128   -1.9018   -1.6594 C   0  0  0  1  0  0  0  0  0  0  0  0
    5.1291   -1.7370   -2.2948 C   0  0  0  1  0  0  0  0  0  0  0  0
    3.0416   -2.9965   -3.6062 C   0  0  0  1  0  0  0  0  0  0  0  0
    2.8666   -2.5301   -2.3170 C   0  0  0  1  0  0  0  0  0  0  0  0
    4.2615   -2.8313   -4.2436 C   0  0  0  1  0  0  0  0  0  0  0  0
    5.3044   -2.2048   -3.5878 C   0  0  0  1  0  0  0  0  0  0  0  0
   -1.7210    0.6572    1.3898 C   0  0  0  1  0  0  0  0  0  0  0  0
   -2.7092   -0.4420    1.8114 C   0  0  0  1  0  0  0  0  0  0  0  0
   -3.9260    0.3857    2.2531 C   0  0  0  1  0  0  0  0  0  0  0  0
   -4.2141    2.9798    2.3127 C   0  0  0  1  0  0  0  0  0  0  0  0
    0.9331    0.2439    2.0561 N   0  0  0  1  0  0  0  0  0  0  0  0
    3.1030   -0.4923    1.5840 C   0  0  0  1  0  0  0  0  0  0  0  0
    2.6665   -0.8146    0.2826 C   0  0  0  1  0  0  0  0  0  0  0  0
    3.7574   -1.3229   -0.3667 N   0  0  0  1  0  0  0  0  0  0  0  0
    4.4129   -0.8118    1.6682 N   0  0  0  1  0  0  0  0  0  0  0  0
    4.8210   -1.2974    0.5478 N   0  0  0  1  0  0  0  0  0  0  0  0
    4.4634   -3.3663   -5.4711 O   0  0  0  1  0  0  0  0  0  0  0  0
   -0.7286    0.1456    0.4528 N   0  0  0  1  0  0  0  0  0  0  0  0
    3.4214   -4.1990   -6.0034 C   0  0  0  1  0  0  0  0  0  0  0  0
   -3.6376    1.7803    1.8025 N   0  0  0  1  0  0  0  0  0  0  0  0
   -2.6374    1.6687    0.7246 C   0  0  0  1  0  0  0  0  0  0  0  0
   -4.0526    4.1445    1.5854 C   0  0  0  1  0  0  0  0  0  0  0  0
   -4.6108    5.3126    2.0687 C   0  0  0  1  0  0  0  0  0  0  0  0
   -5.3012    5.3794    3.2111 N   0  0  0  1  0  0  0  0  0  0  0  0
   -5.4463    4.2436    3.9082 C   0  0  0  1  0  0  0  0  0  0  0  0
   -4.9241    3.0299    3.4964 C   0  0  0  1  0  0  0  0  0  0  0  0
    2.4492    0.3081    3.4435 H   0  0  0  1  0  0  0  0  0  0  0  0
    5.9126   -1.2620   -1.8028 H   0  0  0  1  0  0  0  0  0  0  0  0
    2.2581   -3.4714   -4.0982 H   0  0  0  1  0  0  0  0  0  0  0  0
    1.9502   -2.6504   -1.8403 H   0  0  0  1  0  0  0  0  0  0  0  0
    6.2209   -2.0844   -4.0644 H   0  0  0  1  0  0  0  0  0  0  0  0
   -1.2259    1.0808    2.2386 H   0  0  0  1  0  0  0  0  0  0  0  0
   -2.3210   -1.0262    2.6194 H   0  0  0  1  0  0  0  0  0  0  0  0
   -2.9516   -1.0841    0.9906 H   0  0  0  1  0  0  0  0  0  0  0  0
   -4.0368    0.3509    3.3168 H   0  0  0  1  0  0  0  0  0  0  0  0
   -4.8174    0.0186    1.7889 H   0  0  0  1  0  0  0  0  0  0  0  0
   -0.9977   -0.0467   -0.4697 H   0  0  0  1  0  0  0  0  0  0  0  0
    3.6440   -4.4430   -7.0212 H   0  0  0  1  0  0  0  0  0  0  0  0
    2.4890   -3.6760   -5.9581 H   0  0  0  1  0  0  0  0  0  0  0  0
    3.3547   -5.0984   -5.4276 H   0  0  0  1  0  0  0  0  0  0  0  0
   -2.1433    2.5982    0.5327 H   0  0  0  1  0  0  0  0  0  0  0  0
   -3.0612    1.2952   -0.1841 H   0  0  0  1  0  0  0  0  0  0  0  0
   -3.5210    4.1416    0.6915 H   0  0  0  1  0  0  0  0  0  0  0  0
   -4.4873    6.1844    1.5151 H   0  0  0  1  0  0  0  0  0  0  0  0
   -5.9772    4.2760    4.8019 H   0  0  0  1  0  0  0  0  0  0  0  0
   -5.0635    2.1719    4.0674 H   0  0  0  1  0  0  0  0  0  0  0  0
  1  3  4  0  0  0  0
  1 14  4  0  0  0  0
  1 21  1  0  0  0  0
  2 14  4  0  0  0  0
  2 15  4  0  0  0  0
  2 30  1  0  0  0  0
  3 16  4  0  0  0  0
  4  5  4  0  0  0  0
  4  7  4  0  0  0  0
  4 17  1  0  0  0  0
  5  9  4  0  0  0  0
  5 31  1  0  0  0  0
  6  7  4  0  0  0  0
  6  8  4  0  0  0  0
  6 32  1  0  0  0  0
  7 33  1  0  0  0  0
  8  9  4  0  0  0  0
  8 20  1  0  0  0  0
  9 34  1  0  0  0  0
 10 11  1  0  0  0  0
 10 21  1  0  0  0  0
 10 24  1  0  0  0  0
 10 35  1  0  0  0  0
 11 12  1  0  0  0  0
 11 36  1  0  0  0  0
 11 37  1  0  0  0  0
 12 23  1  0  0  0  0
 12 38  1  0  0  0  0
 12 39  1  0  0  0  0
 13 23  1  0  0  0  0
 13 25  4  0  0  0  0
 13 29  4  0  0  0  0
 15 16  4  0  0  0  0
 15 18  4  0  0  0  0
 16 17  4  0  0  0  0
 17 19  4  0  0  0  0
 18 19  4  0  0  0  0
 20 22  1  0  0  0  0
 21 40  1  0  0  0  0
 22 41  1  0  0  0  0
 22 42  1  0  0  0  0
 22 43  1  0  0  0  0
 23 24  1  0  0  0  0
 24 44  1  0  0  0  0
 24 45  1  0  0  0  0
 25 26  4  0  0  0  0
 25 46  1  0  0  0  0
 26 27  4  0  0  0  0
 26 47  1  0  0  0  0
 27 28  4  0  0  0  0
 28 29  4  0  0  0  0
 28 48  1  0  0  0  0
 29 49  1  0  0  0  0
M  END
> <ConfClashScore>
0 

> <ConfOneFourInteractionScore>
-0.986948 

> <ConfScore>
0.0598296 

> <ConfScorePBest>
0.00283353 

> <ConfTolerance>
0.444099 

> <HETNAM>
     OWQ A 303  OWQ                                                       

> <pdb_OW>
Q_303 -16.5129 3.80749 7.62812 0.15963 1.39178 -0.28144 -3.20151 0 0 0 -1.30514 0 0 0 0 0 0 0 0 -8.31393

$$$$
6yky_lig_1.pdb
 OpenBabel04162415593D

 49 53  0  0  0  0  0  0  0  0999 V2000
    0.4430    0.0661    0.7519 C   0  0  0  1  0  0  0  0  0  0  0  0
    1.5299    2.0978    0.7750 C   0  0  0  1  0  0  0  0  0  0  0  0
    1.2447   -0.4328   -0.1642 N   0  0  0  1  0  0  0  0  0  0  0  0
    3.4605   -0.9675   -2.5180 C   0  0  0  1  0  0  0  0  0  0  0  0
    3.2293   -2.2783   -2.1457 C   0  0  0  1  0  0  0  0  0  0  0  0
    4.3455   -1.7171   -4.6161 C   0  0  0  1  0  0  0  0  0  0  0  0
    4.0219   -0.6865   -3.7539 C   0  0  0  1  0  0  0  0  0  0  0  0
    4.1137   -3.0318   -4.2429 C   0  0  0  1  0  0  0  0  0  0  0  0
    3.5540   -3.3118   -3.0106 C   0  0  0  1  0  0  0  0  0  0  0  0
   -1.4273   -0.1636    2.2918 C   0  0  0  1  0  0  0  0  0  0  0  0
   -2.4840   -1.1881    2.7896 C   0  0  0  1  0  0  0  0  0  0  0  0
   -3.7027   -0.3884    3.2961 C   0  0  0  1  0  0  0  0  0  0  0  0
   -4.2645    2.0903    2.9722 C   0  0  0  1  0  0  0  0  0  0  0  0
    0.5757    1.2971    1.2140 N   0  0  0  1  0  0  0  0  0  0  0  0
    2.4116    1.6182   -0.2003 C   0  0  0  1  0  0  0  0  0  0  0  0
    2.2328    0.2989   -0.6644 C   0  0  0  1  0  0  0  0  0  0  0  0
    3.2116    0.0903   -1.5964 N   0  0  0  1  0  0  0  0  0  0  0  0
    3.4691    2.1440   -0.8563 N   0  0  0  1  0  0  0  0  0  0  0  0
    3.9548    1.2776   -1.6754 N   0  0  0  1  0  0  0  0  0  0  0  0
    4.3930   -4.1206   -4.9982 O   0  0  0  1  0  0  0  0  0  0  0  0
   -0.5759   -0.7252    1.2504 N   0  0  0  1  0  0  0  0  0  0  0  0
    5.0556   -3.8966   -6.2526 C   0  0  0  1  0  0  0  0  0  0  0  0
   -3.4918    0.9544    2.6851 N   0  0  0  1  0  0  0  0  0  0  0  0
   -2.3637    0.9286    1.7397 C   0  0  0  1  0  0  0  0  0  0  0  0
   -5.2862    2.0312    3.9019 C   0  0  0  1  0  0  0  0  0  0  0  0
   -6.0196    3.1742    4.1571 C   0  0  0  1  0  0  0  0  0  0  0  0
   -5.7958    4.3424    3.5475 N   0  0  0  1  0  0  0  0  0  0  0  0
   -4.8050    4.3843    2.6453 C   0  0  0  1  0  0  0  0  0  0  0  0
   -4.0192    3.2891    2.3315 C   0  0  0  1  0  0  0  0  0  0  0  0
    1.6241    3.0646    1.1464 H   0  0  0  1  0  0  0  0  0  0  0  0
    2.8119   -2.4892   -1.2168 H   0  0  0  1  0  0  0  0  0  0  0  0
    4.7630   -1.5062   -5.5450 H   0  0  0  1  0  0  0  0  0  0  0  0
    4.1996    0.2997   -4.0323 H   0  0  0  1  0  0  0  0  0  0  0  0
    3.3763   -4.2979   -2.7321 H   0  0  0  1  0  0  0  0  0  0  0  0
   -0.8186    0.2014    3.0925 H   0  0  0  1  0  0  0  0  0  0  0  0
   -2.0764   -1.7757    3.5855 H   0  0  0  1  0  0  0  0  0  0  0  0
   -2.7772   -1.8303    1.9855 H   0  0  0  1  0  0  0  0  0  0  0  0
   -3.7080   -0.3293    4.3644 H   0  0  0  1  0  0  0  0  0  0  0  0
   -4.6186   -0.8262    2.9581 H   0  0  0  1  0  0  0  0  0  0  0  0
   -0.7208   -1.6343    0.9144 H   0  0  0  1  0  0  0  0  0  0  0  0
    5.4792   -4.8150   -6.6018 H   0  0  0  1  0  0  0  0  0  0  0  0
    5.8328   -3.1730   -6.1209 H   0  0  0  1  0  0  0  0  0  0  0  0
    4.3485   -3.5348   -6.9696 H   0  0  0  1  0  0  0  0  0  0  0  0
   -1.8676    1.8763    1.7162 H   0  0  0  1  0  0  0  0  0  0  0  0
   -2.7000    0.6770    0.7556 H   0  0  0  1  0  0  0  0  0  0  0  0
   -5.4987    1.1432    4.3998 H   0  0  0  1  0  0  0  0  0  0  0  0
   -6.7849    3.1229    4.8595 H   0  0  0  1  0  0  0  0  0  0  0  0
   -4.6179    5.2835    2.1574 H   0  0  0  1  0  0  0  0  0  0  0  0
   -3.2584    3.3673    1.6268 H   0  0  0  1  0  0  0  0  0  0  0  0
  1  3  4  0  0  0  0
  1 14  4  0  0  0  0
  1 21  1  0  0  0  0
  2 14  4  0  0  0  0
  2 15  4  0  0  0  0
  2 30  1  0  0  0  0
  3 16  4  0  0  0  0
  4  5  4  0  0  0  0
  4  7  4  0  0  0  0
  4 17  1  0  0  0  0
  5  9  4  0  0  0  0
  5 31  1  0  0  0  0
  6  7  4  0  0  0  0
  6  8  4  0  0  0  0
  6 32  1  0  0  0  0
  7 33  1  0  0  0  0
  8  9  4  0  0  0  0
  8 20  1  0  0  0  0
  9 34  1  0  0  0  0
 10 11  1  0  0  0  0
 10 21  1  0  0  0  0
 10 24  1  0  0  0  0
 10 35  1  0  0  0  0
 11 12  1  0  0  0  0
 11 36  1  0  0  0  0
 11 37  1  0  0  0  0
 12 23  1  0  0  0  0
 12 38  1  0  0  0  0
 12 39  1  0  0  0  0
 13 23  1  0  0  0  0
 13 25  4  0  0  0  0
 13 29  4  0  0  0  0
 15 16  4  0  0  0  0
 15 18  4  0  0  0  0
 16 17  4  0  0  0  0
 17 19  4  0  0  0  0
 18 19  4  0  0  0  0
 20 22  1  0  0  0  0
 21 40  1  0  0  0  0
 22 41  1  0  0  0  0
 22 42  1  0  0  0  0
 22 43  1  0  0  0  0
 23 24  1  0  0  0  0
 24 44  1  0  0  0  0
 24 45  1  0  0  0  0
 25 26  4  0  0  0  0
 25 46  1  0  0  0  0
 26 27  4  0  0  0  0
 26 47  1  0  0  0  0
 27 28  4  0  0  0  0
 28 29  4  0  0  0  0
 28 48  1  0  0  0  0
 29 49  1  0  0  0  0
M  END
> <ConfClashScore>
0 

> <ConfOneFourInteractionScore>
-0.984874 

> <ConfScore>
0.0599835 

> <ConfScorePBest>
0.0028202 

> <ConfTolerance>
0.423394 

> <HETNAM>
     OWQ A 303  OWQ                                                       

> <pdb_OW>
Q_303 -16.5129 3.80749 7.62812 0.15963 1.39178 -0.28144 -3.20151 0 0 0 -1.30514 0 0 0 0 0 0 0 0 -8.31393

$$$$
6yky_lig_1.pdb
 OpenBabel04162415593D

 49 53  0  0  0  0  0  0  0  0999 V2000
    1.1568   -1.0998   -2.7015 C   0  0  0  1  0  0  0  0  0  0  0  0
    3.0478   -2.1459   -3.5010 C   0  0  0  1  0  0  0  0  0  0  0  0
    1.5318   -1.2249   -1.4466 N   0  0  0  1  0  0  0  0  0  0  0  0
    3.0180   -1.8461    1.3833 C   0  0  0  1  0  0  0  0  0  0  0  0
    1.8506   -2.3543    1.9209 C   0  0  0  1  0  0  0  0  0  0  0  0
    3.4681   -0.6985    3.4394 C   0  0  0  1  0  0  0  0  0  0  0  0
    3.8267   -1.0149    2.1426 C   0  0  0  1  0  0  0  0  0  0  0  0
    2.2972   -1.2080    3.9788 C   0  0  0  1  0  0  0  0  0  0  0  0
    1.4911   -2.0369    3.2215 C   0  0  0  1  0  0  0  0  0  0  0  0
   -0.8708    0.0559   -1.9235 C   0  0  0  1  0  0  0  0  0  0  0  0
   -1.9430   -0.9658   -1.4534 C   0  0  0  1  0  0  0  0  0  0  0  0
   -3.1494   -0.1619   -0.9248 C   0  0  0  1  0  0  0  0  0  0  0  0
   -3.6746    2.3342   -1.1803 C   0  0  0  1  0  0  0  0  0  0  0  0
    1.8895   -1.5457   -3.7068 N   0  0  0  1  0  0  0  0  0  0  0  0
    3.4955   -2.3058   -2.1848 C   0  0  0  1  0  0  0  0  0  0  0  0
    2.6815   -1.8149   -1.1434 C   0  0  0  1  0  0  0  0  0  0  0  0
    3.3438   -2.0976    0.0191 N   0  0  0  1  0  0  0  0  0  0  0  0
    4.5945   -2.8544   -1.6224 N   0  0  0  1  0  0  0  0  0  0  0  0
    4.5337   -2.7479   -0.3408 N   0  0  0  1  0  0  0  0  0  0  0  0
    2.0009   -0.8555    5.2523 O   0  0  0  1  0  0  0  0  0  0  0  0
   -0.0311   -0.4879   -2.9762 N   0  0  0  1  0  0  0  0  0  0  0  0
    2.7422    0.2354    5.8206 C   0  0  0  1  0  0  0  0  0  0  0  0
   -2.9183    1.1937   -1.4990 N   0  0  0  1  0  0  0  0  0  0  0  0
   -1.7906    1.1767   -2.4451 C   0  0  0  1  0  0  0  0  0  0  0  0
   -3.9043    3.3149   -2.1275 C   0  0  0  1  0  0  0  0  0  0  0  0
   -4.6568    4.4183   -1.7727 C   0  0  0  1  0  0  0  0  0  0  0  0
   -5.1763    4.5924   -0.5537 N   0  0  0  1  0  0  0  0  0  0  0  0
   -4.9421    3.6359    0.3560 C   0  0  0  1  0  0  0  0  0  0  0  0
   -4.2030    2.4976    0.0853 C   0  0  0  1  0  0  0  0  0  0  0  0
    3.6154   -2.4926   -4.3006 H   0  0  0  1  0  0  0  0  0  0  0  0
    1.2419   -2.9747    1.3498 H   0  0  0  1  0  0  0  0  0  0  0  0
    4.0768   -0.0781    4.0105 H   0  0  0  1  0  0  0  0  0  0  0  0
    4.7031   -0.6294    1.7366 H   0  0  0  1  0  0  0  0  0  0  0  0
    0.6147   -2.4224    3.6275 H   0  0  0  1  0  0  0  0  0  0  0  0
   -0.2567    0.3896   -1.1133 H   0  0  0  1  0  0  0  0  0  0  0  0
   -2.2458   -1.5812   -2.2747 H   0  0  0  1  0  0  0  0  0  0  0  0
   -1.5443   -1.5810   -0.6740 H   0  0  0  1  0  0  0  0  0  0  0  0
   -4.0719   -0.5765   -1.2744 H   0  0  0  1  0  0  0  0  0  0  0  0
   -3.1539   -0.1320    0.1447 H   0  0  0  1  0  0  0  0  0  0  0  0
   -0.3254   -0.4134   -3.9080 H   0  0  0  1  0  0  0  0  0  0  0  0
    2.7476    1.0582    5.1366 H   0  0  0  1  0  0  0  0  0  0  0  0
    3.7478   -0.0773    6.0099 H   0  0  0  1  0  0  0  0  0  0  0  0
    2.2834    0.5381    6.7387 H   0  0  0  1  0  0  0  0  0  0  0  0
   -1.2802    2.1172   -2.4429 H   0  0  0  1  0  0  0  0  0  0  0  0
   -2.1307    0.9572   -3.4356 H   0  0  0  1  0  0  0  0  0  0  0  0
   -3.5181    3.2238   -3.0888 H   0  0  0  1  0  0  0  0  0  0  0  0
   -4.8276    5.1507   -2.4911 H   0  0  0  1  0  0  0  0  0  0  0  0
   -5.3348    3.7552    1.3116 H   0  0  0  1  0  0  0  0  0  0  0  0
   -4.0485    1.7788    0.8209 H   0  0  0  1  0  0  0  0  0  0  0  0
  1  3  4  0  0  0  0
  1 14  4  0  0  0  0
  1 21  1  0  0  0  0
  2 14  4  0  0  0  0
  2 15  4  0  0  0  0
  2 30  1  0  0  0  0
  3 16  4  0  0  0  0
  4  5  4  0  0  0  0
  4  7  4  0  0  0  0
  4 17  1  0  0  0  0
  5  9  4  0  0  0  0
  5 31  1  0  0  0  0
  6  7  4  0  0  0  0
  6  8  4  0  0  0  0
  6 32  1  0  0  0  0
  7 33  1  0  0  0  0
  8  9  4  0  0  0  0
  8 20  1  0  0  0  0
  9 34  1  0  0  0  0
 10 11  1  0  0  0  0
 10 21  1  0  0  0  0
 10 24  1  0  0  0  0
 10 35  1  0  0  0  0
 11 12  1  0  0  0  0
 11 36  1  0  0  0  0
 11 37  1  0  0  0  0
 12 23  1  0  0  0  0
 12 38  1  0  0  0  0
 12 39  1  0  0  0  0
 13 23  1  0  0  0  0
 13 25  4  0  0  0  0
 13 29  4  0  0  0  0
 15 16  4  0  0  0  0
 15 18  4  0  0  0  0
 16 17  4  0  0  0  0
 17 19  4  0  0  0  0
 18 19  4  0  0  0  0
 20 22  1  0  0  0  0
 21 40  1  0  0  0  0
 22 41  1  0  0  0  0
 22 42  1  0  0  0  0
 22 43  1  0  0  0  0
 23 24  1  0  0  0  0
 24 44  1  0  0  0  0
 24 45  1  0  0  0  0
 25 26  4  0  0  0  0
 25 46  1  0  0  0  0
 26 27  4  0  0  0  0
 26 47  1  0  0  0  0
 27 28  4  0  0  0  0
 28 29  4  0  0  0  0
 28 48  1  0  0  0  0
 29 49  1  0  0  0  0
M  END
> <ConfClashScore>
0 

> <ConfOneFourInteractionScore>
-0.986948 

> <ConfScore>
0.060124 

> <ConfScorePBest>
0.00280687 

> <ConfTolerance>
0.453868 

> <HETNAM>
     OWQ A 303  OWQ                                                       

> <pdb_OW>
Q_303 -16.5129 3.80749 7.62812 0.15963 1.39178 -0.28144 -3.20151 0 0 0 -1.30514 0 0 0 0 0 0 0 0 -8.31393

$$$$
6yky_lig_1.pdb
 OpenBabel04162415593D

 49 53  0  0  0  0  0  0  0  0999 V2000
    1.1167   -2.2979   -2.2040 C   0  0  0  1  0  0  0  0  0  0  0  0
    3.1399   -2.5291   -3.2822 C   0  0  0  1  0  0  0  0  0  0  0  0
    1.5642   -1.3428   -1.4175 N   0  0  0  1  0  0  0  0  0  0  0  0
    3.3130    0.9404    0.1809 C   0  0  0  1  0  0  0  0  0  0  0  0
    3.5391    2.2902   -0.0116 C   0  0  0  1  0  0  0  0  0  0  0  0
    2.7465    1.3597    2.4723 C   0  0  0  1  0  0  0  0  0  0  0  0
    2.9187    0.4740    1.4253 C   0  0  0  1  0  0  0  0  0  0  0  0
    2.9733    2.7135    2.2794 C   0  0  0  1  0  0  0  0  0  0  0  0
    3.3664    3.1783    1.0386 C   0  0  0  1  0  0  0  0  0  0  0  0
   -1.0389   -2.1352   -1.0012 C   0  0  0  1  0  0  0  0  0  0  0  0
   -2.1053   -3.1730   -0.5540 C   0  0  0  1  0  0  0  0  0  0  0  0
   -3.3322   -2.3874   -0.0452 C   0  0  0  1  0  0  0  0  0  0  0  0
   -3.8871    0.1025   -0.3028 C   0  0  0  1  0  0  0  0  0  0  0  0
    1.8779   -2.8800   -3.1140 N   0  0  0  1  0  0  0  0  0  0  0  0
    3.6683   -1.5176   -2.4720 C   0  0  0  1  0  0  0  0  0  0  0  0
    2.8201   -0.9244   -1.5144 C   0  0  0  1  0  0  0  0  0  0  0  0
    3.5763    0.0158   -0.8709 N   0  0  0  1  0  0  0  0  0  0  0  0
    4.8781   -0.9250   -2.3715 N   0  0  0  1  0  0  0  0  0  0  0  0
    4.8543   -0.0284   -1.4478 N   0  0  0  1  0  0  0  0  0  0  0  0
    2.8442    3.6603    3.2162 O   0  0  0  1  0  0  0  0  0  0  0  0
   -0.1725   -2.6642   -2.0402 N   0  0  0  1  0  0  0  0  0  0  0  0
    2.3884    3.3438    4.5745 C   0  0  0  1  0  0  0  0  0  0  0  0
   -3.1092   -1.0269   -0.6110 N   0  0  0  1  0  0  0  0  0  0  0  0
   -1.9643   -1.0254   -1.5364 C   0  0  0  1  0  0  0  0  0  0  0  0
   -5.1834    0.2654   -0.7552 C   0  0  0  1  0  0  0  0  0  0  0  0
   -5.9071    1.3589   -0.3191 C   0  0  0  1  0  0  0  0  0  0  0  0
   -5.4178    2.2766    0.5203 N   0  0  0  1  0  0  0  0  0  0  0  0
   -4.1582    2.1086    0.9475 C   0  0  0  1  0  0  0  0  0  0  0  0
   -3.3643    1.0416    0.5647 C   0  0  0  1  0  0  0  0  0  0  0  0
    3.7289   -2.9947   -4.0018 H   0  0  0  1  0  0  0  0  0  0  0  0
    3.8388    2.6395   -0.9442 H   0  0  0  1  0  0  0  0  0  0  0  0
    2.4468    1.0103    3.4049 H   0  0  0  1  0  0  0  0  0  0  0  0
    2.7524   -0.5423    1.5711 H   0  0  0  1  0  0  0  0  0  0  0  0
    3.5327    4.1945    0.8928 H   0  0  0  1  0  0  0  0  0  0  0  0
   -0.4444   -1.7957   -0.1790 H   0  0  0  1  0  0  0  0  0  0  0  0
   -2.3846   -3.7899   -1.3824 H   0  0  0  1  0  0  0  0  0  0  0  0
   -1.7126   -3.7852    0.2308 H   0  0  0  1  0  0  0  0  0  0  0  0
   -4.2423   -2.8134   -0.4128 H   0  0  0  1  0  0  0  0  0  0  0  0
   -3.3566   -2.3609    1.0242 H   0  0  0  1  0  0  0  0  0  0  0  0
   -0.5458   -3.3262   -2.6590 H   0  0  0  1  0  0  0  0  0  0  0  0
    1.3341    3.5120    4.6457 H   0  0  0  1  0  0  0  0  0  0  0  0
    2.8976    3.9707    5.2764 H   0  0  0  1  0  0  0  0  0  0  0  0
    2.6012    2.3179    4.7919 H   0  0  0  1  0  0  0  0  0  0  0  0
   -2.2832   -1.2464   -2.5336 H   0  0  0  1  0  0  0  0  0  0  0  0
   -1.4671   -0.0781   -1.5221 H   0  0  0  1  0  0  0  0  0  0  0  0
   -5.6059   -0.4221   -1.4113 H   0  0  0  1  0  0  0  0  0  0  0  0
   -6.8823    1.4735   -0.6616 H   0  0  0  1  0  0  0  0  0  0  0  0
   -3.7583    2.8144    1.5983 H   0  0  0  1  0  0  0  0  0  0  0  0
   -2.3925    0.9487    0.9234 H   0  0  0  1  0  0  0  0  0  0  0  0
  1  3  4  0  0  0  0
  1 14  4  0  0  0  0
  1 21  1  0  0  0  0
  2 14  4  0  0  0  0
  2 15  4  0  0  0  0
  2 30  1  0  0  0  0
  3 16  4  0  0  0  0
  4  5  4  0  0  0  0
  4  7  4  0  0  0  0
  4 17  1  0  0  0  0
  5  9  4  0  0  0  0
  5 31  1  0  0  0  0
  6  7  4  0  0  0  0
  6  8  4  0  0  0  0
  6 32  1  0  0  0  0
  7 33  1  0  0  0  0
  8  9  4  0  0  0  0
  8 20  1  0  0  0  0
  9 34  1  0  0  0  0
 10 11  1  0  0  0  0
 10 21  1  0  0  0  0
 10 24  1  0  0  0  0
 10 35  1  0  0  0  0
 11 12  1  0  0  0  0
 11 36  1  0  0  0  0
 11 37  1  0  0  0  0
 12 23  1  0  0  0  0
 12 38  1  0  0  0  0
 12 39  1  0  0  0  0
 13 23  1  0  0  0  0
 13 25  4  0  0  0  0
 13 29  4  0  0  0  0
 15 16  4  0  0  0  0
 15 18  4  0  0  0  0
 16 17  4  0  0  0  0
 17 19  4  0  0  0  0
 18 19  4  0  0  0  0
 20 22  1  0  0  0  0
 21 40  1  0  0  0  0
 22 41  1  0  0  0  0
 22 42  1  0  0  0  0
 22 43  1  0  0  0  0
 23 24  1  0  0  0  0
 24 44  1  0  0  0  0
 24 45  1  0  0  0  0
 25 26  4  0  0  0  0
 25 46  1  0  0  0  0
 26 27  4  0  0  0  0
 26 47  1  0  0  0  0
 27 28  4  0  0  0  0
 28 29  4  0  0  0  0
 28 48  1  0  0  0  0
 29 49  1  0  0  0  0
M  END
> <ConfClashScore>
0 

> <ConfOneFourInteractionScore>
-0.986948 

> <ConfScore>
0.0602534 

> <ConfScorePBest>
0.00279354 

> <ConfTolerance>
0.48072 

> <HETNAM>
     OWQ A 303  OWQ                                                       

> <pdb_OW>
Q_303 -16.5129 3.80749 7.62812 0.15963 1.39178 -0.28144 -3.20151 0 0 0 -1.30514 0 0 0 0 0 0 0 0 -8.31393

$$$$
6yky_lig_1.pdb
 OpenBabel04162415593D

 49 53  0  0  0  0  0  0  0  0999 V2000
    1.1189   -0.8936   -2.7739 C   0  0  0  1  0  0  0  0  0  0  0  0
    3.1038   -1.7801   -3.5379 C   0  0  0  1  0  0  0  0  0  0  0  0
    1.4958   -0.9507   -1.5147 N   0  0  0  1  0  0  0  0  0  0  0  0
    2.9522   -1.4277    1.3300 C   0  0  0  1  0  0  0  0  0  0  0  0
    1.9245   -0.5506    1.6210 C   0  0  0  1  0  0  0  0  0  0  0  0
    3.2900   -1.8125    3.6720 C   0  0  0  1  0  0  0  0  0  0  0  0
    3.6378   -2.0576    2.3570 C   0  0  0  1  0  0  0  0  0  0  0  0
    2.2592   -0.9328    3.9641 C   0  0  0  1  0  0  0  0  0  0  0  0
    1.5758   -0.3049    2.9399 C   0  0  0  1  0  0  0  0  0  0  0  0
   -1.0773    0.0991   -2.1167 C   0  0  0  1  0  0  0  0  0  0  0  0
   -2.0704   -0.9963   -1.6972 C   0  0  0  1  0  0  0  0  0  0  0  0
   -3.2760   -0.1634   -1.2351 C   0  0  0  1  0  0  0  0  0  0  0  0
   -3.5270    2.4002   -1.1595 C   0  0  0  1  0  0  0  0  0  0  0  0
    1.8963   -1.2956   -3.7642 N   0  0  0  1  0  0  0  0  0  0  0  0
    3.5560   -1.8635   -2.2161 C   0  0  0  1  0  0  0  0  0  0  0  0
    2.6933   -1.4233   -1.1914 C   0  0  0  1  0  0  0  0  0  0  0  0
    3.3714   -1.6130   -0.0191 N   0  0  0  1  0  0  0  0  0  0  0  0
    4.6975   -2.2928   -1.6350 N   0  0  0  1  0  0  0  0  0  0  0  0
    4.6188   -2.1591   -0.3569 N   0  0  0  1  0  0  0  0  0  0  0  0
    1.9219   -0.6888    5.2527 O   0  0  0  1  0  0  0  0  0  0  0  0
   -0.1016   -0.4089   -3.0654 N   0  0  0  1  0  0  0  0  0  0  0  0
    2.5019   -1.5382    6.2550 C   0  0  0  1  0  0  0  0  0  0  0  0
   -2.9803    1.2335   -1.6738 N   0  0  0  1  0  0  0  0  0  0  0  0
   -1.9915    1.1252   -2.7624 C   0  0  0  1  0  0  0  0  0  0  0  0
   -3.1041    3.6361   -1.6127 C   0  0  0  1  0  0  0  0  0  0  0  0
   -3.6782    4.7729   -1.0761 C   0  0  0  1  0  0  0  0  0  0  0  0
   -4.6251    4.7430   -0.1334 N   0  0  0  1  0  0  0  0  0  0  0  0
   -5.0224    3.5382    0.2999 C   0  0  0  1  0  0  0  0  0  0  0  0
   -4.5043    2.3499   -0.1848 C   0  0  0  1  0  0  0  0  0  0  0  0
    3.7062   -2.0933   -4.3257 H   0  0  0  1  0  0  0  0  0  0  0  0
    1.4129   -0.0750    0.8506 H   0  0  0  1  0  0  0  0  0  0  0  0
    3.8016   -2.2882    4.4425 H   0  0  0  1  0  0  0  0  0  0  0  0
    4.4137   -2.7145    2.1381 H   0  0  0  1  0  0  0  0  0  0  0  0
    0.7998    0.3520    3.1588 H   0  0  0  1  0  0  0  0  0  0  0  0
   -0.5705    0.5096   -1.2684 H   0  0  0  1  0  0  0  0  0  0  0  0
   -1.6794   -1.5923   -0.8992 H   0  0  0  1  0  0  0  0  0  0  0  0
   -2.3260   -1.6276   -2.5225 H   0  0  0  1  0  0  0  0  0  0  0  0
   -4.1749   -0.5182   -1.6946 H   0  0  0  1  0  0  0  0  0  0  0  0
   -3.3770   -0.2086   -0.1709 H   0  0  0  1  0  0  0  0  0  0  0  0
   -0.3578   -0.3973   -4.0112 H   0  0  0  1  0  0  0  0  0  0  0  0
    2.2817   -2.5603    6.0280 H   0  0  0  1  0  0  0  0  0  0  0  0
    2.0937   -1.2898    7.2124 H   0  0  0  1  0  0  0  0  0  0  0  0
    3.5625   -1.3972    6.2714 H   0  0  0  1  0  0  0  0  0  0  0  0
   -1.4915    2.0525   -2.9492 H   0  0  0  1  0  0  0  0  0  0  0  0
   -2.4270    0.7648   -3.6709 H   0  0  0  1  0  0  0  0  0  0  0  0
   -2.3680    3.7089   -2.3437 H   0  0  0  1  0  0  0  0  0  0  0  0
   -3.3569    5.6990   -1.4236 H   0  0  0  1  0  0  0  0  0  0  0  0
   -5.7557    3.4943    1.0361 H   0  0  0  1  0  0  0  0  0  0  0  0
   -4.8443    1.4365    0.1780 H   0  0  0  1  0  0  0  0  0  0  0  0
  1  3  4  0  0  0  0
  1 14  4  0  0  0  0
  1 21  1  0  0  0  0
  2 14  4  0  0  0  0
  2 15  4  0  0  0  0
  2 30  1  0  0  0  0
  3 16  4  0  0  0  0
  4  5  4  0  0  0  0
  4  7  4  0  0  0  0
  4 17  1  0  0  0  0
  5  9  4  0  0  0  0
  5 31  1  0  0  0  0
  6  7  4  0  0  0  0
  6  8  4  0  0  0  0
  6 32  1  0  0  0  0
  7 33  1  0  0  0  0
  8  9  4  0  0  0  0
  8 20  1  0  0  0  0
  9 34  1  0  0  0  0
 10 11  1  0  0  0  0
 10 21  1  0  0  0  0
 10 24  1  0  0  0  0
 10 35  1  0  0  0  0
 11 12  1  0  0  0  0
 11 36  1  0  0  0  0
 11 37  1  0  0  0  0
 12 23  1  0  0  0  0
 12 38  1  0  0  0  0
 12 39  1  0  0  0  0
 13 23  1  0  0  0  0
 13 25  4  0  0  0  0
 13 29  4  0  0  0  0
 15 16  4  0  0  0  0
 15 18  4  0  0  0  0
 16 17  4  0  0  0  0
 17 19  4  0  0  0  0
 18 19  4  0  0  0  0
 20 22  1  0  0  0  0
 21 40  1  0  0  0  0
 22 41  1  0  0  0  0
 22 42  1  0  0  0  0
 22 43  1  0  0  0  0
 23 24  1  0  0  0  0
 24 44  1  0  0  0  0
 24 45  1  0  0  0  0
 25 26  4  0  0  0  0
 25 46  1  0  0  0  0
 26 27  4  0  0  0  0
 26 47  1  0  0  0  0
 27 28  4  0  0  0  0
 28 29  4  0  0  0  0
 28 48  1  0  0  0  0
 29 49  1  0  0  0  0
M  END
> <ConfClashScore>
0 

> <ConfOneFourInteractionScore>
-0.986948 

> <ConfScore>
0.060492 

> <ConfScorePBest>
0.00278021 

> <ConfTolerance>
0.471133 

> <HETNAM>
     OWQ A 303  OWQ                                                       

> <pdb_OW>
Q_303 -16.5129 3.80749 7.62812 0.15963 1.39178 -0.28144 -3.20151 0 0 0 -1.30514 0 0 0 0 0 0 0 0 -8.31393

$$$$
6yky_lig_1.pdb
 OpenBabel04162415593D

 49 53  0  0  0  0  0  0  0  0999 V2000
    0.2093    0.2982    0.4132 C   0  0  0  1  0  0  0  0  0  0  0  0
    1.5045    2.1894    0.6482 C   0  0  0  1  0  0  0  0  0  0  0  0
    1.0556   -0.2640   -0.4226 N   0  0  0  1  0  0  0  0  0  0  0  0
    3.6143   -1.1079   -2.2959 C   0  0  0  1  0  0  0  0  0  0  0  0
    3.0926   -2.3137   -1.8671 C   0  0  0  1  0  0  0  0  0  0  0  0
    4.9610   -2.2615   -3.9092 C   0  0  0  1  0  0  0  0  0  0  0  0
    4.5519   -1.0818   -3.3165 C   0  0  0  1  0  0  0  0  0  0  0  0
    4.4379   -3.4711   -3.4793 C   0  0  0  1  0  0  0  0  0  0  0  0
    3.5031   -3.4968   -2.4615 C   0  0  0  1  0  0  0  0  0  0  0  0
   -1.9062    0.1389    1.6858 C   0  0  0  1  0  0  0  0  0  0  0  0
   -2.8797   -0.9697    2.1168 C   0  0  0  1  0  0  0  0  0  0  0  0
   -4.1037   -0.1541    2.5610 C   0  0  0  1  0  0  0  0  0  0  0  0
   -4.4019    2.3975    2.5943 C   0  0  0  1  0  0  0  0  0  0  0  0
    0.4211    1.4922    0.9386 N   0  0  0  1  0  0  0  0  0  0  0  0
    2.4391    1.6389   -0.2361 C   0  0  0  1  0  0  0  0  0  0  0  0
    2.1723    0.3625   -0.7726 C   0  0  0  1  0  0  0  0  0  0  0  0
    3.2274    0.0687   -1.5913 N   0  0  0  1  0  0  0  0  0  0  0  0
    3.6201    2.0573   -0.7412 N   0  0  0  1  0  0  0  0  0  0  0  0
    4.1022    1.1640   -1.5331 N   0  0  0  1  0  0  0  0  0  0  0  0
    4.7700   -4.7055   -3.9861 O   0  0  0  1  0  0  0  0  0  0  0  0
   -0.9126   -0.3653    0.7461 N   0  0  0  1  0  0  0  0  0  0  0  0
    5.7856   -4.7467   -5.0006 C   0  0  0  1  0  0  0  0  0  0  0  0
   -3.8335    1.2418    2.1031 N   0  0  0  1  0  0  0  0  0  0  0  0
   -2.8373    1.1371    1.0208 C   0  0  0  1  0  0  0  0  0  0  0  0
   -3.8785    2.9461    3.7504 C   0  0  0  1  0  0  0  0  0  0  0  0
   -4.4968    4.0531    4.2999 C   0  0  0  1  0  0  0  0  0  0  0  0
   -5.5835    4.6252    3.7726 N   0  0  0  1  0  0  0  0  0  0  0  0
   -6.0829    4.0803    2.6541 C   0  0  0  1  0  0  0  0  0  0  0  0
   -5.5253    2.9750    2.0355 C   0  0  0  1  0  0  0  0  0  0  0  0
    1.6599    3.1281    1.0681 H   0  0  0  1  0  0  0  0  0  0  0  0
    2.3922   -2.3335   -1.0986 H   0  0  0  1  0  0  0  0  0  0  0  0
    5.6615   -2.2417   -4.6777 H   0  0  0  1  0  0  0  0  0  0  0  0
    4.9474   -0.1746   -3.6364 H   0  0  0  1  0  0  0  0  0  0  0  0
    3.1075   -4.4039   -2.1417 H   0  0  0  1  0  0  0  0  0  0  0  0
   -1.4119    0.5717    2.5303 H   0  0  0  1  0  0  0  0  0  0  0  0
   -3.1187   -1.6180    1.2999 H   0  0  0  1  0  0  0  0  0  0  0  0
   -2.4809   -1.5460    2.9254 H   0  0  0  1  0  0  0  0  0  0  0  0
   -4.2090   -0.1857    3.6253 H   0  0  0  1  0  0  0  0  0  0  0  0
   -4.9931   -0.5333    2.1026 H   0  0  0  1  0  0  0  0  0  0  0  0
   -1.0712   -1.2394    0.3323 H   0  0  0  1  0  0  0  0  0  0  0  0
    6.6699   -4.2636   -4.6406 H   0  0  0  1  0  0  0  0  0  0  0  0
    5.4352   -4.2419   -5.8765 H   0  0  0  1  0  0  0  0  0  0  0  0
    6.0086   -5.7654   -5.2405 H   0  0  0  1  0  0  0  0  0  0  0  0
   -3.2612    0.7549    0.1157 H   0  0  0  1  0  0  0  0  0  0  0  0
   -2.3548    2.0713    0.8226 H   0  0  0  1  0  0  0  0  0  0  0  0
   -3.0353    2.5335    4.1981 H   0  0  0  1  0  0  0  0  0  0  0  0
   -4.0961    4.4620    5.1682 H   0  0  0  1  0  0  0  0  0  0  0  0
   -6.9305    4.5090    2.2307 H   0  0  0  1  0  0  0  0  0  0  0  0
   -5.9441    2.5866    1.1664 H   0  0  0  1  0  0  0  0  0  0  0  0
  1  3  4  0  0  0  0
  1 14  4  0  0  0  0
  1 21  1  0  0  0  0
  2 14  4  0  0  0  0
  2 15  4  0  0  0  0
  2 30  1  0  0  0  0
  3 16  4  0  0  0  0
  4  5  4  0  0  0  0
  4  7  4  0  0  0  0
  4 17  1  0  0  0  0
  5  9  4  0  0  0  0
  5 31  1  0  0  0  0
  6  7  4  0  0  0  0
  6  8  4  0  0  0  0
  6 32  1  0  0  0  0
  7 33  1  0  0  0  0
  8  9  4  0  0  0  0
  8 20  1  0  0  0  0
  9 34  1  0  0  0  0
 10 11  1  0  0  0  0
 10 21  1  0  0  0  0
 10 24  1  0  0  0  0
 10 35  1  0  0  0  0
 11 12  1  0  0  0  0
 11 36  1  0  0  0  0
 11 37  1  0  0  0  0
 12 23  1  0  0  0  0
 12 38  1  0  0  0  0
 12 39  1  0  0  0  0
 13 23  1  0  0  0  0
 13 25  4  0  0  0  0
 13 29  4  0  0  0  0
 15 16  4  0  0  0  0
 15 18  4  0  0  0  0
 16 17  4  0  0  0  0
 17 19  4  0  0  0  0
 18 19  4  0  0  0  0
 20 22  1  0  0  0  0
 21 40  1  0  0  0  0
 22 41  1  0  0  0  0
 22 42  1  0  0  0  0
 22 43  1  0  0  0  0
 23 24  1  0  0  0  0
 24 44  1  0  0  0  0
 24 45  1  0  0  0  0
 25 26  4  0  0  0  0
 25 46  1  0  0  0  0
 26 27  4  0  0  0  0
 26 47  1  0  0  0  0
 27 28  4  0  0  0  0
 28 29  4  0  0  0  0
 28 48  1  0  0  0  0
 29 49  1  0  0  0  0
M  END
> <ConfClashScore>
0 

> <ConfOneFourInteractionScore>
-0.986948 

> <ConfScore>
0.0604973 

> <ConfScorePBest>
0.00276689 

> <ConfTolerance>
0.434304 

> <HETNAM>
     OWQ A 303  OWQ                                                       

> <pdb_OW>
Q_303 -16.5129 3.80749 7.62812 0.15963 1.39178 -0.28144 -3.20151 0 0 0 -1.30514 0 0 0 0 0 0 0 0 -8.31393

$$$$
6yky_lig_1.pdb
 OpenBabel04162415593D

 49 53  0  0  0  0  0  0  0  0999 V2000
   -0.1519   -0.7979    0.5884 C   0  0  0  1  0  0  0  0  0  0  0  0
   -2.0958   -1.5240   -0.4134 C   0  0  0  1  0  0  0  0  0  0  0  0
    0.5794   -1.0687   -0.4712 N   0  0  0  1  0  0  0  0  0  0  0  0
    1.7839   -1.9503   -3.3652 C   0  0  0  1  0  0  0  0  0  0  0  0
    2.6062   -0.8812   -3.0638 C   0  0  0  1  0  0  0  0  0  0  0  0
    3.4430   -2.8050   -4.8700 C   0  0  0  1  0  0  0  0  0  0  0  0
    2.2017   -2.9123   -4.2716 C   0  0  0  1  0  0  0  0  0  0  0  0
    4.2679   -1.7327   -4.5678 C   0  0  0  1  0  0  0  0  0  0  0  0
    3.8511   -0.7737   -3.6640 C   0  0  0  1  0  0  0  0  0  0  0  0
   -0.1705    0.2558    2.8867 C   0  0  0  1  0  0  0  0  0  0  0  0
   -1.1856   -0.7424    3.4865 C   0  0  0  1  0  0  0  0  0  0  0  0
   -2.3804    0.0504    3.9532 C   0  0  0  1  0  0  0  0  0  0  0  0
   -3.0452    2.4459    3.2947 C   0  0  0  1  0  0  0  0  0  0  0  0
   -1.4547   -1.0169    0.6239 N   0  0  0  1  0  0  0  0  0  0  0  0
   -1.3665   -1.8310   -1.5677 C   0  0  0  1  0  0  0  0  0  0  0  0
    0.0212   -1.5810   -1.5612 C   0  0  0  1  0  0  0  0  0  0  0  0
    0.4801   -1.9651   -2.7907 N   0  0  0  1  0  0  0  0  0  0  0  0
   -1.6848   -2.3455   -2.7756 N   0  0  0  1  0  0  0  0  0  0  0  0
   -0.6300   -2.4352   -3.5084 N   0  0  0  1  0  0  0  0  0  0  0  0
    5.4526   -1.7312   -5.2168 O   0  0  0  1  0  0  0  0  0  0  0  0
    0.4435   -0.2823    1.6696 N   0  0  0  1  0  0  0  0  0  0  0  0
    6.4759   -0.8055   -4.8187 C   0  0  0  1  0  0  0  0  0  0  0  0
   -2.1451    1.3977    3.2362 N   0  0  0  1  0  0  0  0  0  0  0  0
   -1.0336    1.4627    2.5757 C   0  0  0  1  0  0  0  0  0  0  0  0
   -4.2820    2.4014    3.9111 C   0  0  0  1  0  0  0  0  0  0  0  0
   -5.0751    3.5329    3.8922 C   0  0  0  1  0  0  0  0  0  0  0  0
   -4.7106    4.6760    3.3035 N   0  0  0  1  0  0  0  0  0  0  0  0
   -3.5109    4.7037    2.7059 C   0  0  0  1  0  0  0  0  0  0  0  0
   -2.6520    3.6187    2.6803 C   0  0  0  1  0  0  0  0  0  0  0  0
   -3.1214   -1.6918   -0.3733 H   0  0  0  1  0  0  0  0  0  0  0  0
    2.2911   -0.1573   -2.3868 H   0  0  0  1  0  0  0  0  0  0  0  0
    3.7581   -3.5289   -5.5470 H   0  0  0  1  0  0  0  0  0  0  0  0
    1.5812   -3.7147   -4.5014 H   0  0  0  1  0  0  0  0  0  0  0  0
    4.4716    0.0287   -3.4342 H   0  0  0  1  0  0  0  0  0  0  0  0
    0.5940    0.5004    3.5943 H   0  0  0  1  0  0  0  0  0  0  0  0
   -1.4853   -1.4500    2.7419 H   0  0  0  1  0  0  0  0  0  0  0  0
   -0.7447   -1.2590    4.3133 H   0  0  0  1  0  0  0  0  0  0  0  0
   -3.2980   -0.4040    3.6426 H   0  0  0  1  0  0  0  0  0  0  0  0
   -2.3820    0.1674    5.0168 H   0  0  0  1  0  0  0  0  0  0  0  0
    1.4230   -0.2616    1.6445 H   0  0  0  1  0  0  0  0  0  0  0  0
    7.3762   -1.0148   -5.3576 H   0  0  0  1  0  0  0  0  0  0  0  0
    6.6575   -0.9049   -3.7689 H   0  0  0  1  0  0  0  0  0  0  0  0
    6.1562    0.1929   -5.0329 H   0  0  0  1  0  0  0  0  0  0  0  0
   -0.5092    2.3533    2.8526 H   0  0  0  1  0  0  0  0  0  0  0  0
   -1.2461    1.4848    1.5272 H   0  0  0  1  0  0  0  0  0  0  0  0
   -4.6093    1.5328    4.3802 H   0  0  0  1  0  0  0  0  0  0  0  0
   -6.0031    3.4929    4.3601 H   0  0  0  1  0  0  0  0  0  0  0  0
   -3.2110    5.5832    2.2388 H   0  0  0  1  0  0  0  0  0  0  0  0
   -1.7282    3.6853    2.2074 H   0  0  0  1  0  0  0  0  0  0  0  0
  1  3  4  0  0  0  0
  1 14  4  0  0  0  0
  1 21  1  0  0  0  0
  2 14  4  0  0  0  0
  2 15  4  0  0  0  0
  2 30  1  0  0  0  0
  3 16  4  0  0  0  0
  4  5  4  0  0  0  0
  4  7  4  0  0  0  0
  4 17  1  0  0  0  0
  5  9  4  0  0  0  0
  5 31  1  0  0  0  0
  6  7  4  0  0  0  0
  6  8  4  0  0  0  0
  6 32  1  0  0  0  0
  7 33  1  0  0  0  0
  8  9  4  0  0  0  0
  8 20  1  0  0  0  0
  9 34  1  0  0  0  0
 10 11  1  0  0  0  0
 10 21  1  0  0  0  0
 10 24  1  0  0  0  0
 10 35  1  0  0  0  0
 11 12  1  0  0  0  0
 11 36  1  0  0  0  0
 11 37  1  0  0  0  0
 12 23  1  0  0  0  0
 12 38  1  0  0  0  0
 12 39  1  0  0  0  0
 13 23  1  0  0  0  0
 13 25  4  0  0  0  0
 13 29  4  0  0  0  0
 15 16  4  0  0  0  0
 15 18  4  0  0  0  0
 16 17  4  0  0  0  0
 17 19  4  0  0  0  0
 18 19  4  0  0  0  0
 20 22  1  0  0  0  0
 21 40  1  0  0  0  0
 22 41  1  0  0  0  0
 22 42  1  0  0  0  0
 22 43  1  0  0  0  0
 23 24  1  0  0  0  0
 24 44  1  0  0  0  0
 24 45  1  0  0  0  0
 25 26  4  0  0  0  0
 25 46  1  0  0  0  0
 26 27  4  0  0  0  0
 26 47  1  0  0  0  0
 27 28  4  0  0  0  0
 28 29  4  0  0  0  0
 28 48  1  0  0  0  0
 29 49  1  0  0  0  0
M  END
> <ConfClashScore>
0 

> <ConfOneFourInteractionScore>
-0.983503 

> <ConfScore>
0.0608816 

> <ConfScorePBest>
0.00275356 

> <ConfTolerance>
0.521474 

> <HETNAM>
     OWQ A 303  OWQ                                                       

> <pdb_OW>
Q_303 -16.5129 3.80749 7.62812 0.15963 1.39178 -0.28144 -3.20151 0 0 0 -1.30514 0 0 0 0 0 0 0 0 -8.31393

$$$$
6yky_lig_1.pdb
 OpenBabel04162415593D

 49 53  0  0  0  0  0  0  0  0999 V2000
    1.3527   -2.4574   -1.9707 C   0  0  0  1  0  0  0  0  0  0  0  0
    3.3028   -2.4230   -3.1977 C   0  0  0  1  0  0  0  0  0  0  0  0
    1.6869   -1.3908   -1.2766 N   0  0  0  1  0  0  0  0  0  0  0  0
    3.0568    1.2850   -0.0144 C   0  0  0  1  0  0  0  0  0  0  0  0
    3.9873    1.8825    0.8146 C   0  0  0  1  0  0  0  0  0  0  0  0
    1.2933    2.4338    1.1335 C   0  0  0  1  0  0  0  0  0  0  0  0
    1.7075    1.5589    0.1469 C   0  0  0  1  0  0  0  0  0  0  0  0
    2.2265    3.0332    1.9650 C   0  0  0  1  0  0  0  0  0  0  0  0
    3.5718    2.7599    1.8040 C   0  0  0  1  0  0  0  0  0  0  0  0
   -0.8034   -2.5468   -0.7702 C   0  0  0  1  0  0  0  0  0  0  0  0
   -1.7952   -3.6437   -0.3515 C   0  0  0  1  0  0  0  0  0  0  0  0
   -3.0020   -2.8126    0.1107 C   0  0  0  1  0  0  0  0  0  0  0  0
   -3.2525   -0.2575    0.1837 C   0  0  0  1  0  0  0  0  0  0  0  0
    2.1342   -2.9655   -2.9074 N   0  0  0  1  0  0  0  0  0  0  0  0
    3.7085   -1.2860   -2.4898 C   0  0  0  1  0  0  0  0  0  0  0  0
    2.8431   -0.7781   -1.4992 C   0  0  0  1  0  0  0  0  0  0  0  0
    3.4728    0.3153   -0.9720 N   0  0  0  1  0  0  0  0  0  0  0  0
    4.8040   -0.4961   -2.5216 N   0  0  0  1  0  0  0  0  0  0  0  0
    4.6948    0.4443   -1.6490 N   0  0  0  1  0  0  0  0  0  0  0  0
    1.9422    3.8951    2.9606 O   0  0  0  1  0  0  0  0  0  0  0  0
    0.1733   -3.0531   -1.7187 N   0  0  0  1  0  0  0  0  0  0  0  0
    0.5444    4.2456    3.0863 C   0  0  0  1  0  0  0  0  0  0  0  0
   -2.7080   -1.4151   -0.3273 N   0  0  0  1  0  0  0  0  0  0  0  0
   -1.7187   -1.5217   -1.4157 C   0  0  0  1  0  0  0  0  0  0  0  0
   -4.1722   -0.3114    1.2147 C   0  0  0  1  0  0  0  0  0  0  0  0
   -4.6223    0.8729    1.7665 C   0  0  0  1  0  0  0  0  0  0  0  0
   -4.2164    2.0773    1.3531 N   0  0  0  1  0  0  0  0  0  0  0  0
   -3.3278    2.1148    0.3499 C   0  0  0  1  0  0  0  0  0  0  0  0
   -2.8222    0.9787   -0.2573 C   0  0  0  1  0  0  0  0  0  0  0  0
    3.9089   -2.8322   -3.9371 H   0  0  0  1  0  0  0  0  0  0  0  0
    4.9993    1.6738    0.6960 H   0  0  0  1  0  0  0  0  0  0  0  0
    0.2813    2.6424    1.2520 H   0  0  0  1  0  0  0  0  0  0  0  0
    1.0070    1.1062   -0.4743 H   0  0  0  1  0  0  0  0  0  0  0  0
    4.2723    3.2126    2.4252 H   0  0  0  1  0  0  0  0  0  0  0  0
   -0.2974   -2.1361    0.0785 H   0  0  0  1  0  0  0  0  0  0  0  0
   -2.0497   -4.2750   -1.1770 H   0  0  0  1  0  0  0  0  0  0  0  0
   -1.4037   -4.2396    0.4464 H   0  0  0  1  0  0  0  0  0  0  0  0
   -3.1033   -2.8584    1.1749 H   0  0  0  1  0  0  0  0  0  0  0  0
   -3.9003   -3.1683   -0.3492 H   0  0  0  1  0  0  0  0  0  0  0  0
   -0.0397   -3.8776   -2.2039 H   0  0  0  1  0  0  0  0  0  0  0  0
    0.1789    4.5997    2.1451 H   0  0  0  1  0  0  0  0  0  0  0  0
    0.4344    5.0137    3.8231 H   0  0  0  1  0  0  0  0  0  0  0  0
   -0.0141    3.3827    3.3838 H   0  0  0  1  0  0  0  0  0  0  0  0
   -1.2199   -0.5936   -1.6019 H   0  0  0  1  0  0  0  0  0  0  0  0
   -2.1535   -1.8822   -2.3244 H   0  0  0  1  0  0  0  0  0  0  0  0
   -4.5188   -1.2260    1.5682 H   0  0  0  1  0  0  0  0  0  0  0  0
   -5.3121    0.8245    2.5433 H   0  0  0  1  0  0  0  0  0  0  0  0
   -3.0027    3.0430    0.0116 H   0  0  0  1  0  0  0  0  0  0  0  0
   -2.1313    1.0542   -1.0310 H   0  0  0  1  0  0  0  0  0  0  0  0
  1  3  4  0  0  0  0
  1 14  4  0  0  0  0
  1 21  1  0  0  0  0
  2 14  4  0  0  0  0
  2 15  4  0  0  0  0
  2 30  1  0  0  0  0
  3 16  4  0  0  0  0
  4  5  4  0  0  0  0
  4  7  4  0  0  0  0
  4 17  1  0  0  0  0
  5  9  4  0  0  0  0
  5 31  1  0  0  0  0
  6  7  4  0  0  0  0
  6  8  4  0  0  0  0
  6 32  1  0  0  0  0
  7 33  1  0  0  0  0
  8  9  4  0  0  0  0
  8 20  1  0  0  0  0
  9 34  1  0  0  0  0
 10 11  1  0  0  0  0
 10 21  1  0  0  0  0
 10 24  1  0  0  0  0
 10 35  1  0  0  0  0
 11 12  1  0  0  0  0
 11 36  1  0  0  0  0
 11 37  1  0  0  0  0
 12 23  1  0  0  0  0
 12 38  1  0  0  0  0
 12 39  1  0  0  0  0
 13 23  1  0  0  0  0
 13 25  4  0  0  0  0
 13 29  4  0  0  0  0
 15 16  4  0  0  0  0
 15 18  4  0  0  0  0
 16 17  4  0  0  0  0
 17 19  4  0  0  0  0
 18 19  4  0  0  0  0
 20 22  1  0  0  0  0
 21 40  1  0  0  0  0
 22 41  1  0  0  0  0
 22 42  1  0  0  0  0
 22 43  1  0  0  0  0
 23 24  1  0  0  0  0
 24 44  1  0  0  0  0
 24 45  1  0  0  0  0
 25 26  4  0  0  0  0
 25 46  1  0  0  0  0
 26 27  4  0  0  0  0
 26 47  1  0  0  0  0
 27 28  4  0  0  0  0
 28 29  4  0  0  0  0
 28 48  1  0  0  0  0
 29 49  1  0  0  0  0
M  END
> <ConfClashScore>
0 

> <ConfOneFourInteractionScore>
-0.984874 

> <ConfScore>
0.0641697 

> <ConfScorePBest>
0.00274023 

> <ConfTolerance>
0.491314 

> <HETNAM>
     OWQ A 303  OWQ                                                       

> <pdb_OW>
Q_303 -16.5129 3.80749 7.62812 0.15963 1.39178 -0.28144 -3.20151 0 0 0 -1.30514 0 0 0 0 0 0 0 0 -8.31393

$$$$
6yky_lig_1.pdb
 OpenBabel04162415593D

 49 53  0  0  0  0  0  0  0  0999 V2000
    0.4124   -2.1755   -1.9085 C   0  0  0  1  0  0  0  0  0  0  0  0
    2.0506   -2.7572   -3.4209 C   0  0  0  1  0  0  0  0  0  0  0  0
    1.2070   -1.3553   -1.2552 N   0  0  0  1  0  0  0  0  0  0  0  0
    3.6443    0.4762   -0.1114 C   0  0  0  1  0  0  0  0  0  0  0  0
    4.8551    1.0944    0.1370 C   0  0  0  1  0  0  0  0  0  0  0  0
    2.7218    1.4867    1.8571 C   0  0  0  1  0  0  0  0  0  0  0  0
    2.5768    0.6704    0.7513 C   0  0  0  1  0  0  0  0  0  0  0  0
    3.9362    2.1069    2.1065 C   0  0  0  1  0  0  0  0  0  0  0  0
    5.0005    1.9131    1.2461 C   0  0  0  1  0  0  0  0  0  0  0  0
   -1.5306   -1.8325   -0.3255 C   0  0  0  1  0  0  0  0  0  0  0  0
   -2.5535   -2.8528    0.2217 C   0  0  0  1  0  0  0  0  0  0  0  0
   -3.7794   -2.0840    0.6456 C   0  0  0  1  0  0  0  0  0  0  0  0
   -4.4831    0.3387   -0.0164 C   0  0  0  1  0  0  0  0  0  0  0  0
    0.8161   -2.8613   -2.9636 N   0  0  0  1  0  0  0  0  0  0  0  0
    2.9389   -1.8983   -2.7637 C   0  0  0  1  0  0  0  0  0  0  0  0
    2.4653   -1.1865   -1.6424 C   0  0  0  1  0  0  0  0  0  0  0  0
    3.5188   -0.4357   -1.1991 N   0  0  0  1  0  0  0  0  0  0  0  0
    4.2326   -1.5569   -2.9498 N   0  0  0  1  0  0  0  0  0  0  0  0
    4.5975   -0.7071   -2.0541 N   0  0  0  1  0  0  0  0  0  0  0  0
    3.9603    2.8730    3.2143 O   0  0  0  1  0  0  0  0  0  0  0  0
   -0.8578   -2.3482   -1.5206 N   0  0  0  1  0  0  0  0  0  0  0  0
    5.2081    3.5647    3.4533 C   0  0  0  1  0  0  0  0  0  0  0  0
   -3.5364   -0.7258   -0.0481 N   0  0  0  1  0  0  0  0  0  0  0  0
   -2.3996   -0.6364   -0.6608 C   0  0  0  1  0  0  0  0  0  0  0  0
   -4.9339    0.9174   -1.1883 C   0  0  0  1  0  0  0  0  0  0  0  0
   -5.7821    2.0055   -1.1089 C   0  0  0  1  0  0  0  0  0  0  0  0
   -6.1915    2.5352    0.0479 N   0  0  0  1  0  0  0  0  0  0  0  0
   -5.7432    1.9668    1.1762 C   0  0  0  1  0  0  0  0  0  0  0  0
   -4.8951    0.8732    1.1887 C   0  0  0  1  0  0  0  0  0  0  0  0
    2.3565   -3.3022   -4.2522 H   0  0  0  1  0  0  0  0  0  0  0  0
    5.6572    0.9455   -0.5081 H   0  0  0  1  0  0  0  0  0  0  0  0
    1.9198    1.6357    2.5022 H   0  0  0  1  0  0  0  0  0  0  0  0
    1.6669    0.2019    0.5665 H   0  0  0  1  0  0  0  0  0  0  0  0
    5.9104    2.3816    1.4309 H   0  0  0  1  0  0  0  0  0  0  0  0
   -0.8004   -1.5830    0.4158 H   0  0  0  1  0  0  0  0  0  0  0  0
   -2.1390   -3.3708    1.0613 H   0  0  0  1  0  0  0  0  0  0  0  0
   -2.8102   -3.5575   -0.5414 H   0  0  0  1  0  0  0  0  0  0  0  0
   -4.6757   -2.5497    0.2924 H   0  0  0  1  0  0  0  0  0  0  0  0
   -3.8273   -1.9778    1.7092 H   0  0  0  1  0  0  0  0  0  0  0  0
   -1.4125   -2.8934   -2.1169 H   0  0  0  1  0  0  0  0  0  0  0  0
    5.9763    2.8515    3.6682 H   0  0  0  1  0  0  0  0  0  0  0  0
    5.0945    4.2277    4.2854 H   0  0  0  1  0  0  0  0  0  0  0  0
    5.4766    4.1264    2.5831 H   0  0  0  1  0  0  0  0  0  0  0  0
   -2.5684   -0.6070   -1.7170 H   0  0  0  1  0  0  0  0  0  0  0  0
   -1.9018    0.2596   -0.3537 H   0  0  0  1  0  0  0  0  0  0  0  0
   -4.6402    0.5410   -2.1123 H   0  0  0  1  0  0  0  0  0  0  0  0
   -6.1192    2.4341   -1.9945 H   0  0  0  1  0  0  0  0  0  0  0  0
   -6.0476    2.3672    2.0866 H   0  0  0  1  0  0  0  0  0  0  0  0
   -4.5742    0.4618    2.0883 H   0  0  0  1  0  0  0  0  0  0  0  0
  1  3  4  0  0  0  0
  1 14  4  0  0  0  0
  1 21  1  0  0  0  0
  2 14  4  0  0  0  0
  2 15  4  0  0  0  0
  2 30  1  0  0  0  0
  3 16  4  0  0  0  0
  4  5  4  0  0  0  0
  4  7  4  0  0  0  0
  4 17  1  0  0  0  0
  5  9  4  0  0  0  0
  5 31  1  0  0  0  0
  6  7  4  0  0  0  0
  6  8  4  0  0  0  0
  6 32  1  0  0  0  0
  7 33  1  0  0  0  0
  8  9  4  0  0  0  0
  8 20  1  0  0  0  0
  9 34  1  0  0  0  0
 10 11  1  0  0  0  0
 10 21  1  0  0  0  0
 10 24  1  0  0  0  0
 10 35  1  0  0  0  0
 11 12  1  0  0  0  0
 11 36  1  0  0  0  0
 11 37  1  0  0  0  0
 12 23  1  0  0  0  0
 12 38  1  0  0  0  0
 12 39  1  0  0  0  0
 13 23  1  0  0  0  0
 13 25  4  0  0  0  0
 13 29  4  0  0  0  0
 15 16  4  0  0  0  0
 15 18  4  0  0  0  0
 16 17  4  0  0  0  0
 17 19  4  0  0  0  0
 18 19  4  0  0  0  0
 20 22  1  0  0  0  0
 21 40  1  0  0  0  0
 22 41  1  0  0  0  0
 22 42  1  0  0  0  0
 22 43  1  0  0  0  0
 23 24  1  0  0  0  0
 24 44  1  0  0  0  0
 24 45  1  0  0  0  0
 25 26  4  0  0  0  0
 25 46  1  0  0  0  0
 26 27  4  0  0  0  0
 26 47  1  0  0  0  0
 27 28  4  0  0  0  0
 28 29  4  0  0  0  0
 28 48  1  0  0  0  0
 29 49  1  0  0  0  0
M  END
> <ConfClashScore>
0 

> <ConfOneFourInteractionScore>
-0.986948 

> <ConfScore>
0.0644474 

> <ConfScorePBest>
0.0027269 

> <ConfTolerance>
0.645339 

> <HETNAM>
     OWQ A 303  OWQ                                                       

> <pdb_OW>
Q_303 -16.5129 3.80749 7.62812 0.15963 1.39178 -0.28144 -3.20151 0 0 0 -1.30514 0 0 0 0 0 0 0 0 -8.31393

$$$$
6yky_lig_1.pdb
 OpenBabel04162415593D

 49 53  0  0  0  0  0  0  0  0999 V2000
    3.1383   -0.9556   -1.3662 C   0  0  0  1  0  0  0  0  0  0  0  0
    3.1680   -1.8140   -3.5044 C   0  0  0  1  0  0  0  0  0  0  0  0
    1.8257   -1.0028   -1.2891 N   0  0  0  1  0  0  0  0  0  0  0  0
   -1.3634   -1.5130   -1.6944 C   0  0  0  1  0  0  0  0  0  0  0  0
   -1.2099   -0.8110   -0.5138 C   0  0  0  1  0  0  0  0  0  0  0  0
   -3.6071   -2.0797   -1.0684 C   0  0  0  1  0  0  0  0  0  0  0  0
   -2.5628   -2.1506   -1.9710 C   0  0  0  1  0  0  0  0  0  0  0  0
   -3.4533   -1.3756    0.1158 C   0  0  0  1  0  0  0  0  0  0  0  0
   -2.2574   -0.7400    0.3913 C   0  0  0  1  0  0  0  0  0  0  0  0
    3.2221    0.0598    0.8832 C   0  0  0  1  0  0  0  0  0  0  0  0
    2.2164   -0.9361    1.5024 C   0  0  0  1  0  0  0  0  0  0  0  0
    1.0148   -0.1455    1.9552 C   0  0  0  1  0  0  0  0  0  0  0  0
    0.3002    2.2627    1.2536 C   0  0  0  1  0  0  0  0  0  0  0  0
    3.7986   -1.3487   -2.4414 N   0  0  0  1  0  0  0  0  0  0  0  0
    1.7706   -1.8862   -3.4769 C   0  0  0  1  0  0  0  0  0  0  0  0
    1.1075   -1.4560   -2.3092 C   0  0  0  1  0  0  0  0  0  0  0  0
   -0.2278   -1.6307   -2.5470 N   0  0  0  1  0  0  0  0  0  0  0  0
    0.8298   -2.2954   -4.3557 N   0  0  0  1  0  0  0  0  0  0  0  0
   -0.3427   -2.1582   -3.8419 N   0  0  0  1  0  0  0  0  0  0  0  0
   -4.4695   -1.3109    0.9979 O   0  0  0  1  0  0  0  0  0  0  0  0
    3.8346   -0.4906   -0.3134 N   0  0  0  1  0  0  0  0  0  0  0  0
   -4.2800   -0.3724    2.0822 C   0  0  0  1  0  0  0  0  0  0  0  0
    1.2375    1.1902    1.2128 N   0  0  0  1  0  0  0  0  0  0  0  0
    2.3479    1.2528    0.5502 C   0  0  0  1  0  0  0  0  0  0  0  0
    0.5305    3.4220    0.5363 C   0  0  0  1  0  0  0  0  0  0  0  0
   -0.4459    4.3998    0.5220 C   0  0  0  1  0  0  0  0  0  0  0  0
   -1.6086    4.2868    1.1713 N   0  0  0  1  0  0  0  0  0  0  0  0
   -1.8167    3.1595    1.8663 C   0  0  0  1  0  0  0  0  0  0  0  0
   -0.8956    2.1286    1.9316 C   0  0  0  1  0  0  0  0  0  0  0  0
    3.6988   -2.1203   -4.3446 H   0  0  0  1  0  0  0  0  0  0  0  0
   -0.3087   -0.3360   -0.3046 H   0  0  0  1  0  0  0  0  0  0  0  0
   -4.5083   -2.5547   -1.2776 H   0  0  0  1  0  0  0  0  0  0  0  0
   -2.6768   -2.6822   -2.8575 H   0  0  0  1  0  0  0  0  0  0  0  0
   -2.1433   -0.2084    1.2779 H   0  0  0  1  0  0  0  0  0  0  0  0
    3.9848    0.3246    1.5854 H   0  0  0  1  0  0  0  0  0  0  0  0
    2.6626   -1.4331    2.3384 H   0  0  0  1  0  0  0  0  0  0  0  0
    1.9227   -1.6603    0.7715 H   0  0  0  1  0  0  0  0  0  0  0  0
    0.1012   -0.6139    1.6539 H   0  0  0  1  0  0  0  0  0  0  0  0
    1.0129   -0.0086    3.0164 H   0  0  0  1  0  0  0  0  0  0  0  0
    4.8130   -0.5252   -0.3563 H   0  0  0  1  0  0  0  0  0  0  0  0
   -4.3879    0.6261    1.7133 H   0  0  0  1  0  0  0  0  0  0  0  0
   -3.3001   -0.4964    2.4937 H   0  0  0  1  0  0  0  0  0  0  0  0
   -5.0118   -0.5528    2.8418 H   0  0  0  1  0  0  0  0  0  0  0  0
    2.8644    2.1532    0.8100 H   0  0  0  1  0  0  0  0  0  0  0  0
    2.1345    1.2533   -0.4983 H   0  0  0  1  0  0  0  0  0  0  0  0
    1.4217    3.5557    0.0171 H   0  0  0  1  0  0  0  0  0  0  0  0
   -0.2668    5.2681   -0.0217 H   0  0  0  1  0  0  0  0  0  0  0  0
   -2.7141    3.0544    2.3814 H   0  0  0  1  0  0  0  0  0  0  0  0
   -1.0999    1.2694    2.4808 H   0  0  0  1  0  0  0  0  0  0  0  0
  1  3  4  0  0  0  0
  1 14  4  0  0  0  0
  1 21  1  0  0  0  0
  2 14  4  0  0  0  0
  2 15  4  0  0  0  0
  2 30  1  0  0  0  0
  3 16  4  0  0  0  0
  4  5  4  0  0  0  0
  4  7  4  0  0  0  0
  4 17  1  0  0  0  0
  5  9  4  0  0  0  0
  5 31  1  0  0  0  0
  6  7  4  0  0  0  0
  6  8  4  0  0  0  0
  6 32  1  0  0  0  0
  7 33  1  0  0  0  0
  8  9  4  0  0  0  0
  8 20  1  0  0  0  0
  9 34  1  0  0  0  0
 10 11  1  0  0  0  0
 10 21  1  0  0  0  0
 10 24  1  0  0  0  0
 10 35  1  0  0  0  0
 11 12  1  0  0  0  0
 11 36  1  0  0  0  0
 11 37  1  0  0  0  0
 12 23  1  0  0  0  0
 12 38  1  0  0  0  0
 12 39  1  0  0  0  0
 13 23  1  0  0  0  0
 13 25  4  0  0  0  0
 13 29  4  0  0  0  0
 15 16  4  0  0  0  0
 15 18  4  0  0  0  0
 16 17  4  0  0  0  0
 17 19  4  0  0  0  0
 18 19  4  0  0  0  0
 20 22  1  0  0  0  0
 21 40  1  0  0  0  0
 22 41  1  0  0  0  0
 22 42  1  0  0  0  0
 22 43  1  0  0  0  0
 23 24  1  0  0  0  0
 24 44  1  0  0  0  0
 24 45  1  0  0  0  0
 25 26  4  0  0  0  0
 25 46  1  0  0  0  0
 26 27  4  0  0  0  0
 26 47  1  0  0  0  0
 27 28  4  0  0  0  0
 28 29  4  0  0  0  0
 28 48  1  0  0  0  0
 29 49  1  0  0  0  0
M  END
> <ConfClashScore>
0 

> <ConfOneFourInteractionScore>
-0.983503 

> <ConfScore>
0.0647981 

> <ConfScorePBest>
0.00271357 

> <ConfTolerance>
0.558622 

> <HETNAM>
     OWQ A 303  OWQ                                                       

> <pdb_OW>
Q_303 -16.5129 3.80749 7.62812 0.15963 1.39178 -0.28144 -3.20151 0 0 0 -1.30514 0 0 0 0 0 0 0 0 -8.31393

$$$$
6yky_lig_1.pdb
 OpenBabel04162415593D

 49 53  0  0  0  0  0  0  0  0999 V2000
   -0.0616   -0.3687    0.5734 C   0  0  0  1  0  0  0  0  0  0  0  0
   -2.0509   -0.5070   -0.5811 C   0  0  0  1  0  0  0  0  0  0  0  0
    0.6329   -0.8795   -0.4204 N   0  0  0  1  0  0  0  0  0  0  0  0
    1.7617   -2.0656   -3.1984 C   0  0  0  1  0  0  0  0  0  0  0  0
    2.4418   -3.1646   -2.7087 C   0  0  0  1  0  0  0  0  0  0  0  0
    3.6996   -1.4234   -4.4550 C   0  0  0  1  0  0  0  0  0  0  0  0
    2.3923   -1.1922   -4.0708 C   0  0  0  1  0  0  0  0  0  0  0  0
    4.3819   -2.5256   -3.9639 C   0  0  0  1  0  0  0  0  0  0  0  0
    3.7530   -3.3963   -3.0941 C   0  0  0  1  0  0  0  0  0  0  0  0
   -0.0834    0.4919    2.8926 C   0  0  0  1  0  0  0  0  0  0  0  0
   -1.1061   -0.5282    3.4403 C   0  0  0  1  0  0  0  0  0  0  0  0
   -2.3317    0.2409    3.8649 C   0  0  0  1  0  0  0  0  0  0  0  0
   -3.0283    2.6559    3.2031 C   0  0  0  1  0  0  0  0  0  0  0  0
   -1.3683   -0.1844    0.5024 N   0  0  0  1  0  0  0  0  0  0  0  0
   -1.3620   -1.0547   -1.6692 C   0  0  0  1  0  0  0  0  0  0  0  0
    0.0315   -1.2336   -1.5495 C   0  0  0  1  0  0  0  0  0  0  0  0
    0.4459   -1.7759   -2.7345 N   0  0  0  1  0  0  0  0  0  0  0  0
   -1.7271   -1.4869   -2.8960 N   0  0  0  1  0  0  0  0  0  0  0  0
   -0.6957   -1.9123   -3.5385 N   0  0  0  1  0  0  0  0  0  0  0  0
    5.6552   -2.8495   -4.2622 O   0  0  0  1  0  0  0  0  0  0  0  0
    0.5828   -0.0196    1.7074 N   0  0  0  1  0  0  0  0  0  0  0  0
    6.2511   -2.0723   -5.3269 C   0  0  0  1  0  0  0  0  0  0  0  0
   -2.0887    1.5991    3.1710 N   0  0  0  1  0  0  0  0  0  0  0  0
   -0.9522    1.6882    2.5577 C   0  0  0  1  0  0  0  0  0  0  0  0
   -3.0261    3.5698    4.2406 C   0  0  0  1  0  0  0  0  0  0  0  0
   -3.9591    4.5891    4.2305 C   0  0  0  1  0  0  0  0  0  0  0  0
   -4.8727    4.7396    3.2667 N   0  0  0  1  0  0  0  0  0  0  0  0
   -4.8662    3.8439    2.2692 C   0  0  0  1  0  0  0  0  0  0  0  0
   -3.9659    2.7952    2.1984 C   0  0  0  1  0  0  0  0  0  0  0  0
   -3.0791   -0.3572   -0.6249 H   0  0  0  1  0  0  0  0  0  0  0  0
    1.9699   -3.8176   -2.0511 H   0  0  0  1  0  0  0  0  0  0  0  0
    4.1715   -0.7704   -5.1127 H   0  0  0  1  0  0  0  0  0  0  0  0
    1.8817   -0.3630   -4.4361 H   0  0  0  1  0  0  0  0  0  0  0  0
    4.2635   -4.2255   -2.7288 H   0  0  0  1  0  0  0  0  0  0  0  0
    0.6473    0.7412    3.6334 H   0  0  0  1  0  0  0  0  0  0  0  0
   -0.6914   -1.0463    4.2797 H   0  0  0  1  0  0  0  0  0  0  0  0
   -1.3635   -1.2328    2.6773 H   0  0  0  1  0  0  0  0  0  0  0  0
   -3.2283   -0.2246    3.5122 H   0  0  0  1  0  0  0  0  0  0  0  0
   -2.3789    0.3470    4.9285 H   0  0  0  1  0  0  0  0  0  0  0  0
    1.5576   -0.1170    1.7323 H   0  0  0  1  0  0  0  0  0  0  0  0
    7.2818   -2.3402   -5.4307 H   0  0  0  1  0  0  0  0  0  0  0  0
    6.1753   -1.0309   -5.0934 H   0  0  0  1  0  0  0  0  0  0  0  0
    5.7370   -2.2711   -6.2440 H   0  0  0  1  0  0  0  0  0  0  0  0
   -1.1217    1.7176    1.5016 H   0  0  0  1  0  0  0  0  0  0  0  0
   -0.4541    2.5840    2.8646 H   0  0  0  1  0  0  0  0  0  0  0  0
   -2.3353    3.4915    5.0141 H   0  0  0  1  0  0  0  0  0  0  0  0
   -3.9498    5.2743    5.0129 H   0  0  0  1  0  0  0  0  0  0  0  0
   -5.5720    3.9420    1.5117 H   0  0  0  1  0  0  0  0  0  0  0  0
   -3.9948    2.1247    1.4039 H   0  0  0  1  0  0  0  0  0  0  0  0
  1  3  4  0  0  0  0
  1 14  4  0  0  0  0
  1 21  1  0  0  0  0
  2 14  4  0  0  0  0
  2 15  4  0  0  0  0
  2 30  1  0  0  0  0
  3 16  4  0  0  0  0
  4  5  4  0  0  0  0
  4  7  4  0  0  0  0
  4 17  1  0  0  0  0
  5  9  4  0  0  0  0
  5 31  1  0  0  0  0
  6  7  4  0  0  0  0
  6  8  4  0  0  0  0
  6 32  1  0  0  0  0
  7 33  1  0  0  0  0
  8  9  4  0  0  0  0
  8 20  1  0  0  0  0
  9 34  1  0  0  0  0
 10 11  1  0  0  0  0
 10 21  1  0  0  0  0
 10 24  1  0  0  0  0
 10 35  1  0  0  0  0
 11 12  1  0  0  0  0
 11 36  1  0  0  0  0
 11 37  1  0  0  0  0
 12 23  1  0  0  0  0
 12 38  1  0  0  0  0
 12 39  1  0  0  0  0
 13 23  1  0  0  0  0
 13 25  4  0  0  0  0
 13 29  4  0  0  0  0
 15 16  4  0  0  0  0
 15 18  4  0  0  0  0
 16 17  4  0  0  0  0
 17 19  4  0  0  0  0
 18 19  4  0  0  0  0
 20 22  1  0  0  0  0
 21 40  1  0  0  0  0
 22 41  1  0  0  0  0
 22 42  1  0  0  0  0
 22 43  1  0  0  0  0
 23 24  1  0  0  0  0
 24 44  1  0  0  0  0
 24 45  1  0  0  0  0
 25 26  4  0  0  0  0
 25 46  1  0  0  0  0
 26 27  4  0  0  0  0
 26 47  1  0  0  0  0
 27 28  4  0  0  0  0
 28 29  4  0  0  0  0
 28 48  1  0  0  0  0
 29 49  1  0  0  0  0
M  END
> <ConfClashScore>
0 

> <ConfOneFourInteractionScore>
-0.983503 

> <ConfScore>
0.0651223 

> <ConfScorePBest>
0.00270024 

> <ConfTolerance>
0.531931 

> <HETNAM>
     OWQ A 303  OWQ                                                       

> <pdb_OW>
Q_303 -16.5129 3.80749 7.62812 0.15963 1.39178 -0.28144 -3.20151 0 0 0 -1.30514 0 0 0 0 0 0 0 0 -8.31393

$$$$
6yky_lig_1.pdb
 OpenBabel04162415593D

 49 53  0  0  0  0  0  0  0  0999 V2000
    1.1257   -0.4689    1.1761 C   0  0  0  1  0  0  0  0  0  0  0  0
    3.0101   -1.0635    2.3614 C   0  0  0  1  0  0  0  0  0  0  0  0
    1.6319   -0.8728    0.0308 N   0  0  0  1  0  0  0  0  0  0  0  0
    3.4376   -2.0396   -2.4148 C   0  0  0  1  0  0  0  0  0  0  0  0
    2.4342   -1.2872   -2.9956 C   0  0  0  1  0  0  0  0  0  0  0  0
    3.8355   -3.1317   -4.5115 C   0  0  0  1  0  0  0  0  0  0  0  0
    4.1376   -2.9651   -3.1731 C   0  0  0  1  0  0  0  0  0  0  0  0
    2.8292   -2.3772   -5.0942 C   0  0  0  1  0  0  0  0  0  0  0  0
    2.1314   -1.4544   -4.3379 C   0  0  0  1  0  0  0  0  0  0  0  0
   -0.7739    0.5527    2.3874 C   0  0  0  1  0  0  0  0  0  0  0  0
   -1.8040   -0.4673    2.9215 C   0  0  0  1  0  0  0  0  0  0  0  0
   -3.0201    0.3057    3.3656 C   0  0  0  1  0  0  0  0  0  0  0  0
   -3.6853    2.7261    2.7499 C   0  0  0  1  0  0  0  0  0  0  0  0
    1.7907   -0.5586    2.3146 N   0  0  0  1  0  0  0  0  0  0  0  0
    3.5974   -1.5091    1.1717 C   0  0  0  1  0  0  0  0  0  0  0  0
    2.8516   -1.3941   -0.0193 C   0  0  0  1  0  0  0  0  0  0  0  0
    3.6471   -1.8940   -1.0129 N   0  0  0  1  0  0  0  0  0  0  0  0
    4.7892   -2.0622    0.8576 N   0  0  0  1  0  0  0  0  0  0  0  0
    4.8465   -2.2970   -0.4070 N   0  0  0  1  0  0  0  0  0  0  0  0
    2.6198   -2.6309   -6.4079 O   0  0  0  1  0  0  0  0  0  0  0  0
   -0.1180    0.0564    1.1901 N   0  0  0  1  0  0  0  0  0  0  0  0
    1.5508   -1.9198   -7.0513 C   0  0  0  1  0  0  0  0  0  0  0  0
   -2.7672    1.6738    2.6952 N   0  0  0  1  0  0  0  0  0  0  0  0
   -1.6327    1.7631    2.0782 C   0  0  0  1  0  0  0  0  0  0  0  0
   -3.4678    3.8892    2.0346 C   0  0  0  1  0  0  0  0  0  0  0  0
   -4.4033    4.9032    2.1142 C   0  0  0  1  0  0  0  0  0  0  0  0
   -5.5141    4.8220    2.8530 N   0  0  0  1  0  0  0  0  0  0  0  0
   -5.7100    3.6905    3.5448 C   0  0  0  1  0  0  0  0  0  0  0  0
   -4.8276    2.6246    3.5197 C   0  0  0  1  0  0  0  0  0  0  0  0
    3.5233   -1.1288    3.2636 H   0  0  0  1  0  0  0  0  0  0  0  0
    1.9064   -0.5957   -2.4256 H   0  0  0  1  0  0  0  0  0  0  0  0
    4.3633   -3.8232   -5.0815 H   0  0  0  1  0  0  0  0  0  0  0  0
    4.8899   -3.5340   -2.7350 H   0  0  0  1  0  0  0  0  0  0  0  0
    1.3791   -0.8855   -4.7760 H   0  0  0  1  0  0  0  0  0  0  0  0
   -0.0375    0.7816    3.1292 H   0  0  0  1  0  0  0  0  0  0  0  0
   -2.0715   -1.1555    2.1471 H   0  0  0  1  0  0  0  0  0  0  0  0
   -1.3904   -1.0043    3.7494 H   0  0  0  1  0  0  0  0  0  0  0  0
   -3.9227   -0.1447    3.0088 H   0  0  0  1  0  0  0  0  0  0  0  0
   -3.0616    0.3931    4.4312 H   0  0  0  1  0  0  0  0  0  0  0  0
   -0.6072    0.1058    0.3424 H   0  0  0  1  0  0  0  0  0  0  0  0
    1.4149   -0.9715   -6.5748 H   0  0  0  1  0  0  0  0  0  0  0  0
    0.6480   -2.4891   -6.9761 H   0  0  0  1  0  0  0  0  0  0  0  0
    1.7930   -1.7690   -8.0826 H   0  0  0  1  0  0  0  0  0  0  0  0
   -1.8066    1.8132    1.0236 H   0  0  0  1  0  0  0  0  0  0  0  0
   -1.1245    2.6485    2.3989 H   0  0  0  1  0  0  0  0  0  0  0  0
   -2.6163    3.9988    1.4477 H   0  0  0  1  0  0  0  0  0  0  0  0
   -4.2343    5.7741    1.5714 H   0  0  0  1  0  0  0  0  0  0  0  0
   -6.5669    3.6098    4.1287 H   0  0  0  1  0  0  0  0  0  0  0  0
   -5.0210    1.7636    4.0701 H   0  0  0  1  0  0  0  0  0  0  0  0
  1  3  4  0  0  0  0
  1 14  4  0  0  0  0
  1 21  1  0  0  0  0
  2 14  4  0  0  0  0
  2 15  4  0  0  0  0
  2 30  1  0  0  0  0
  3 16  4  0  0  0  0
  4  5  4  0  0  0  0
  4  7  4  0  0  0  0
  4 17  1  0  0  0  0
  5  9  4  0  0  0  0
  5 31  1  0  0  0  0
  6  7  4  0  0  0  0
  6  8  4  0  0  0  0
  6 32  1  0  0  0  0
  7 33  1  0  0  0  0
  8  9  4  0  0  0  0
  8 20  1  0  0  0  0
  9 34  1  0  0  0  0
 10 11  1  0  0  0  0
 10 21  1  0  0  0  0
 10 24  1  0  0  0  0
 10 35  1  0  0  0  0
 11 12  1  0  0  0  0
 11 36  1  0  0  0  0
 11 37  1  0  0  0  0
 12 23  1  0  0  0  0
 12 38  1  0  0  0  0
 12 39  1  0  0  0  0
 13 23  1  0  0  0  0
 13 25  4  0  0  0  0
 13 29  4  0  0  0  0
 15 16  4  0  0  0  0
 15 18  4  0  0  0  0
 16 17  4  0  0  0  0
 17 19  4  0  0  0  0
 18 19  4  0  0  0  0
 20 22  1  0  0  0  0
 21 40  1  0  0  0  0
 22 41  1  0  0  0  0
 22 42  1  0  0  0  0
 22 43  1  0  0  0  0
 23 24  1  0  0  0  0
 24 44  1  0  0  0  0
 24 45  1  0  0  0  0
 25 26  4  0  0  0  0
 25 46  1  0  0  0  0
 26 27  4  0  0  0  0
 26 47  1  0  0  0  0
 27 28  4  0  0  0  0
 28 29  4  0  0  0  0
 28 48  1  0  0  0  0
 29 49  1  0  0  0  0
M  END
> <ConfClashScore>
0 

> <ConfOneFourInteractionScore>
-0.986948 

> <ConfScore>
0.0655568 

> <ConfScorePBest>
0.00268692 

> <ConfTolerance>
0.547271 

> <HETNAM>
     OWQ A 303  OWQ                                                       

> <pdb_OW>
Q_303 -16.5129 3.80749 7.62812 0.15963 1.39178 -0.28144 -3.20151 0 0 0 -1.30514 0 0 0 0 0 0 0 0 -8.31393

$$$$
6yky_lig_1.pdb
 OpenBabel04162415593D

 49 53  0  0  0  0  0  0  0  0999 V2000
    1.7316    0.1289   -2.3556 C   0  0  0  1  0  0  0  0  0  0  0  0
    2.9890   -1.2732   -3.6832 C   0  0  0  1  0  0  0  0  0  0  0  0
    1.7713   -0.6918   -1.3282 N   0  0  0  1  0  0  0  0  0  0  0  0
    2.1713   -3.1809    0.7503 C   0  0  0  1  0  0  0  0  0  0  0  0
    3.0697   -3.4102    1.7752 C   0  0  0  1  0  0  0  0  0  0  0  0
    0.3528   -3.6872    2.2281 C   0  0  0  1  0  0  0  0  0  0  0  0
    0.8109   -3.3222    0.9763 C   0  0  0  1  0  0  0  0  0  0  0  0
    1.2537   -3.9173    3.2562 C   0  0  0  1  0  0  0  0  0  0  0  0
    2.6100   -3.7764    3.0306 C   0  0  0  1  0  0  0  0  0  0  0  0
    0.4072    1.7861   -1.0254 C   0  0  0  1  0  0  0  0  0  0  0  0
   -0.6230    0.7659   -0.4919 C   0  0  0  1  0  0  0  0  0  0  0  0
   -1.8396    1.5386   -0.0485 C   0  0  0  1  0  0  0  0  0  0  0  0
   -2.5054    3.9593   -0.6646 C   0  0  0  1  0  0  0  0  0  0  0  0
    2.3220   -0.1473   -3.5052 N   0  0  0  1  0  0  0  0  0  0  0  0
    3.0634   -2.1832   -2.6226 C   0  0  0  1  0  0  0  0  0  0  0  0
    2.4187   -1.8474   -1.4145 C   0  0  0  1  0  0  0  0  0  0  0  0
    2.6448   -2.8927   -0.5623 N   0  0  0  1  0  0  0  0  0  0  0  0
    3.6416   -3.3928   -2.4565 N   0  0  0  1  0  0  0  0  0  0  0  0
    3.4147   -3.8302   -1.2671 N   0  0  0  1  0  0  0  0  0  0  0  0
    0.7612   -4.1748    4.4875 O   0  0  0  1  0  0  0  0  0  0  0  0
    1.0701    1.2852   -2.2336 N   0  0  0  1  0  0  0  0  0  0  0  0
   -0.6488   -4.3909    4.6540 C   0  0  0  1  0  0  0  0  0  0  0  0
   -1.5866    2.9067   -0.7188 N   0  0  0  1  0  0  0  0  0  0  0  0
   -0.4517    2.9963   -1.3351 C   0  0  0  1  0  0  0  0  0  0  0  0
   -3.4987    4.0114   -1.6250 C   0  0  0  1  0  0  0  0  0  0  0  0
   -4.4145    5.0451   -1.5787 C   0  0  0  1  0  0  0  0  0  0  0  0
   -4.3909    6.0068   -0.6508 N   0  0  0  1  0  0  0  0  0  0  0  0
   -3.4200    5.9464    0.2716 C   0  0  0  1  0  0  0  0  0  0  0  0
   -2.4649    4.9453    0.3019 C   0  0  0  1  0  0  0  0  0  0  0  0
    3.4494   -1.4792   -4.5927 H   0  0  0  1  0  0  0  0  0  0  0  0
    4.0905   -3.3081    1.6045 H   0  0  0  1  0  0  0  0  0  0  0  0
   -0.6681   -3.7893    2.3988 H   0  0  0  1  0  0  0  0  0  0  0  0
    0.1352   -3.1535    0.2039 H   0  0  0  1  0  0  0  0  0  0  0  0
    3.2858   -3.9450    3.8030 H   0  0  0  1  0  0  0  0  0  0  0  0
    1.1431    2.0152   -0.2832 H   0  0  0  1  0  0  0  0  0  0  0  0
   -0.8899    0.0776   -1.2664 H   0  0  0  1  0  0  0  0  0  0  0  0
   -0.2098    0.2289    0.3363 H   0  0  0  1  0  0  0  0  0  0  0  0
   -2.7419    1.0879   -0.4058 H   0  0  0  1  0  0  0  0  0  0  0  0
   -1.8816    1.6260    1.0171 H   0  0  0  1  0  0  0  0  0  0  0  0
    1.0239    1.8537   -3.0305 H   0  0  0  1  0  0  0  0  0  0  0  0
   -0.9202   -4.2086    5.6728 H   0  0  0  1  0  0  0  0  0  0  0  0
   -0.8872   -5.4019    4.3971 H   0  0  0  1  0  0  0  0  0  0  0  0
   -1.1895   -3.7233    4.0162 H   0  0  0  1  0  0  0  0  0  0  0  0
   -0.6251    3.0463   -2.3898 H   0  0  0  1  0  0  0  0  0  0  0  0
    0.0560    3.8818   -1.0142 H   0  0  0  1  0  0  0  0  0  0  0  0
   -3.5554    3.2862   -2.3683 H   0  0  0  1  0  0  0  0  0  0  0  0
   -5.1603    5.0764   -2.3028 H   0  0  0  1  0  0  0  0  0  0  0  0
   -3.3826    6.6879    0.9999 H   0  0  0  1  0  0  0  0  0  0  0  0
   -1.7306    4.9355    1.0384 H   0  0  0  1  0  0  0  0  0  0  0  0
  1  3  4  0  0  0  0
  1 14  4  0  0  0  0
  1 21  1  0  0  0  0
  2 14  4  0  0  0  0
  2 15  4  0  0  0  0
  2 30  1  0  0  0  0
  3 16  4  0  0  0  0
  4  5  4  0  0  0  0
  4  7  4  0  0  0  0
  4 17  1  0  0  0  0
  5  9  4  0  0  0  0
  5 31  1  0  0  0  0
  6  7  4  0  0  0  0
  6  8  4  0  0  0  0
  6 32  1  0  0  0  0
  7 33  1  0  0  0  0
  8  9  4  0  0  0  0
  8 20  1  0  0  0  0
  9 34  1  0  0  0  0
 10 11  1  0  0  0  0
 10 21  1  0  0  0  0
 10 24  1  0  0  0  0
 10 35  1  0  0  0  0
 11 12  1  0  0  0  0
 11 36  1  0  0  0  0
 11 37  1  0  0  0  0
 12 23  1  0  0  0  0
 12 38  1  0  0  0  0
 12 39  1  0  0  0  0
 13 23  1  0  0  0  0
 13 25  4  0  0  0  0
 13 29  4  0  0  0  0
 15 16  4  0  0  0  0
 15 18  4  0  0  0  0
 16 17  4  0  0  0  0
 17 19  4  0  0  0  0
 18 19  4  0  0  0  0
 20 22  1  0  0  0  0
 21 40  1  0  0  0  0
 22 41  1  0  0  0  0
 22 42  1  0  0  0  0
 22 43  1  0  0  0  0
 23 24  1  0  0  0  0
 24 44  1  0  0  0  0
 24 45  1  0  0  0  0
 25 26  4  0  0  0  0
 25 46  1  0  0  0  0
 26 27  4  0  0  0  0
 26 47  1  0  0  0  0
 27 28  4  0  0  0  0
 28 29  4  0  0  0  0
 28 48  1  0  0  0  0
 29 49  1  0  0  0  0
M  END
> <ConfClashScore>
0 

> <ConfOneFourInteractionScore>
-0.987833 

> <ConfScore>
0.0660426 

> <ConfScorePBest>
0.00267359 

> <ConfTolerance>
0.518442 

> <HETNAM>
     OWQ A 303  OWQ                                                       

> <pdb_OW>
Q_303 -16.5129 3.80749 7.62812 0.15963 1.39178 -0.28144 -3.20151 0 0 0 -1.30514 0 0 0 0 0 0 0 0 -8.31393

$$$$
6yky_lig_1.pdb
 OpenBabel04162415593D

 49 53  0  0  0  0  0  0  0  0999 V2000
    1.1540   -1.0651   -2.6974 C   0  0  0  1  0  0  0  0  0  0  0  0
    3.0446   -2.0466   -3.5760 C   0  0  0  1  0  0  0  0  0  0  0  0
    1.6341   -1.0704   -1.4725 N   0  0  0  1  0  0  0  0  0  0  0  0
    3.4207   -1.3964    1.2713 C   0  0  0  1  0  0  0  0  0  0  0  0
    2.4080   -2.0064    1.9871 C   0  0  0  1  0  0  0  0  0  0  0  0
    3.9515   -0.0390    3.1746 C   0  0  0  1  0  0  0  0  0  0  0  0
    4.1919   -0.4094    1.8650 C   0  0  0  1  0  0  0  0  0  0  0  0
    2.9357   -0.6507    3.8927 C   0  0  0  1  0  0  0  0  0  0  0  0
    2.1669   -1.6349    3.3006 C   0  0  0  1  0  0  0  0  0  0  0  0
   -0.9230   -0.0104   -1.8649 C   0  0  0  1  0  0  0  0  0  0  0  0
   -1.9933   -1.0325   -1.3917 C   0  0  0  1  0  0  0  0  0  0  0  0
   -3.2035   -0.2291   -0.8711 C   0  0  0  1  0  0  0  0  0  0  0  0
   -3.7189    2.2389   -1.1496 C   0  0  0  1  0  0  0  0  0  0  0  0
    1.8349   -1.5386   -3.7263 N   0  0  0  1  0  0  0  0  0  0  0  0
    3.6043   -2.0772   -2.2937 C   0  0  0  1  0  0  0  0  0  0  0  0
    2.8423   -1.5613   -1.2253 C   0  0  0  1  0  0  0  0  0  0  0  0
    3.6118   -1.7123   -0.1050 N   0  0  0  1  0  0  0  0  0  0  0  0
    4.7795   -2.5105   -1.7876 N   0  0  0  1  0  0  0  0  0  0  0  0
    4.8122   -2.3110   -0.5160 N   0  0  0  1  0  0  0  0  0  0  0  0
    2.7908   -0.2025    5.1624 O   0  0  0  1  0  0  0  0  0  0  0  0
   -0.0786   -0.5580   -2.9124 N   0  0  0  1  0  0  0  0  0  0  0  0
    1.7458   -0.7925    5.9513 C   0  0  0  1  0  0  0  0  0  0  0  0
   -2.9749    1.1238   -1.4527 N   0  0  0  1  0  0  0  0  0  0  0  0
   -1.8447    1.1046   -2.3957 C   0  0  0  1  0  0  0  0  0  0  0  0
   -4.9549    2.0598   -0.5564 C   0  0  0  1  0  0  0  0  0  0  0  0
   -5.7097    3.1743   -0.2437 C   0  0  0  1  0  0  0  0  0  0  0  0
   -5.3087    4.4256   -0.4877 N   0  0  0  1  0  0  0  0  0  0  0  0
   -4.1102    4.5844   -1.0671 C   0  0  0  1  0  0  0  0  0  0  0  0
   -3.2882    3.5251   -1.4101 C   0  0  0  1  0  0  0  0  0  0  0  0
    3.5705   -2.4162   -4.3936 H   0  0  0  1  0  0  0  0  0  0  0  0
    1.8268   -2.7441    1.5402 H   0  0  0  1  0  0  0  0  0  0  0  0
    4.5327    0.6987    3.6214 H   0  0  0  1  0  0  0  0  0  0  0  0
    4.9514    0.0524    1.3250 H   0  0  0  1  0  0  0  0  0  0  0  0
    1.4075   -2.0967    3.8405 H   0  0  0  1  0  0  0  0  0  0  0  0
   -0.3120    0.3300   -1.0551 H   0  0  0  1  0  0  0  0  0  0  0  0
   -1.5949   -1.6418   -0.6076 H   0  0  0  1  0  0  0  0  0  0  0  0
   -2.2921   -1.6537   -2.2100 H   0  0  0  1  0  0  0  0  0  0  0  0
   -4.1238   -0.6485   -1.2206 H   0  0  0  1  0  0  0  0  0  0  0  0
   -3.2109   -0.1928    0.1983 H   0  0  0  1  0  0  0  0  0  0  0  0
   -0.4242   -0.5593   -3.8295 H   0  0  0  1  0  0  0  0  0  0  0  0
    1.8426   -1.8579    5.9328 H   0  0  0  1  0  0  0  0  0  0  0  0
    0.7946   -0.5139    5.5484 H   0  0  0  1  0  0  0  0  0  0  0  0
    1.8219   -0.4452    6.9605 H   0  0  0  1  0  0  0  0  0  0  0  0
   -1.3372    2.0466   -2.3977 H   0  0  0  1  0  0  0  0  0  0  0  0
   -2.1815    0.8782   -3.3858 H   0  0  0  1  0  0  0  0  0  0  0  0
   -5.3098    1.1044   -0.3496 H   0  0  0  1  0  0  0  0  0  0  0  0
   -6.6373    3.0320    0.2046 H   0  0  0  1  0  0  0  0  0  0  0  0
   -3.7823    5.5505   -1.2686 H   0  0  0  1  0  0  0  0  0  0  0  0
   -2.3638    3.6944   -1.8556 H   0  0  0  1  0  0  0  0  0  0  0  0
  1  3  4  0  0  0  0
  1 14  4  0  0  0  0
  1 21  1  0  0  0  0
  2 14  4  0  0  0  0
  2 15  4  0  0  0  0
  2 30  1  0  0  0  0
  3 16  4  0  0  0  0
  4  5  4  0  0  0  0
  4  7  4  0  0  0  0
  4 17  1  0  0  0  0
  5  9  4  0  0  0  0
  5 31  1  0  0  0  0
  6  7  4  0  0  0  0
  6  8  4  0  0  0  0
  6 32  1  0  0  0  0
  7 33  1  0  0  0  0
  8  9  4  0  0  0  0
  8 20  1  0  0  0  0
  9 34  1  0  0  0  0
 10 11  1  0  0  0  0
 10 21  1  0  0  0  0
 10 24  1  0  0  0  0
 10 35  1  0  0  0  0
 11 12  1  0  0  0  0
 11 36  1  0  0  0  0
 11 37  1  0  0  0  0
 12 23  1  0  0  0  0
 12 38  1  0  0  0  0
 12 39  1  0  0  0  0
 13 23  1  0  0  0  0
 13 25  4  0  0  0  0
 13 29  4  0  0  0  0
 15 16  4  0  0  0  0
 15 18  4  0  0  0  0
 16 17  4  0  0  0  0
 17 19  4  0  0  0  0
 18 19  4  0  0  0  0
 20 22  1  0  0  0  0
 21 40  1  0  0  0  0
 22 41  1  0  0  0  0
 22 42  1  0  0  0  0
 22 43  1  0  0  0  0
 23 24  1  0  0  0  0
 24 44  1  0  0  0  0
 24 45  1  0  0  0  0
 25 26  4  0  0  0  0
 25 46  1  0  0  0  0
 26 27  4  0  0  0  0
 26 47  1  0  0  0  0
 27 28  4  0  0  0  0
 28 29  4  0  0  0  0
 28 48  1  0  0  0  0
 29 49  1  0  0  0  0
M  END
> <ConfClashScore>
0 

> <ConfOneFourInteractionScore>
-0.986948 

> <ConfScore>
0.0662627 

> <ConfScorePBest>
0.00266026 

> <ConfTolerance>
0.479084 

> <HETNAM>
     OWQ A 303  OWQ                                                       

> <pdb_OW>
Q_303 -16.5129 3.80749 7.62812 0.15963 1.39178 -0.28144 -3.20151 0 0 0 -1.30514 0 0 0 0 0 0 0 0 -8.31393

$$$$
6yky_lig_1.pdb
 OpenBabel04162415593D

 49 53  0  0  0  0  0  0  0  0999 V2000
    0.3535    0.1623    0.5524 C   0  0  0  1  0  0  0  0  0  0  0  0
    0.9603    2.3106   -0.0183 C   0  0  0  1  0  0  0  0  0  0  0  0
    1.0775   -0.3731   -0.4067 N   0  0  0  1  0  0  0  0  0  0  0  0
    3.0312   -1.0367   -2.9258 C   0  0  0  1  0  0  0  0  0  0  0  0
    4.3696   -1.1606   -3.2476 C   0  0  0  1  0  0  0  0  0  0  0  0
    2.5770   -3.1318   -3.9988 C   0  0  0  1  0  0  0  0  0  0  0  0
    2.1331   -2.0224   -3.3043 C   0  0  0  1  0  0  0  0  0  0  0  0
    3.9193   -3.2563   -4.3216 C   0  0  0  1  0  0  0  0  0  0  0  0
    4.8147   -2.2733   -3.9441 C   0  0  0  1  0  0  0  0  0  0  0  0
   -1.2174   -0.0491    2.4576 C   0  0  0  1  0  0  0  0  0  0  0  0
   -2.2897   -1.0707    2.9275 C   0  0  0  1  0  0  0  0  0  0  0  0
   -3.4959   -0.2668    3.4563 C   0  0  0  1  0  0  0  0  0  0  0  0
   -4.0112    2.2150    3.1974 C   0  0  0  1  0  0  0  0  0  0  0  0
    0.2915    1.4679    0.7476 N   0  0  0  1  0  0  0  0  0  0  0  0
    1.7471    1.7952   -1.0546 C   0  0  0  1  0  0  0  0  0  0  0  0
    1.7836    0.3962   -1.2262 C   0  0  0  1  0  0  0  0  0  0  0  0
    2.6121    0.1675   -2.2899 N   0  0  0  1  0  0  0  0  0  0  0  0
    2.5382    2.3454   -2.0014 N   0  0  0  1  0  0  0  0  0  0  0  0
    3.0550    1.4221   -2.7350 N   0  0  0  1  0  0  0  0  0  0  0  0
    4.2333   -4.3752   -5.0031 O   0  0  0  1  0  0  0  0  0  0  0  0
   -0.3747   -0.5947    1.4008 N   0  0  0  1  0  0  0  0  0  0  0  0
    5.6337   -4.5158   -5.3372 C   0  0  0  1  0  0  0  0  0  0  0  0
   -3.2646    1.0890    2.8824 N   0  0  0  1  0  0  0  0  0  0  0  0
   -2.1370    1.0720    1.9362 C   0  0  0  1  0  0  0  0  0  0  0  0
   -4.9522    2.1763    4.2096 C   0  0  0  1  0  0  0  0  0  0  0  0
   -5.6710    3.3220    4.4930 C   0  0  0  1  0  0  0  0  0  0  0  0
   -5.5073    4.4738    3.8351 N   0  0  0  1  0  0  0  0  0  0  0  0
   -4.5947    4.4959    2.8533 C   0  0  0  1  0  0  0  0  0  0  0  0
   -3.8289    3.3967    2.5059 C   0  0  0  1  0  0  0  0  0  0  0  0
    0.9034    3.3361    0.1453 H   0  0  0  1  0  0  0  0  0  0  0  0
    5.0427   -0.4191   -2.9671 H   0  0  0  1  0  0  0  0  0  0  0  0
    1.9039   -3.8733   -4.2793 H   0  0  0  1  0  0  0  0  0  0  0  0
    1.1253   -1.9271   -3.0656 H   0  0  0  1  0  0  0  0  0  0  0  0
    5.8225   -2.3686   -4.1828 H   0  0  0  1  0  0  0  0  0  0  0  0
   -0.6032    0.2844    3.2678 H   0  0  0  1  0  0  0  0  0  0  0  0
   -2.5926   -1.6859    2.1061 H   0  0  0  1  0  0  0  0  0  0  0  0
   -1.8910   -1.6861    3.7067 H   0  0  0  1  0  0  0  0  0  0  0  0
   -4.4184   -0.6811    3.1067 H   0  0  0  1  0  0  0  0  0  0  0  0
   -3.5003   -0.2370    4.5259 H   0  0  0  1  0  0  0  0  0  0  0  0
   -0.3343   -1.5687    1.3001 H   0  0  0  1  0  0  0  0  0  0  0  0
    5.7687   -5.3796   -5.9541 H   0  0  0  1  0  0  0  0  0  0  0  0
    6.2050   -4.6262   -4.4393 H   0  0  0  1  0  0  0  0  0  0  0  0
    5.9632   -3.6456   -5.8655 H   0  0  0  1  0  0  0  0  0  0  0  0
   -1.6265    2.0124    1.9386 H   0  0  0  1  0  0  0  0  0  0  0  0
   -2.4772    0.8528    0.9457 H   0  0  0  1  0  0  0  0  0  0  0  0
   -5.1160    1.3015    4.7476 H   0  0  0  1  0  0  0  0  0  0  0  0
   -6.3754    3.2862    5.2574 H   0  0  0  1  0  0  0  0  0  0  0  0
   -4.4555    5.3821    2.3271 H   0  0  0  1  0  0  0  0  0  0  0  0
   -3.1294    3.4594    1.7388 H   0  0  0  1  0  0  0  0  0  0  0  0
  1  3  4  0  0  0  0
  1 14  4  0  0  0  0
  1 21  1  0  0  0  0
  2 14  4  0  0  0  0
  2 15  4  0  0  0  0
  2 30  1  0  0  0  0
  3 16  4  0  0  0  0
  4  5  4  0  0  0  0
  4  7  4  0  0  0  0
  4 17  1  0  0  0  0
  5  9  4  0  0  0  0
  5 31  1  0  0  0  0
  6  7  4  0  0  0  0
  6  8  4  0  0  0  0
  6 32  1  0  0  0  0
  7 33  1  0  0  0  0
  8  9  4  0  0  0  0
  8 20  1  0  0  0  0
  9 34  1  0  0  0  0
 10 11  1  0  0  0  0
 10 21  1  0  0  0  0
 10 24  1  0  0  0  0
 10 35  1  0  0  0  0
 11 12  1  0  0  0  0
 11 36  1  0  0  0  0
 11 37  1  0  0  0  0
 12 23  1  0  0  0  0
 12 38  1  0  0  0  0
 12 39  1  0  0  0  0
 13 23  1  0  0  0  0
 13 25  4  0  0  0  0
 13 29  4  0  0  0  0
 15 16  4  0  0  0  0
 15 18  4  0  0  0  0
 16 17  4  0  0  0  0
 17 19  4  0  0  0  0
 18 19  4  0  0  0  0
 20 22  1  0  0  0  0
 21 40  1  0  0  0  0
 22 41  1  0  0  0  0
 22 42  1  0  0  0  0
 22 43  1  0  0  0  0
 23 24  1  0  0  0  0
 24 44  1  0  0  0  0
 24 45  1  0  0  0  0
 25 26  4  0  0  0  0
 25 46  1  0  0  0  0
 26 27  4  0  0  0  0
 26 47  1  0  0  0  0
 27 28  4  0  0  0  0
 28 29  4  0  0  0  0
 28 48  1  0  0  0  0
 29 49  1  0  0  0  0
M  END
> <ConfClashScore>
0 

> <ConfOneFourInteractionScore>
-0.987833 

> <ConfScore>
0.0670853 

> <ConfScorePBest>
0.00264693 

> <ConfTolerance>
0.461592 

> <HETNAM>
     OWQ A 303  OWQ                                                       

> <pdb_OW>
Q_303 -16.5129 3.80749 7.62812 0.15963 1.39178 -0.28144 -3.20151 0 0 0 -1.30514 0 0 0 0 0 0 0 0 -8.31393

$$$$
6yky_lig_1.pdb
 OpenBabel04162415593D

 49 53  0  0  0  0  0  0  0  0999 V2000
    0.3980    0.1294    0.5819 C   0  0  0  1  0  0  0  0  0  0  0  0
    1.8112    1.7311    1.4462 C   0  0  0  1  0  0  0  0  0  0  0  0
    1.3087   -0.3268   -0.2508 N   0  0  0  1  0  0  0  0  0  0  0  0
    3.9967   -1.0172   -1.9618 C   0  0  0  1  0  0  0  0  0  0  0  0
    5.1829   -0.9309   -2.6659 C   0  0  0  1  0  0  0  0  0  0  0  0
    3.3799   -2.9534   -3.2337 C   0  0  0  1  0  0  0  0  0  0  0  0
    3.0926   -2.0283   -2.2478 C   0  0  0  1  0  0  0  0  0  0  0  0
    4.5695   -2.8671   -3.9400 C   0  0  0  1  0  0  0  0  0  0  0  0
    5.4708   -1.8588   -3.6546 C   0  0  0  1  0  0  0  0  0  0  0  0
   -1.8437    0.0474    1.5512 C   0  0  0  1  0  0  0  0  0  0  0  0
   -2.8229   -1.0575    1.9784 C   0  0  0  1  0  0  0  0  0  0  0  0
   -4.0368   -0.2366    2.4402 C   0  0  0  1  0  0  0  0  0  0  0  0
   -4.3123    2.3141    2.5007 C   0  0  0  1  0  0  0  0  0  0  0  0
    0.6354    1.1309    1.4109 N   0  0  0  1  0  0  0  0  0  0  0  0
    2.8174    1.2860    0.5812 C   0  0  0  1  0  0  0  0  0  0  0  0
    2.5200    0.2148   -0.2861 C   0  0  0  1  0  0  0  0  0  0  0  0
    3.6584   -0.0136   -1.0085 N   0  0  0  1  0  0  0  0  0  0  0  0
    4.0969    1.6549    0.3536 N   0  0  0  1  0  0  0  0  0  0  0  0
    4.6116    0.9160   -0.5666 N   0  0  0  1  0  0  0  0  0  0  0  0
    4.9564   -3.7094   -4.9273 O   0  0  0  1  0  0  0  0  0  0  0  0
   -0.8535   -0.4593    0.5911 N   0  0  0  1  0  0  0  0  0  0  0  0
    4.0072   -4.6985   -5.3554 C   0  0  0  1  0  0  0  0  0  0  0  0
   -3.7585    1.1617    1.9946 N   0  0  0  1  0  0  0  0  0  0  0  0
   -2.7715    1.0599    0.9036 C   0  0  0  1  0  0  0  0  0  0  0  0
   -5.3393    2.3135    3.4265 C   0  0  0  1  0  0  0  0  0  0  0  0
   -5.8271    3.5247    3.8789 C   0  0  0  1  0  0  0  0  0  0  0  0
   -5.3590    4.7062    3.4651 N   0  0  0  1  0  0  0  0  0  0  0  0
   -4.3664    4.6920    2.5641 C   0  0  0  1  0  0  0  0  0  0  0  0
   -3.8165    3.5259    2.0609 C   0  0  0  1  0  0  0  0  0  0  0  0
    1.9859    2.5182    2.1031 H   0  0  0  1  0  0  0  0  0  0  0  0
    5.8593   -0.1699   -2.4540 H   0  0  0  1  0  0  0  0  0  0  0  0
    2.7034   -3.7144   -3.4456 H   0  0  0  1  0  0  0  0  0  0  0  0
    2.1983   -2.0908   -1.7207 H   0  0  0  1  0  0  0  0  0  0  0  0
    6.3651   -1.7963   -4.1818 H   0  0  0  1  0  0  0  0  0  0  0  0
   -1.3394    0.4675    2.3963 H   0  0  0  1  0  0  0  0  0  0  0  0
   -3.0735   -1.6955    1.1567 H   0  0  0  1  0  0  0  0  0  0  0  0
   -2.4228   -1.6454    2.7779 H   0  0  0  1  0  0  0  0  0  0  0  0
   -4.9328   -0.6038    1.9849 H   0  0  0  1  0  0  0  0  0  0  0  0
   -4.1342   -0.2782    3.5050 H   0  0  0  1  0  0  0  0  0  0  0  0
   -1.0728   -1.1909   -0.0230 H   0  0  0  1  0  0  0  0  0  0  0  0
    3.1223   -4.2137   -5.7117 H   0  0  0  1  0  0  0  0  0  0  0  0
    3.7582   -5.3338   -4.5312 H   0  0  0  1  0  0  0  0  0  0  0  0
    4.4338   -5.2849   -6.1422 H   0  0  0  1  0  0  0  0  0  0  0  0
   -3.2054    0.6905   -0.0020 H   0  0  0  1  0  0  0  0  0  0  0  0
   -2.2828    1.9921    0.7112 H   0  0  0  1  0  0  0  0  0  0  0  0
   -5.7371    1.4183    3.7758 H   0  0  0  1  0  0  0  0  0  0  0  0
   -6.5979    3.5164    4.5770 H   0  0  0  1  0  0  0  0  0  0  0  0
   -3.9913    5.6015    2.2269 H   0  0  0  1  0  0  0  0  0  0  0  0
   -3.0446    3.5614    1.3648 H   0  0  0  1  0  0  0  0  0  0  0  0
  1  3  4  0  0  0  0
  1 14  4  0  0  0  0
  1 21  1  0  0  0  0
  2 14  4  0  0  0  0
  2 15  4  0  0  0  0
  2 30  1  0  0  0  0
  3 16  4  0  0  0  0
  4  5  4  0  0  0  0
  4  7  4  0  0  0  0
  4 17  1  0  0  0  0
  5  9  4  0  0  0  0
  5 31  1  0  0  0  0
  6  7  4  0  0  0  0
  6  8  4  0  0  0  0
  6 32  1  0  0  0  0
  7 33  1  0  0  0  0
  8  9  4  0  0  0  0
  8 20  1  0  0  0  0
  9 34  1  0  0  0  0
 10 11  1  0  0  0  0
 10 21  1  0  0  0  0
 10 24  1  0  0  0  0
 10 35  1  0  0  0  0
 11 12  1  0  0  0  0
 11 36  1  0  0  0  0
 11 37  1  0  0  0  0
 12 23  1  0  0  0  0
 12 38  1  0  0  0  0
 12 39  1  0  0  0  0
 13 23  1  0  0  0  0
 13 25  4  0  0  0  0
 13 29  4  0  0  0  0
 15 16  4  0  0  0  0
 15 18  4  0  0  0  0
 16 17  4  0  0  0  0
 17 19  4  0  0  0  0
 18 19  4  0  0  0  0
 20 22  1  0  0  0  0
 21 40  1  0  0  0  0
 22 41  1  0  0  0  0
 22 42  1  0  0  0  0
 22 43  1  0  0  0  0
 23 24  1  0  0  0  0
 24 44  1  0  0  0  0
 24 45  1  0  0  0  0
 25 26  4  0  0  0  0
 25 46  1  0  0  0  0
 26 27  4  0  0  0  0
 26 47  1  0  0  0  0
 27 28  4  0  0  0  0
 28 29  4  0  0  0  0
 28 48  1  0  0  0  0
 29 49  1  0  0  0  0
M  END
> <ConfClashScore>
0 

> <ConfOneFourInteractionScore>
-0.984874 

> <ConfScore>
0.0672916 

> <ConfScorePBest>
0.0026336 

> <ConfTolerance>
0.36377 

> <HETNAM>
     OWQ A 303  OWQ                                                       

> <pdb_OW>
Q_303 -16.5129 3.80749 7.62812 0.15963 1.39178 -0.28144 -3.20151 0 0 0 -1.30514 0 0 0 0 0 0 0 0 -8.31393

$$$$
6yky_lig_1.pdb
 OpenBabel04162415593D

 49 53  0  0  0  0  0  0  0  0999 V2000
   -0.2068   -0.5942    0.2826 C   0  0  0  1  0  0  0  0  0  0  0  0
   -1.9881   -1.2095   -1.0432 C   0  0  0  1  0  0  0  0  0  0  0  0
    0.6812   -1.0289   -0.5855 N   0  0  0  1  0  0  0  0  0  0  0  0
    2.3125   -2.1463   -3.1711 C   0  0  0  1  0  0  0  0  0  0  0  0
    3.2603   -1.5917   -2.3319 C   0  0  0  1  0  0  0  0  0  0  0  0
    4.0157   -2.6074   -4.7939 C   0  0  0  1  0  0  0  0  0  0  0  0
    2.6902   -2.6525   -4.4050 C   0  0  0  1  0  0  0  0  0  0  0  0
    4.9665   -2.0512   -3.9524 C   0  0  0  1  0  0  0  0  0  0  0  0
    4.5896   -1.5465   -2.7221 C   0  0  0  1  0  0  0  0  0  0  0  0
   -0.6599    0.5058    2.4567 C   0  0  0  1  0  0  0  0  0  0  0  0
   -1.7088   -0.5375    2.9319 C   0  0  0  1  0  0  0  0  0  0  0  0
   -2.9533    0.2401    3.4088 C   0  0  0  1  0  0  0  0  0  0  0  0
   -3.5687    2.7292    3.0728 C   0  0  0  1  0  0  0  0  0  0  0  0
   -1.5078   -0.6787    0.0666 N   0  0  0  1  0  0  0  0  0  0  0  0
   -1.0877   -1.6882   -2.0018 C   0  0  0  1  0  0  0  0  0  0  0  0
    0.2913   -1.5776   -1.7295 C   0  0  0  1  0  0  0  0  0  0  0  0
    0.9341   -2.1127   -2.8114 N   0  0  0  1  0  0  0  0  0  0  0  0
   -1.2212   -2.2735   -3.2120 N   0  0  0  1  0  0  0  0  0  0  0  0
   -0.0611   -2.5319   -3.7070 N   0  0  0  1  0  0  0  0  0  0  0  0
    6.2225   -2.0577   -4.4395 O   0  0  0  1  0  0  0  0  0  0  0  0
    0.2254   -0.0414    1.4361 N   0  0  0  1  0  0  0  0  0  0  0  0
    7.2453   -1.6512   -3.5008 C   0  0  0  1  0  0  0  0  0  0  0  0
   -2.7533    1.5858    2.8004 N   0  0  0  1  0  0  0  0  0  0  0  0
   -1.6035    1.5796    1.8812 C   0  0  0  1  0  0  0  0  0  0  0  0
   -4.7241    2.9594    2.3492 C   0  0  0  1  0  0  0  0  0  0  0  0
   -5.4844    4.0740    2.6479 C   0  0  0  1  0  0  0  0  0  0  0  0
   -5.1600    4.9503    3.6035 N   0  0  0  1  0  0  0  0  0  0  0  0
   -4.0350    4.7171    4.2943 C   0  0  0  1  0  0  0  0  0  0  0  0
   -3.2171    3.6246    4.0639 C   0  0  0  1  0  0  0  0  0  0  0  0
   -3.0141   -1.2704   -1.2017 H   0  0  0  1  0  0  0  0  0  0  0  0
    2.9762   -1.2083   -1.4079 H   0  0  0  1  0  0  0  0  0  0  0  0
    4.2998   -2.9908   -5.7180 H   0  0  0  1  0  0  0  0  0  0  0  0
    1.9762   -3.0662   -5.0380 H   0  0  0  1  0  0  0  0  0  0  0  0
    5.3035   -1.1328   -2.0890 H   0  0  0  1  0  0  0  0  0  0  0  0
   -0.0767    0.8831    3.2705 H   0  0  0  1  0  0  0  0  0  0  0  0
   -1.3087   -1.1164    3.7380 H   0  0  0  1  0  0  0  0  0  0  0  0
   -1.9714   -1.1861    2.1224 H   0  0  0  1  0  0  0  0  0  0  0  0
   -2.9843    0.3006    4.4766 H   0  0  0  1  0  0  0  0  0  0  0  0
   -3.8530   -0.2151    3.0506 H   0  0  0  1  0  0  0  0  0  0  0  0
    1.1915   -0.0060    1.5968 H   0  0  0  1  0  0  0  0  0  0  0  0
    8.0862   -2.3079   -3.5822 H   0  0  0  1  0  0  0  0  0  0  0  0
    6.8538   -1.6950   -2.5060 H   0  0  0  1  0  0  0  0  0  0  0  0
    7.5525   -0.6500   -3.7200 H   0  0  0  1  0  0  0  0  0  0  0  0
   -1.9124    1.3205    0.8901 H   0  0  0  1  0  0  0  0  0  0  0  0
   -1.1246    2.5364    1.8675 H   0  0  0  1  0  0  0  0  0  0  0  0
   -5.0155    2.3061    1.5943 H   0  0  0  1  0  0  0  0  0  0  0  0
   -6.3534    4.2395    2.1011 H   0  0  0  1  0  0  0  0  0  0  0  0
   -3.7636    5.3898    5.0395 H   0  0  0  1  0  0  0  0  0  0  0  0
   -2.3542    3.4807    4.6263 H   0  0  0  1  0  0  0  0  0  0  0  0
  1  3  4  0  0  0  0
  1 14  4  0  0  0  0
  1 21  1  0  0  0  0
  2 14  4  0  0  0  0
  2 15  4  0  0  0  0
  2 30  1  0  0  0  0
  3 16  4  0  0  0  0
  4  5  4  0  0  0  0
  4  7  4  0  0  0  0
  4 17  1  0  0  0  0
  5  9  4  0  0  0  0
  5 31  1  0  0  0  0
  6  7  4  0  0  0  0
  6  8  4  0  0  0  0
  6 32  1  0  0  0  0
  7 33  1  0  0  0  0
  8  9  4  0  0  0  0
  8 20  1  0  0  0  0
  9 34  1  0  0  0  0
 10 11  1  0  0  0  0
 10 21  1  0  0  0  0
 10 24  1  0  0  0  0
 10 35  1  0  0  0  0
 11 12  1  0  0  0  0
 11 36  1  0  0  0  0
 11 37  1  0  0  0  0
 12 23  1  0  0  0  0
 12 38  1  0  0  0  0
 12 39  1  0  0  0  0
 13 23  1  0  0  0  0
 13 25  4  0  0  0  0
 13 29  4  0  0  0  0
 15 16  4  0  0  0  0
 15 18  4  0  0  0  0
 16 17  4  0  0  0  0
 17 19  4  0  0  0  0
 18 19  4  0  0  0  0
 20 22  1  0  0  0  0
 21 40  1  0  0  0  0
 22 41  1  0  0  0  0
 22 42  1  0  0  0  0
 22 43  1  0  0  0  0
 23 24  1  0  0  0  0
 24 44  1  0  0  0  0
 24 45  1  0  0  0  0
 25 26  4  0  0  0  0
 25 46  1  0  0  0  0
 26 27  4  0  0  0  0
 26 47  1  0  0  0  0
 27 28  4  0  0  0  0
 28 29  4  0  0  0  0
 28 48  1  0  0  0  0
 29 49  1  0  0  0  0
M  END
> <ConfClashScore>
0 

> <ConfOneFourInteractionScore>
-0.983503 

> <ConfScore>
0.0703065 

> <ConfScorePBest>
0.00262028 

> <ConfTolerance>
0.387916 

> <HETNAM>
     OWQ A 303  OWQ                                                       

> <pdb_OW>
Q_303 -16.5129 3.80749 7.62812 0.15963 1.39178 -0.28144 -3.20151 0 0 0 -1.30514 0 0 0 0 0 0 0 0 -8.31393

$$$$
6yky_lig_1.pdb
 OpenBabel04162415593D

 49 53  0  0  0  0  0  0  0  0999 V2000
   -0.1735   -0.2752    0.3954 C   0  0  0  1  0  0  0  0  0  0  0  0
   -1.9255   -0.6337   -1.0577 C   0  0  0  1  0  0  0  0  0  0  0  0
    0.7141   -0.7699   -0.4403 N   0  0  0  1  0  0  0  0  0  0  0  0
    2.3470   -2.1055   -2.9654 C   0  0  0  1  0  0  0  0  0  0  0  0
    3.3370   -1.1665   -2.7456 C   0  0  0  1  0  0  0  0  0  0  0  0
    3.9748   -3.6119   -3.8755 C   0  0  0  1  0  0  0  0  0  0  0  0
    2.6658   -3.3290   -3.5336 C   0  0  0  1  0  0  0  0  0  0  0  0
    4.9679   -2.6702   -3.6551 C   0  0  0  1  0  0  0  0  0  0  0  0
    4.6497   -1.4503   -3.0885 C   0  0  0  1  0  0  0  0  0  0  0  0
   -0.5553    0.6866    2.6423 C   0  0  0  1  0  0  0  0  0  0  0  0
   -1.5909   -0.3454    3.0623 C   0  0  0  1  0  0  0  0  0  0  0  0
   -2.6824    0.5025    3.6906 C   0  0  0  1  0  0  0  0  0  0  0  0
   -3.6640    2.6621    2.8568 C   0  0  0  1  0  0  0  0  0  0  0  0
   -1.4601   -0.2057    0.1018 N   0  0  0  1  0  0  0  0  0  0  0  0
   -1.0248   -1.1697   -1.9850 C   0  0  0  1  0  0  0  0  0  0  0  0
    0.3386   -1.2244   -1.6296 C   0  0  0  1  0  0  0  0  0  0  0  0
    0.9853   -1.7827   -2.6973 N   0  0  0  1  0  0  0  0  0  0  0  0
   -1.1458   -1.6863   -3.2274 N   0  0  0  1  0  0  0  0  0  0  0  0
    0.0079   -2.0515   -3.6672 N   0  0  0  1  0  0  0  0  0  0  0  0
    6.2025   -3.0549   -4.0326 O   0  0  0  1  0  0  0  0  0  0  0  0
    0.2919    0.1653    1.5838 N   0  0  0  1  0  0  0  0  0  0  0  0
    7.2615   -2.1279   -3.6984 C   0  0  0  1  0  0  0  0  0  0  0  0
   -2.6441    1.7371    2.8934 N   0  0  0  1  0  0  0  0  0  0  0  0
   -1.3875    1.8679    2.1393 C   0  0  0  1  0  0  0  0  0  0  0  0
   -3.5772    3.7750    2.0410 C   0  0  0  1  0  0  0  0  0  0  0  0
   -4.6251    4.6759    2.0321 C   0  0  0  1  0  0  0  0  0  0  0  0
   -5.7253    4.5309    2.7769 N   0  0  0  1  0  0  0  0  0  0  0  0
   -5.7942    3.4496    3.5664 C   0  0  0  1  0  0  0  0  0  0  0  0
   -4.7934    2.4961    3.6344 C   0  0  0  1  0  0  0  0  0  0  0  0
   -2.9403   -0.5737   -1.2771 H   0  0  0  1  0  0  0  0  0  0  0  0
    3.0970   -0.2470   -2.3229 H   0  0  0  1  0  0  0  0  0  0  0  0
    4.2147   -4.5314   -4.2981 H   0  0  0  1  0  0  0  0  0  0  0  0
    1.9202   -4.0340   -3.7026 H   0  0  0  1  0  0  0  0  0  0  0  0
    5.3953   -0.7453   -2.9195 H   0  0  0  1  0  0  0  0  0  0  0  0
    0.0509    0.9766    3.4749 H   0  0  0  1  0  0  0  0  0  0  0  0
   -1.9621   -0.8842    2.2156 H   0  0  0  1  0  0  0  0  0  0  0  0
   -1.1820   -1.0335    3.7722 H   0  0  0  1  0  0  0  0  0  0  0  0
   -2.4688    0.7029    4.7198 H   0  0  0  1  0  0  0  0  0  0  0  0
   -3.6356    0.0229    3.6105 H   0  0  0  1  0  0  0  0  0  0  0  0
    1.2585    0.1312    1.7417 H   0  0  0  1  0  0  0  0  0  0  0  0
    7.1941   -1.8668   -2.6630 H   0  0  0  1  0  0  0  0  0  0  0  0
    7.1641   -1.2453   -4.2955 H   0  0  0  1  0  0  0  0  0  0  0  0
    8.2095   -2.5857   -3.8897 H   0  0  0  1  0  0  0  0  0  0  0  0
   -1.5623    1.7935    1.0863 H   0  0  0  1  0  0  0  0  0  0  0  0
   -0.9046    2.7977    2.3563 H   0  0  0  1  0  0  0  0  0  0  0  0
   -2.7392    3.9312    1.4454 H   0  0  0  1  0  0  0  0  0  0  0  0
   -4.5540    5.5094    1.4141 H   0  0  0  1  0  0  0  0  0  0  0  0
   -6.6408    3.3211    4.1566 H   0  0  0  1  0  0  0  0  0  0  0  0
   -4.8899    1.6702    4.2591 H   0  0  0  1  0  0  0  0  0  0  0  0
  1  3  4  0  0  0  0
  1 14  4  0  0  0  0
  1 21  1  0  0  0  0
  2 14  4  0  0  0  0
  2 15  4  0  0  0  0
  2 30  1  0  0  0  0
  3 16  4  0  0  0  0
  4  5  4  0  0  0  0
  4  7  4  0  0  0  0
  4 17  1  0  0  0  0
  5  9  4  0  0  0  0
  5 31  1  0  0  0  0
  6  7  4  0  0  0  0
  6  8  4  0  0  0  0
  6 32  1  0  0  0  0
  7 33  1  0  0  0  0
  8  9  4  0  0  0  0
  8 20  1  0  0  0  0
  9 34  1  0  0  0  0
 10 11  1  0  0  0  0
 10 21  1  0  0  0  0
 10 24  1  0  0  0  0
 10 35  1  0  0  0  0
 11 12  1  0  0  0  0
 11 36  1  0  0  0  0
 11 37  1  0  0  0  0
 12 23  1  0  0  0  0
 12 38  1  0  0  0  0
 12 39  1  0  0  0  0
 13 23  1  0  0  0  0
 13 25  4  0  0  0  0
 13 29  4  0  0  0  0
 15 16  4  0  0  0  0
 15 18  4  0  0  0  0
 16 17  4  0  0  0  0
 17 19  4  0  0  0  0
 18 19  4  0  0  0  0
 20 22  1  0  0  0  0
 21 40  1  0  0  0  0
 22 41  1  0  0  0  0
 22 42  1  0  0  0  0
 22 43  1  0  0  0  0
 23 24  1  0  0  0  0
 24 44  1  0  0  0  0
 24 45  1  0  0  0  0
 25 26  4  0  0  0  0
 25 46  1  0  0  0  0
 26 27  4  0  0  0  0
 26 47  1  0  0  0  0
 27 28  4  0  0  0  0
 28 29  4  0  0  0  0
 28 48  1  0  0  0  0
 29 49  1  0  0  0  0
M  END
> <ConfClashScore>
0 

> <ConfOneFourInteractionScore>
-0.983503 

> <ConfScore>
0.0733743 

> <ConfScorePBest>
0.00260695 

> <ConfTolerance>
0.459169 

> <HETNAM>
     OWQ A 303  OWQ                                                       

> <pdb_OW>
Q_303 -16.5129 3.80749 7.62812 0.15963 1.39178 -0.28144 -3.20151 0 0 0 -1.30514 0 0 0 0 0 0 0 0 -8.31393

$$$$
6yky_lig_1.pdb
 OpenBabel04162415593D

 49 53  0  0  0  0  0  0  0  0999 V2000
    3.3239   -1.0888   -0.7469 C   0  0  0  1  0  0  0  0  0  0  0  0
    3.9344   -2.0471   -2.7515 C   0  0  0  1  0  0  0  0  0  0  0  0
    2.0456   -1.0814   -1.0582 N   0  0  0  1  0  0  0  0  0  0  0  0
   -0.8742   -1.2602   -2.4308 C   0  0  0  1  0  0  0  0  0  0  0  0
   -1.4107   -0.0913   -2.9366 C   0  0  0  1  0  0  0  0  0  0  0  0
   -2.7721   -1.5095   -0.9875 C   0  0  0  1  0  0  0  0  0  0  0  0
   -1.5544   -1.9690   -1.4528 C   0  0  0  1  0  0  0  0  0  0  0  0
   -3.3104   -0.3371   -1.4948 C   0  0  0  1  0  0  0  0  0  0  0  0
   -2.6319    0.3694   -2.4698 C   0  0  0  1  0  0  0  0  0  0  0  0
    2.9047   -0.0863    1.4754 C   0  0  0  1  0  0  0  0  0  0  0  0
    1.8380   -1.1238    1.9226 C   0  0  0  1  0  0  0  0  0  0  0  0
    0.6116   -0.3380    2.4321 C   0  0  0  1  0  0  0  0  0  0  0  0
    0.0730    2.1296    2.1694 C   0  0  0  1  0  0  0  0  0  0  0  0
    4.2491   -1.5573   -1.5662 N   0  0  0  1  0  0  0  0  0  0  0  0
    2.5883   -2.0638   -3.1343 C   0  0  0  1  0  0  0  0  0  0  0  0
    1.6353   -1.5538   -2.2288 C   0  0  0  1  0  0  0  0  0  0  0  0
    0.4210   -1.6877   -2.8432 N   0  0  0  1  0  0  0  0  0  0  0  0
    1.9263   -2.4769   -4.2371 N   0  0  0  1  0  0  0  0  0  0  0  0
    0.6634   -2.2705   -4.0962 N   0  0  0  1  0  0  0  0  0  0  0  0
   -4.5178    0.1222   -1.0285 O   0  0  0  1  0  0  0  0  0  0  0  0
    3.7706   -0.6151    0.4359 N   0  0  0  1  0  0  0  0  0  0  0  0
   -5.2202   -0.8574   -0.2289 C   0  0  0  1  0  0  0  0  0  0  0  0
    0.8349    1.0227    1.8666 N   0  0  0  1  0  0  0  0  0  0  0  0
    1.9794    1.0241    0.9409 C   0  0  0  1  0  0  0  0  0  0  0  0
   -0.8795    2.0773    3.1701 C   0  0  0  1  0  0  0  0  0  0  0  0
   -1.6190    3.2122    3.4438 C   0  0  0  1  0  0  0  0  0  0  0  0
   -1.4649    4.3659    2.7869 N   0  0  0  1  0  0  0  0  0  0  0  0
   -0.5409    4.4011    1.8162 C   0  0  0  1  0  0  0  0  0  0  0  0
    0.2457    3.3134    1.4791 C   0  0  0  1  0  0  0  0  0  0  0  0
    4.6716   -2.4128   -3.3874 H   0  0  0  1  0  0  0  0  0  0  0  0
   -0.8984    0.4425   -3.6674 H   0  0  0  1  0  0  0  0  0  0  0  0
   -3.2844   -2.0434   -0.2567 H   0  0  0  1  0  0  0  0  0  0  0  0
   -1.1487   -2.8464   -1.0694 H   0  0  0  1  0  0  0  0  0  0  0  0
   -3.0377    1.2469   -2.8533 H   0  0  0  1  0  0  0  0  0  0  0  0
    3.4996    0.2528    2.2976 H   0  0  0  1  0  0  0  0  0  0  0  0
    1.5583   -1.7403    1.0940 H   0  0  0  1  0  0  0  0  0  0  0  0
    2.2308   -1.7364    2.7071 H   0  0  0  1  0  0  0  0  0  0  0  0
   -0.2987   -0.7636    2.0646 H   0  0  0  1  0  0  0  0  0  0  0  0
    0.5875   -0.3119    3.5015 H   0  0  0  1  0  0  0  0  0  0  0  0
    4.7361   -0.6290    0.6031 H   0  0  0  1  0  0  0  0  0  0  0  0
   -5.3501   -1.7550   -0.7966 H   0  0  0  1  0  0  0  0  0  0  0  0
   -6.1780   -0.4699    0.0493 H   0  0  0  1  0  0  0  0  0  0  0  0
   -4.6521   -1.0719    0.6521 H   0  0  0  1  0  0  0  0  0  0  0  0
    1.6602    0.8036   -0.0563 H   0  0  0  1  0  0  0  0  0  0  0  0
    2.4770    1.9712    0.9554 H   0  0  0  1  0  0  0  0  0  0  0  0
   -1.0365    1.2005    3.7069 H   0  0  0  1  0  0  0  0  0  0  0  0
   -2.3320    3.1662    4.1996 H   0  0  0  1  0  0  0  0  0  0  0  0
   -0.4088    5.2889    1.2909 H   0  0  0  1  0  0  0  0  0  0  0  0
    0.9534    3.3861    0.7205 H   0  0  0  1  0  0  0  0  0  0  0  0
  1  3  4  0  0  0  0
  1 14  4  0  0  0  0
  1 21  1  0  0  0  0
  2 14  4  0  0  0  0
  2 15  4  0  0  0  0
  2 30  1  0  0  0  0
  3 16  4  0  0  0  0
  4  5  4  0  0  0  0
  4  7  4  0  0  0  0
  4 17  1  0  0  0  0
  5  9  4  0  0  0  0
  5 31  1  0  0  0  0
  6  7  4  0  0  0  0
  6  8  4  0  0  0  0
  6 32  1  0  0  0  0
  7 33  1  0  0  0  0
  8  9  4  0  0  0  0
  8 20  1  0  0  0  0
  9 34  1  0  0  0  0
 10 11  1  0  0  0  0
 10 21  1  0  0  0  0
 10 24  1  0  0  0  0
 10 35  1  0  0  0  0
 11 12  1  0  0  0  0
 11 36  1  0  0  0  0
 11 37  1  0  0  0  0
 12 23  1  0  0  0  0
 12 38  1  0  0  0  0
 12 39  1  0  0  0  0
 13 23  1  0  0  0  0
 13 25  4  0  0  0  0
 13 29  4  0  0  0  0
 15 16  4  0  0  0  0
 15 18  4  0  0  0  0
 16 17  4  0  0  0  0
 17 19  4  0  0  0  0
 18 19  4  0  0  0  0
 20 22  1  0  0  0  0
 21 40  1  0  0  0  0
 22 41  1  0  0  0  0
 22 42  1  0  0  0  0
 22 43  1  0  0  0  0
 23 24  1  0  0  0  0
 24 44  1  0  0  0  0
 24 45  1  0  0  0  0
 25 26  4  0  0  0  0
 25 46  1  0  0  0  0
 26 27  4  0  0  0  0
 26 47  1  0  0  0  0
 27 28  4  0  0  0  0
 28 29  4  0  0  0  0
 28 48  1  0  0  0  0
 29 49  1  0  0  0  0
M  END
> <ConfClashScore>
0 

> <ConfOneFourInteractionScore>
-0.983503 

> <ConfScore>
0.0758048 

> <ConfScorePBest>
0.00259362 

> <ConfTolerance>
0.47321 

> <HETNAM>
     OWQ A 303  OWQ                                                       

> <pdb_OW>
Q_303 -16.5129 3.80749 7.62812 0.15963 1.39178 -0.28144 -3.20151 0 0 0 -1.30514 0 0 0 0 0 0 0 0 -8.31393

$$$$
6yky_lig_1.pdb
 OpenBabel04162415593D

 49 53  0  0  0  0  0  0  0  0999 V2000
    0.4886   -0.1405    0.8693 C   0  0  0  1  0  0  0  0  0  0  0  0
    1.8529   -0.6506    2.6547 C   0  0  0  1  0  0  0  0  0  0  0  0
    1.3292   -0.6443   -0.0085 N   0  0  0  1  0  0  0  0  0  0  0  0
    3.7968   -2.0299   -1.6192 C   0  0  0  1  0  0  0  0  0  0  0  0
    3.7097   -1.0082   -2.5459 C   0  0  0  1  0  0  0  0  0  0  0  0
    4.2118   -3.5984   -3.3840 C   0  0  0  1  0  0  0  0  0  0  0  0
    4.0456   -3.3273   -2.0390 C   0  0  0  1  0  0  0  0  0  0  0  0
    4.1244   -2.5738   -4.3137 C   0  0  0  1  0  0  0  0  0  0  0  0
    3.8764   -1.2802   -3.8949 C   0  0  0  1  0  0  0  0  0  0  0  0
   -1.6857    0.9078    1.3441 C   0  0  0  1  0  0  0  0  0  0  0  0
   -2.6529   -0.2036    1.7819 C   0  0  0  1  0  0  0  0  0  0  0  0
   -3.8889    0.6066    2.2021 C   0  0  0  1  0  0  0  0  0  0  0  0
   -4.2267    3.1857    2.2072 C   0  0  0  1  0  0  0  0  0  0  0  0
    0.7368   -0.1401    2.1673 N   0  0  0  1  0  0  0  0  0  0  0  0
    2.7832   -1.2003    1.7653 C   0  0  0  1  0  0  0  0  0  0  0  0
    2.4771   -1.1793    0.3891 C   0  0  0  1  0  0  0  0  0  0  0  0
    3.5370   -1.7685   -0.2428 N   0  0  0  1  0  0  0  0  0  0  0  0
    3.9907   -1.7891    1.9079 N   0  0  0  1  0  0  0  0  0  0  0  0
    4.4536   -2.1302    0.7560 N   0  0  0  1  0  0  0  0  0  0  0  0
    4.2916   -2.9070   -5.6156 O   0  0  0  1  0  0  0  0  0  0  0  0
   -0.6819    0.4013    0.4249 N   0  0  0  1  0  0  0  0  0  0  0  0
    4.2375   -4.3080   -5.9489 C   0  0  0  1  0  0  0  0  0  0  0  0
   -3.6273    1.9982    1.7264 N   0  0  0  1  0  0  0  0  0  0  0  0
   -2.6196    1.8872    0.6554 C   0  0  0  1  0  0  0  0  0  0  0  0
   -3.9253    4.4085    1.6365 C   0  0  0  1  0  0  0  0  0  0  0  0
   -4.5367    5.5432    2.1347 C   0  0  0  1  0  0  0  0  0  0  0  0
   -5.4080    5.5239    3.1479 N   0  0  0  1  0  0  0  0  0  0  0  0
   -5.6877    4.3322    3.6946 C   0  0  0  1  0  0  0  0  0  0  0  0
   -5.1245    3.1465    3.2561 C   0  0  0  1  0  0  0  0  0  0  0  0
    2.0368   -0.6444    3.6783 H   0  0  0  1  0  0  0  0  0  0  0  0
    3.5190   -0.0355   -2.2312 H   0  0  0  1  0  0  0  0  0  0  0  0
    4.4025   -4.5712   -3.6987 H   0  0  0  1  0  0  0  0  0  0  0  0
    4.1072   -4.0967   -1.3419 H   0  0  0  1  0  0  0  0  0  0  0  0
    3.8148   -0.5109   -4.5919 H   0  0  0  1  0  0  0  0  0  0  0  0
   -1.2038    1.3577    2.1869 H   0  0  0  1  0  0  0  0  0  0  0  0
   -2.2567   -0.7642    2.6027 H   0  0  0  1  0  0  0  0  0  0  0  0
   -2.8777   -0.8661    0.9723 H   0  0  0  1  0  0  0  0  0  0  0  0
   -4.0043    0.5896    3.2657 H   0  0  0  1  0  0  0  0  0  0  0  0
   -4.7701    0.2123    1.7408 H   0  0  0  1  0  0  0  0  0  0  0  0
   -0.8496    0.4499   -0.5394 H   0  0  0  1  0  0  0  0  0  0  0  0
    3.2376   -4.6670   -5.8216 H   0  0  0  1  0  0  0  0  0  0  0  0
    4.8964   -4.8530   -5.3058 H   0  0  0  1  0  0  0  0  0  0  0  0
    4.5382   -4.4440   -6.9667 H   0  0  0  1  0  0  0  0  0  0  0  0
   -3.0309    1.4877   -0.2480 H   0  0  0  1  0  0  0  0  0  0  0  0
   -2.1440    2.8230    0.4482 H   0  0  0  1  0  0  0  0  0  0  0  0
   -3.2512    4.4730    0.8472 H   0  0  0  1  0  0  0  0  0  0  0  0
   -4.3070    6.4592    1.6988 H   0  0  0  1  0  0  0  0  0  0  0  0
   -6.3606    4.2971    4.4868 H   0  0  0  1  0  0  0  0  0  0  0  0
   -5.3727    2.2431    3.7077 H   0  0  0  1  0  0  0  0  0  0  0  0
  1  3  4  0  0  0  0
  1 14  4  0  0  0  0
  1 21  1  0  0  0  0
  2 14  4  0  0  0  0
  2 15  4  0  0  0  0
  2 30  1  0  0  0  0
  3 16  4  0  0  0  0
  4  5  4  0  0  0  0
  4  7  4  0  0  0  0
  4 17  1  0  0  0  0
  5  9  4  0  0  0  0
  5 31  1  0  0  0  0
  6  7  4  0  0  0  0
  6  8  4  0  0  0  0
  6 32  1  0  0  0  0
  7 33  1  0  0  0  0
  8  9  4  0  0  0  0
  8 20  1  0  0  0  0
  9 34  1  0  0  0  0
 10 11  1  0  0  0  0
 10 21  1  0  0  0  0
 10 24  1  0  0  0  0
 10 35  1  0  0  0  0
 11 12  1  0  0  0  0
 11 36  1  0  0  0  0
 11 37  1  0  0  0  0
 12 23  1  0  0  0  0
 12 38  1  0  0  0  0
 12 39  1  0  0  0  0
 13 23  1  0  0  0  0
 13 25  4  0  0  0  0
 13 29  4  0  0  0  0
 15 16  4  0  0  0  0
 15 18  4  0  0  0  0
 16 17  4  0  0  0  0
 17 19  4  0  0  0  0
 18 19  4  0  0  0  0
 20 22  1  0  0  0  0
 21 40  1  0  0  0  0
 22 41  1  0  0  0  0
 22 42  1  0  0  0  0
 22 43  1  0  0  0  0
 23 24  1  0  0  0  0
 24 44  1  0  0  0  0
 24 45  1  0  0  0  0
 25 26  4  0  0  0  0
 25 46  1  0  0  0  0
 26 27  4  0  0  0  0
 26 47  1  0  0  0  0
 27 28  4  0  0  0  0
 28 29  4  0  0  0  0
 28 48  1  0  0  0  0
 29 49  1  0  0  0  0
M  END
> <ConfClashScore>
0 

> <ConfOneFourInteractionScore>
-0.986948 

> <ConfScore>
0.0759831 

> <ConfScorePBest>
0.00258029 

> <ConfTolerance>
0.404172 

> <HETNAM>
     OWQ A 303  OWQ                                                       

> <pdb_OW>
Q_303 -16.5129 3.80749 7.62812 0.15963 1.39178 -0.28144 -3.20151 0 0 0 -1.30514 0 0 0 0 0 0 0 0 -8.31393

$$$$
6yky_lig_1.pdb
 OpenBabel04162415593D

 49 53  0  0  0  0  0  0  0  0999 V2000
    1.3147   -1.9436   -2.3873 C   0  0  0  1  0  0  0  0  0  0  0  0
    3.4459   -2.1194   -3.2455 C   0  0  0  1  0  0  0  0  0  0  0  0
    1.7075   -1.2032   -1.3732 N   0  0  0  1  0  0  0  0  0  0  0  0
    3.3098    0.5549    0.8505 C   0  0  0  1  0  0  0  0  0  0  0  0
    4.2367    1.3023    1.5522 C   0  0  0  1  0  0  0  0  0  0  0  0
    1.6606    1.0225    2.5264 C   0  0  0  1  0  0  0  0  0  0  0  0
    2.0206    0.4126    1.3395 C   0  0  0  1  0  0  0  0  0  0  0  0
    2.5902    1.7721    3.2304 C   0  0  0  1  0  0  0  0  0  0  0  0
    3.8756    1.9139    2.7426 C   0  0  0  1  0  0  0  0  0  0  0  0
   -0.9958   -1.7496   -1.5650 C   0  0  0  1  0  0  0  0  0  0  0  0
   -1.9842   -2.8484   -1.1434 C   0  0  0  1  0  0  0  0  0  0  0  0
   -3.2004   -2.0204   -0.7008 C   0  0  0  1  0  0  0  0  0  0  0  0
   -3.4809    0.5606   -0.6455 C   0  0  0  1  0  0  0  0  0  0  0  0
    2.1553   -2.3932   -3.3027 N   0  0  0  1  0  0  0  0  0  0  0  0
    3.9187   -1.3352   -2.1871 C   0  0  0  1  0  0  0  0  0  0  0  0
    2.9865   -0.8771   -1.2335 C   0  0  0  1  0  0  0  0  0  0  0  0
    3.7027   -0.1479   -0.3251 N   0  0  0  1  0  0  0  0  0  0  0  0
    5.1359   -0.8744   -1.8251 N   0  0  0  1  0  0  0  0  0  0  0  0
    5.0410   -0.1801   -0.7450 N   0  0  0  1  0  0  0  0  0  0  0  0
    2.2158    2.4439    4.3451 O   0  0  0  1  0  0  0  0  0  0  0  0
   -0.0077   -2.2593   -2.4994 N   0  0  0  1  0  0  0  0  0  0  0  0
    0.8708    2.2476    4.8088 C   0  0  0  1  0  0  0  0  0  0  0  0
   -2.9116   -0.6257   -1.1509 N   0  0  0  1  0  0  0  0  0  0  0  0
   -1.9120   -0.7373   -2.2293 C   0  0  0  1  0  0  0  0  0  0  0  0
   -4.6389    1.0336   -1.2347 C   0  0  0  1  0  0  0  0  0  0  0  0
   -5.2080    2.1936   -0.7447 C   0  0  0  1  0  0  0  0  0  0  0  0
   -4.6947    2.8907    0.2735 N   0  0  0  1  0  0  0  0  0  0  0  0
   -3.5695    2.4231    0.8325 C   0  0  0  1  0  0  0  0  0  0  0  0
   -2.9356    1.2685    0.4077 C   0  0  0  1  0  0  0  0  0  0  0  0
    4.0975   -2.4790   -3.9719 H   0  0  0  1  0  0  0  0  0  0  0  0
    5.2051    1.4057    1.1873 H   0  0  0  1  0  0  0  0  0  0  0  0
    0.6923    0.9191    2.8914 H   0  0  0  1  0  0  0  0  0  0  0  0
    1.3243   -0.1531    0.8135 H   0  0  0  1  0  0  0  0  0  0  0  0
    4.5719    2.4796    3.2686 H   0  0  0  1  0  0  0  0  0  0  0  0
   -0.5000   -1.3266   -0.7163 H   0  0  0  1  0  0  0  0  0  0  0  0
   -1.5959   -3.4332   -0.3359 H   0  0  0  1  0  0  0  0  0  0  0  0
   -2.2273   -3.4901   -1.9644 H   0  0  0  1  0  0  0  0  0  0  0  0
   -3.3108   -2.0556    0.3630 H   0  0  0  1  0  0  0  0  0  0  0  0
   -4.0923   -2.3868   -1.1647 H   0  0  0  1  0  0  0  0  0  0  0  0
   -0.2984   -2.8453   -3.2291 H   0  0  0  1  0  0  0  0  0  0  0  0
    0.1827    2.5543    4.0490 H   0  0  0  1  0  0  0  0  0  0  0  0
    0.7097    2.8302    5.6917 H   0  0  0  1  0  0  0  0  0  0  0  0
    0.7180    1.2122    5.0312 H   0  0  0  1  0  0  0  0  0  0  0  0
   -1.4175    0.1920   -2.4211 H   0  0  0  1  0  0  0  0  0  0  0  0
   -2.3364   -1.1102   -3.1380 H   0  0  0  1  0  0  0  0  0  0  0  0
   -5.0734    0.5259   -2.0316 H   0  0  0  1  0  0  0  0  0  0  0  0
   -6.0802    2.5421   -1.1912 H   0  0  0  1  0  0  0  0  0  0  0  0
   -3.1526    2.9538    1.6238 H   0  0  0  1  0  0  0  0  0  0  0  0
   -2.0652    0.9401    0.8727 H   0  0  0  1  0  0  0  0  0  0  0  0
  1  3  4  0  0  0  0
  1 14  4  0  0  0  0
  1 21  1  0  0  0  0
  2 14  4  0  0  0  0
  2 15  4  0  0  0  0
  2 30  1  0  0  0  0
  3 16  4  0  0  0  0
  4  5  4  0  0  0  0
  4  7  4  0  0  0  0
  4 17  1  0  0  0  0
  5  9  4  0  0  0  0
  5 31  1  0  0  0  0
  6  7  4  0  0  0  0
  6  8  4  0  0  0  0
  6 32  1  0  0  0  0
  7 33  1  0  0  0  0
  8  9  4  0  0  0  0
  8 20  1  0  0  0  0
  9 34  1  0  0  0  0
 10 11  1  0  0  0  0
 10 21  1  0  0  0  0
 10 24  1  0  0  0  0
 10 35  1  0  0  0  0
 11 12  1  0  0  0  0
 11 36  1  0  0  0  0
 11 37  1  0  0  0  0
 12 23  1  0  0  0  0
 12 38  1  0  0  0  0
 12 39  1  0  0  0  0
 13 23  1  0  0  0  0
 13 25  4  0  0  0  0
 13 29  4  0  0  0  0
 15 16  4  0  0  0  0
 15 18  4  0  0  0  0
 16 17  4  0  0  0  0
 17 19  4  0  0  0  0
 18 19  4  0  0  0  0
 20 22  1  0  0  0  0
 21 40  1  0  0  0  0
 22 41  1  0  0  0  0
 22 42  1  0  0  0  0
 22 43  1  0  0  0  0
 23 24  1  0  0  0  0
 24 44  1  0  0  0  0
 24 45  1  0  0  0  0
 25 26  4  0  0  0  0
 25 46  1  0  0  0  0
 26 27  4  0  0  0  0
 26 47  1  0  0  0  0
 27 28  4  0  0  0  0
 28 29  4  0  0  0  0
 28 48  1  0  0  0  0
 29 49  1  0  0  0  0
M  END
> <ConfClashScore>
0 

> <ConfOneFourInteractionScore>
-0.986948 

> <ConfScore>
0.0764548 

> <ConfScorePBest>
0.00256696 

> <ConfTolerance>
0.573641 

> <HETNAM>
     OWQ A 303  OWQ                                                       

> <pdb_OW>
Q_303 -16.5129 3.80749 7.62812 0.15963 1.39178 -0.28144 -3.20151 0 0 0 -1.30514 0 0 0 0 0 0 0 0 -8.31393

$$$$
6yky_lig_1.pdb
 OpenBabel04162415593D

 49 53  0  0  0  0  0  0  0  0999 V2000
    0.9973   -0.8601   -2.6075 C   0  0  0  1  0  0  0  0  0  0  0  0
    2.7314   -1.8490   -3.7584 C   0  0  0  1  0  0  0  0  0  0  0  0
    1.5833   -1.0247   -1.4411 N   0  0  0  1  0  0  0  0  0  0  0  0
    3.5092   -1.8226    1.0747 C   0  0  0  1  0  0  0  0  0  0  0  0
    4.1123   -2.8025    1.8403 C   0  0  0  1  0  0  0  0  0  0  0  0
    2.5865   -0.8389    3.0567 C   0  0  0  1  0  0  0  0  0  0  0  0
    2.7429   -0.8409    1.6835 C   0  0  0  1  0  0  0  0  0  0  0  0
    3.1914   -1.8217    3.8247 C   0  0  0  1  0  0  0  0  0  0  0  0
    3.9554   -2.8005    3.2176 C   0  0  0  1  0  0  0  0  0  0  0  0
   -1.0543    0.2773   -1.6624 C   0  0  0  1  0  0  0  0  0  0  0  0
   -2.1245   -0.7451   -1.1895 C   0  0  0  1  0  0  0  0  0  0  0  0
   -3.3353    0.0579   -0.6697 C   0  0  0  1  0  0  0  0  0  0  0  0
   -3.8594    2.5378   -0.9456 C   0  0  0  1  0  0  0  0  0  0  0  0
    1.5501   -1.2588   -3.7397 N   0  0  0  1  0  0  0  0  0  0  0  0
    3.3999   -2.0496   -2.5453 C   0  0  0  1  0  0  0  0  0  0  0  0
    2.7728   -1.6083   -1.3620 C   0  0  0  1  0  0  0  0  0  0  0  0
    3.6272   -1.9230   -0.3417 N   0  0  0  1  0  0  0  0  0  0  0  0
    4.5836   -2.6019   -2.2008 N   0  0  0  1  0  0  0  0  0  0  0  0
    4.7429   -2.5424   -0.9245 N   0  0  0  1  0  0  0  0  0  0  0  0
    3.1142   -1.7701    5.1758 O   0  0  0  1  0  0  0  0  0  0  0  0
   -0.2023   -0.2748   -2.7180 N   0  0  0  1  0  0  0  0  0  0  0  0
    2.3192   -0.7198    5.7480 C   0  0  0  1  0  0  0  0  0  0  0  0
   -3.1069    1.4108   -1.2514 N   0  0  0  1  0  0  0  0  0  0  0  0
   -1.9762    1.3918   -2.1939 C   0  0  0  1  0  0  0  0  0  0  0  0
   -4.0720    3.4731   -1.9415 C   0  0  0  1  0  0  0  0  0  0  0  0
   -4.8225    4.5961   -1.6495 C   0  0  0  1  0  0  0  0  0  0  0  0
   -5.3559    4.8312   -0.4468 N   0  0  0  1  0  0  0  0  0  0  0  0
   -5.1382    3.9183    0.5105 C   0  0  0  1  0  0  0  0  0  0  0  0
   -4.4024    2.7645    0.3040 C   0  0  0  1  0  0  0  0  0  0  0  0
    3.1561   -2.1583   -4.6559 H   0  0  0  1  0  0  0  0  0  0  0  0
    4.6839   -3.5414    1.3832 H   0  0  0  1  0  0  0  0  0  0  0  0
    2.0149   -0.1000    3.5139 H   0  0  0  1  0  0  0  0  0  0  0  0
    2.2858   -0.1059    1.1069 H   0  0  0  1  0  0  0  0  0  0  0  0
    4.4125   -3.5355    3.7941 H   0  0  0  1  0  0  0  0  0  0  0  0
   -0.4439    0.6180   -0.8524 H   0  0  0  1  0  0  0  0  0  0  0  0
   -1.7263   -1.3542   -0.4051 H   0  0  0  1  0  0  0  0  0  0  0  0
   -2.4227   -1.3666   -2.0079 H   0  0  0  1  0  0  0  0  0  0  0  0
   -4.2552   -0.3619   -1.0195 H   0  0  0  1  0  0  0  0  0  0  0  0
   -3.3433    0.0945    0.3997 H   0  0  0  1  0  0  0  0  0  0  0  0
   -0.5582   -0.2067   -3.6286 H   0  0  0  1  0  0  0  0  0  0  0  0
    1.9346   -1.0382    6.6944 H   0  0  0  1  0  0  0  0  0  0  0  0
    1.5059   -0.4905    5.0916 H   0  0  0  1  0  0  0  0  0  0  0  0
    2.9248    0.1517    5.8843 H   0  0  0  1  0  0  0  0  0  0  0  0
   -1.4690    2.3339   -2.1959 H   0  0  0  1  0  0  0  0  0  0  0  0
   -2.3124    1.1651   -3.1841 H   0  0  0  1  0  0  0  0  0  0  0  0
   -3.6746    3.3340   -2.8925 H   0  0  0  1  0  0  0  0  0  0  0  0
   -4.9803    5.2940   -2.4042 H   0  0  0  1  0  0  0  0  0  0  0  0
   -5.5419    4.0853    1.4543 H   0  0  0  1  0  0  0  0  0  0  0  0
   -4.2610    2.0810    1.0751 H   0  0  0  1  0  0  0  0  0  0  0  0
  1  3  4  0  0  0  0
  1 14  4  0  0  0  0
  1 21  1  0  0  0  0
  2 14  4  0  0  0  0
  2 15  4  0  0  0  0
  2 30  1  0  0  0  0
  3 16  4  0  0  0  0
  4  5  4  0  0  0  0
  4  7  4  0  0  0  0
  4 17  1  0  0  0  0
  5  9  4  0  0  0  0
  5 31  1  0  0  0  0
  6  7  4  0  0  0  0
  6  8  4  0  0  0  0
  6 32  1  0  0  0  0
  7 33  1  0  0  0  0
  8  9  4  0  0  0  0
  8 20  1  0  0  0  0
  9 34  1  0  0  0  0
 10 11  1  0  0  0  0
 10 21  1  0  0  0  0
 10 24  1  0  0  0  0
 10 35  1  0  0  0  0
 11 12  1  0  0  0  0
 11 36  1  0  0  0  0
 11 37  1  0  0  0  0
 12 23  1  0  0  0  0
 12 38  1  0  0  0  0
 12 39  1  0  0  0  0
 13 23  1  0  0  0  0
 13 25  4  0  0  0  0
 13 29  4  0  0  0  0
 15 16  4  0  0  0  0
 15 18  4  0  0  0  0
 16 17  4  0  0  0  0
 17 19  4  0  0  0  0
 18 19  4  0  0  0  0
 20 22  1  0  0  0  0
 21 40  1  0  0  0  0
 22 41  1  0  0  0  0
 22 42  1  0  0  0  0
 22 43  1  0  0  0  0
 23 24  1  0  0  0  0
 24 44  1  0  0  0  0
 24 45  1  0  0  0  0
 25 26  4  0  0  0  0
 25 46  1  0  0  0  0
 26 27  4  0  0  0  0
 26 47  1  0  0  0  0
 27 28  4  0  0  0  0
 28 29  4  0  0  0  0
 28 48  1  0  0  0  0
 29 49  1  0  0  0  0
M  END
> <ConfClashScore>
0 

> <ConfOneFourInteractionScore>
-0.986948 

> <ConfScore>
0.07666 

> <ConfScorePBest>
0.00255363 

> <ConfTolerance>
0.638799 

> <HETNAM>
     OWQ A 303  OWQ                                                       

> <pdb_OW>
Q_303 -16.5129 3.80749 7.62812 0.15963 1.39178 -0.28144 -3.20151 0 0 0 -1.30514 0 0 0 0 0 0 0 0 -8.31393

$$$$
6yky_lig_1.pdb
 OpenBabel04162415593D

 49 53  0  0  0  0  0  0  0  0999 V2000
    3.2631   -1.0315   -1.0111 C   0  0  0  1  0  0  0  0  0  0  0  0
    3.5128   -1.7938   -3.1712 C   0  0  0  1  0  0  0  0  0  0  0  0
    1.9514   -1.1228   -1.0548 N   0  0  0  1  0  0  0  0  0  0  0  0
   -1.1832   -1.5750   -1.8119 C   0  0  0  1  0  0  0  0  0  0  0  0
   -2.0724   -2.6253   -1.6845 C   0  0  0  1  0  0  0  0  0  0  0  0
   -2.7461   -0.1169   -0.7264 C   0  0  0  1  0  0  0  0  0  0  0  0
   -1.5215   -0.3183   -1.3346 C   0  0  0  1  0  0  0  0  0  0  0  0
   -3.6382   -1.1702   -0.5985 C   0  0  0  1  0  0  0  0  0  0  0  0
   -3.3006   -2.4232   -1.0744 C   0  0  0  1  0  0  0  0  0  0  0  0
    3.2908   -0.0439    1.2811 C   0  0  0  1  0  0  0  0  0  0  0  0
    2.2926   -1.0404    1.9114 C   0  0  0  1  0  0  0  0  0  0  0  0
    1.0888   -0.2527    2.3633 C   0  0  0  1  0  0  0  0  0  0  0  0
    0.3928    2.1089    1.6460 C   0  0  0  1  0  0  0  0  0  0  0  0
    4.0297   -1.3563   -2.0374 N   0  0  0  1  0  0  0  0  0  0  0  0
    2.1219   -1.9105   -3.2730 C   0  0  0  1  0  0  0  0  0  0  0  0
    1.3430   -1.5529   -2.1533 C   0  0  0  1  0  0  0  0  0  0  0  0
    0.0410   -1.7584   -2.5176 N   0  0  0  1  0  0  0  0  0  0  0  0
    1.2777   -2.3097   -4.2492 N   0  0  0  1  0  0  0  0  0  0  0  0
    0.0601   -2.2318   -3.8382 N   0  0  0  1  0  0  0  0  0  0  0  0
   -4.8639   -1.0928   -0.0280 O   0  0  0  1  0  0  0  0  0  0  0  0
    3.9035   -0.6017    0.0819 N   0  0  0  1  0  0  0  0  0  0  0  0
   -5.2855    0.1946    0.4490 C   0  0  0  1  0  0  0  0  0  0  0  0
    1.3018    1.0788    1.6105 N   0  0  0  1  0  0  0  0  0  0  0  0
    2.4092    1.1423    0.9431 C   0  0  0  1  0  0  0  0  0  0  0  0
    0.5663    3.2410    2.4206 C   0  0  0  1  0  0  0  0  0  0  0  0
   -0.4031    4.2251    2.3859 C   0  0  0  1  0  0  0  0  0  0  0  0
   -1.5096    4.1407    1.6411 N   0  0  0  1  0  0  0  0  0  0  0  0
   -1.6671    3.0358    0.8984 C   0  0  0  1  0  0  0  0  0  0  0  0
   -0.7453    2.0039    0.8704 C   0  0  0  1  0  0  0  0  0  0  0  0
    4.1266   -2.0462   -3.9719 H   0  0  0  1  0  0  0  0  0  0  0  0
   -1.8202   -3.5672   -2.0462 H   0  0  0  1  0  0  0  0  0  0  0  0
   -2.9984    0.8249   -0.3647 H   0  0  0  1  0  0  0  0  0  0  0  0
   -0.8539    0.4729   -1.4341 H   0  0  0  1  0  0  0  0  0  0  0  0
   -3.9682   -3.2144   -0.9749 H   0  0  0  1  0  0  0  0  0  0  0  0
    4.0548    0.2297    1.9784 H   0  0  0  1  0  0  0  0  0  0  0  0
    1.9996   -1.7712    1.1868 H   0  0  0  1  0  0  0  0  0  0  0  0
    2.7445   -1.5292    2.7491 H   0  0  0  1  0  0  0  0  0  0  0  0
    1.0903   -0.1082    3.4235 H   0  0  0  1  0  0  0  0  0  0  0  0
    0.1764   -0.7278    2.0689 H   0  0  0  1  0  0  0  0  0  0  0  0
    4.8812   -0.6684    0.0757 H   0  0  0  1  0  0  0  0  0  0  0  0
   -5.1867    0.9159   -0.3350 H   0  0  0  1  0  0  0  0  0  0  0  0
   -4.6755    0.4845    1.2790 H   0  0  0  1  0  0  0  0  0  0  0  0
   -6.3084    0.1425    0.7586 H   0  0  0  1  0  0  0  0  0  0  0  0
    2.9222    2.0471    1.1945 H   0  0  0  1  0  0  0  0  0  0  0  0
    2.1918    1.1342   -0.1045 H   0  0  0  1  0  0  0  0  0  0  0  0
    1.4106    3.3498    3.0181 H   0  0  0  1  0  0  0  0  0  0  0  0
   -0.2646    5.0749    2.9692 H   0  0  0  1  0  0  0  0  0  0  0  0
   -2.5237    2.9499    0.3149 H   0  0  0  1  0  0  0  0  0  0  0  0
   -0.9064    1.1654    0.2766 H   0  0  0  1  0  0  0  0  0  0  0  0
  1  3  4  0  0  0  0
  1 14  4  0  0  0  0
  1 21  1  0  0  0  0
  2 14  4  0  0  0  0
  2 15  4  0  0  0  0
  2 30  1  0  0  0  0
  3 16  4  0  0  0  0
  4  5  4  0  0  0  0
  4  7  4  0  0  0  0
  4 17  1  0  0  0  0
  5  9  4  0  0  0  0
  5 31  1  0  0  0  0
  6  7  4  0  0  0  0
  6  8  4  0  0  0  0
  6 32  1  0  0  0  0
  7 33  1  0  0  0  0
  8  9  4  0  0  0  0
  8 20  1  0  0  0  0
  9 34  1  0  0  0  0
 10 11  1  0  0  0  0
 10 21  1  0  0  0  0
 10 24  1  0  0  0  0
 10 35  1  0  0  0  0
 11 12  1  0  0  0  0
 11 36  1  0  0  0  0
 11 37  1  0  0  0  0
 12 23  1  0  0  0  0
 12 38  1  0  0  0  0
 12 39  1  0  0  0  0
 13 23  1  0  0  0  0
 13 25  4  0  0  0  0
 13 29  4  0  0  0  0
 15 16  4  0  0  0  0
 15 18  4  0  0  0  0
 16 17  4  0  0  0  0
 17 19  4  0  0  0  0
 18 19  4  0  0  0  0
 20 22  1  0  0  0  0
 21 40  1  0  0  0  0
 22 41  1  0  0  0  0
 22 42  1  0  0  0  0
 22 43  1  0  0  0  0
 23 24  1  0  0  0  0
 24 44  1  0  0  0  0
 24 45  1  0  0  0  0
 25 26  4  0  0  0  0
 25 46  1  0  0  0  0
 26 27  4  0  0  0  0
 26 47  1  0  0  0  0
 27 28  4  0  0  0  0
 28 29  4  0  0  0  0
 28 48  1  0  0  0  0
 29 49  1  0  0  0  0
M  END
> <ConfClashScore>
0 

> <ConfOneFourInteractionScore>
-0.983503 

> <ConfScore>
0.0772399 

> <ConfScorePBest>
0.00254031 

> <ConfTolerance>
0.557179 

> <HETNAM>
     OWQ A 303  OWQ                                                       

> <pdb_OW>
Q_303 -16.5129 3.80749 7.62812 0.15963 1.39178 -0.28144 -3.20151 0 0 0 -1.30514 0 0 0 0 0 0 0 0 -8.31393

$$$$
6yky_lig_1.pdb
 OpenBabel04162415593D

 49 53  0  0  0  0  0  0  0  0999 V2000
    1.7311   -2.6734   -1.4801 C   0  0  0  1  0  0  0  0  0  0  0  0
    3.1482   -2.4782   -3.2865 C   0  0  0  1  0  0  0  0  0  0  0  0
    1.6661   -1.3718   -1.3000 N   0  0  0  1  0  0  0  0  0  0  0  0
    2.0222    1.8757   -1.3525 C   0  0  0  1  0  0  0  0  0  0  0  0
    2.3477    3.1821   -1.6646 C   0  0  0  1  0  0  0  0  0  0  0  0
    0.9637    2.6191    0.6659 C   0  0  0  1  0  0  0  0  0  0  0  0
    1.3315    1.5934   -0.1843 C   0  0  0  1  0  0  0  0  0  0  0  0
    1.2901    3.9295    0.3531 C   0  0  0  1  0  0  0  0  0  0  0  0
    1.9788    4.2108   -0.8118 C   0  0  0  1  0  0  0  0  0  0  0  0
    0.1570   -2.9578    0.3890 C   0  0  0  1  0  0  0  0  0  0  0  0
   -0.9073   -3.9970    0.8381 C   0  0  0  1  0  0  0  0  0  0  0  0
   -2.1403   -3.2132    1.3344 C   0  0  0  1  0  0  0  0  0  0  0  0
   -2.7098   -0.7206    1.0574 C   0  0  0  1  0  0  0  0  0  0  0  0
    2.4506   -3.2193   -2.4450 N   0  0  0  1  0  0  0  0  0  0  0  0
    3.1151   -1.0867   -3.1409 C   0  0  0  1  0  0  0  0  0  0  0  0
    2.3344   -0.5478   -2.0977 C   0  0  0  1  0  0  0  0  0  0  0  0
    2.4779    0.8096   -2.1808 N   0  0  0  1  0  0  0  0  0  0  0  0
    3.6876   -0.0555   -3.7995 N   0  0  0  1  0  0  0  0  0  0  0  0
    3.3348    1.0605   -3.2630 N   0  0  0  1  0  0  0  0  0  0  0  0
    0.9343    4.9340    1.1887 O   0  0  0  1  0  0  0  0  0  0  0  0
    1.0312   -3.4904   -0.6412 N   0  0  0  1  0  0  0  0  0  0  0  0
    0.3006    4.5666    2.4240 C   0  0  0  1  0  0  0  0  0  0  0  0
   -1.9203   -1.8559    0.7598 N   0  0  0  1  0  0  0  0  0  0  0  0
   -0.7704   -1.8561   -0.1593 C   0  0  0  1  0  0  0  0  0  0  0  0
   -3.8179   -0.4120    0.2903 C   0  0  0  1  0  0  0  0  0  0  0  0
   -4.5636    0.7042    0.6186 C   0  0  0  1  0  0  0  0  0  0  0  0
   -4.2683    1.5099    1.6432 N   0  0  0  1  0  0  0  0  0  0  0  0
   -3.1888    1.2013    2.3758 C   0  0  0  1  0  0  0  0  0  0  0  0
   -2.3888    0.1013    2.1201 C   0  0  0  1  0  0  0  0  0  0  0  0
    3.7106   -2.9196   -4.0419 H   0  0  0  1  0  0  0  0  0  0  0  0
    2.8695    3.3934   -2.5391 H   0  0  0  1  0  0  0  0  0  0  0  0
    0.4420    2.4078    1.5404 H   0  0  0  1  0  0  0  0  0  0  0  0
    1.0901    0.6099    0.0524 H   0  0  0  1  0  0  0  0  0  0  0  0
    2.2202    5.1942   -1.0485 H   0  0  0  1  0  0  0  0  0  0  0  0
    0.7455   -2.6096    1.2119 H   0  0  0  1  0  0  0  0  0  0  0  0
   -0.5160   -4.6017    1.6295 H   0  0  0  1  0  0  0  0  0  0  0  0
   -1.1793   -4.6212    0.0127 H   0  0  0  1  0  0  0  0  0  0  0  0
   -3.0465   -3.6460    0.9651 H   0  0  0  1  0  0  0  0  0  0  0  0
   -2.1706   -3.1790    2.4035 H   0  0  0  1  0  0  0  0  0  0  0  0
    1.1206   -4.4617   -0.7362 H   0  0  0  1  0  0  0  0  0  0  0  0
   -0.3503    3.7338    2.2576 H   0  0  0  1  0  0  0  0  0  0  0  0
   -0.2675    5.3947    2.7933 H   0  0  0  1  0  0  0  0  0  0  0  0
    1.0474    4.2974    3.1415 H   0  0  0  1  0  0  0  0  0  0  0  0
   -1.0828   -2.0857   -1.1566 H   0  0  0  1  0  0  0  0  0  0  0  0
   -0.2774   -0.9065   -0.1492 H   0  0  0  1  0  0  0  0  0  0  0  0
   -4.0852   -1.0086   -0.5185 H   0  0  0  1  0  0  0  0  0  0  0  0
   -5.3972    0.9287    0.0386 H   0  0  0  1  0  0  0  0  0  0  0  0
   -2.9405    1.8184    3.1752 H   0  0  0  1  0  0  0  0  0  0  0  0
   -1.5617   -0.1025    2.7167 H   0  0  0  1  0  0  0  0  0  0  0  0
  1  3  4  0  0  0  0
  1 14  4  0  0  0  0
  1 21  1  0  0  0  0
  2 14  4  0  0  0  0
  2 15  4  0  0  0  0
  2 30  1  0  0  0  0
  3 16  4  0  0  0  0
  4  5  4  0  0  0  0
  4  7  4  0  0  0  0
  4 17  1  0  0  0  0
  5  9  4  0  0  0  0
  5 31  1  0  0  0  0
  6  7  4  0  0  0  0
  6  8  4  0  0  0  0
  6 32  1  0  0  0  0
  7 33  1  0  0  0  0
  8  9  4  0  0  0  0
  8 20  1  0  0  0  0
  9 34  1  0  0  0  0
 10 11  1  0  0  0  0
 10 21  1  0  0  0  0
 10 24  1  0  0  0  0
 10 35  1  0  0  0  0
 11 12  1  0  0  0  0
 11 36  1  0  0  0  0
 11 37  1  0  0  0  0
 12 23  1  0  0  0  0
 12 38  1  0  0  0  0
 12 39  1  0  0  0  0
 13 23  1  0  0  0  0
 13 25  4  0  0  0  0
 13 29  4  0  0  0  0
 15 16  4  0  0  0  0
 15 18  4  0  0  0  0
 16 17  4  0  0  0  0
 17 19  4  0  0  0  0
 18 19  4  0  0  0  0
 20 22  1  0  0  0  0
 21 40  1  0  0  0  0
 22 41  1  0  0  0  0
 22 42  1  0  0  0  0
 22 43  1  0  0  0  0
 23 24  1  0  0  0  0
 24 44  1  0  0  0  0
 24 45  1  0  0  0  0
 25 26  4  0  0  0  0
 25 46  1  0  0  0  0
 26 27  4  0  0  0  0
 26 47  1  0  0  0  0
 27 28  4  0  0  0  0
 28 29  4  0  0  0  0
 28 48  1  0  0  0  0
 29 49  1  0  0  0  0
M  END
> <ConfClashScore>
0 

> <ConfOneFourInteractionScore>
-0.987833 

> <ConfScore>
0.0773093 

> <ConfScorePBest>
0.00252698 

> <ConfTolerance>
0.481479 

> <HETNAM>
     OWQ A 303  OWQ                                                       

> <pdb_OW>
Q_303 -16.5129 3.80749 7.62812 0.15963 1.39178 -0.28144 -3.20151 0 0 0 -1.30514 0 0 0 0 0 0 0 0 -8.31393

$$$$
6yky_lig_1.pdb
 OpenBabel04162415593D

 49 53  0  0  0  0  0  0  0  0999 V2000
    2.0388   -2.6601   -1.3005 C   0  0  0  1  0  0  0  0  0  0  0  0
    3.7037   -2.4243   -2.8759 C   0  0  0  1  0  0  0  0  0  0  0  0
    1.8694   -1.3609   -1.1812 N   0  0  0  1  0  0  0  0  0  0  0  0
    1.9284    1.8514   -1.3354 C   0  0  0  1  0  0  0  0  0  0  0  0
    0.8896    1.4975   -0.4954 C   0  0  0  1  0  0  0  0  0  0  0  0
    1.4039    4.1682   -1.0118 C   0  0  0  1  0  0  0  0  0  0  0  0
    2.1844    3.1886   -1.5962 C   0  0  0  1  0  0  0  0  0  0  0  0
    0.3619    3.8134   -0.1692 C   0  0  0  1  0  0  0  0  0  0  0  0
    0.1069    2.4801    0.0907 C   0  0  0  1  0  0  0  0  0  0  0  0
    0.2759   -2.9391    0.4124 C   0  0  0  1  0  0  0  0  0  0  0  0
   -0.7169   -4.0348    0.8320 C   0  0  0  1  0  0  0  0  0  0  0  0
   -1.9231   -3.2023    1.2931 C   0  0  0  1  0  0  0  0  0  0  0  0
   -2.1844   -0.6200    1.3753 C   0  0  0  1  0  0  0  0  0  0  0  0
    2.9298   -3.1851   -2.1234 N   0  0  0  1  0  0  0  0  0  0  0  0
    3.5658   -1.0343   -2.7891 C   0  0  0  1  0  0  0  0  0  0  0  0
    2.6027   -0.5181   -1.8980 C   0  0  0  1  0  0  0  0  0  0  0  0
    2.6765    0.8429   -2.0090 N   0  0  0  1  0  0  0  0  0  0  0  0
    4.1709    0.0130   -3.3909 N   0  0  0  1  0  0  0  0  0  0  0  0
    3.6738    1.1183   -2.9565 N   0  0  0  1  0  0  0  0  0  0  0  0
   -0.4060    4.7731    0.3993 O   0  0  0  1  0  0  0  0  0  0  0  0
    1.2524   -3.4471   -0.5355 N   0  0  0  1  0  0  0  0  0  0  0  0
   -1.3915    4.3457    1.3525 C   0  0  0  1  0  0  0  0  0  0  0  0
   -1.6280   -1.8055    0.8538 N   0  0  0  1  0  0  0  0  0  0  0  0
   -0.6385   -1.9139   -0.2343 C   0  0  0  1  0  0  0  0  0  0  0  0
   -1.6305    0.0683    2.4388 C   0  0  0  1  0  0  0  0  0  0  0  0
   -2.2480    1.2245    2.8762 C   0  0  0  1  0  0  0  0  0  0  0  0
   -3.3620    1.7163    2.3252 N   0  0  0  1  0  0  0  0  0  0  0  0
   -3.8906    1.0364    1.2978 C   0  0  0  1  0  0  0  0  0  0  0  0
   -3.3362   -0.1271    0.7938 C   0  0  0  1  0  0  0  0  0  0  0  0
    4.4012   -2.8493   -3.5197 H   0  0  0  1  0  0  0  0  0  0  0  0
    0.6951    0.4942   -0.3030 H   0  0  0  1  0  0  0  0  0  0  0  0
    1.5984    5.1716   -1.2042 H   0  0  0  1  0  0  0  0  0  0  0  0
    2.9636    3.4547   -2.2315 H   0  0  0  1  0  0  0  0  0  0  0  0
   -0.6723    2.2140    0.7260 H   0  0  0  1  0  0  0  0  0  0  0  0
    0.7820   -2.5279    1.2607 H   0  0  0  1  0  0  0  0  0  0  0  0
   -0.3259   -4.6301    1.6306 H   0  0  0  1  0  0  0  0  0  0  0  0
   -0.9717   -4.6668    0.0071 H   0  0  0  1  0  0  0  0  0  0  0  0
   -2.8216   -3.5579    0.8334 H   0  0  0  1  0  0  0  0  0  0  0  0
   -2.0246   -3.2470    2.3573 H   0  0  0  1  0  0  0  0  0  0  0  0
    1.3459   -4.4185   -0.6250 H   0  0  0  1  0  0  0  0  0  0  0  0
   -2.0241    3.6075    0.9056 H   0  0  0  1  0  0  0  0  0  0  0  0
   -1.9821    5.1851    1.6552 H   0  0  0  1  0  0  0  0  0  0  0  0
   -0.9027    3.9262    2.2069 H   0  0  0  1  0  0  0  0  0  0  0  0
   -0.1390   -0.9864   -0.4214 H   0  0  0  1  0  0  0  0  0  0  0  0
   -1.0734   -2.2750   -1.1428 H   0  0  0  1  0  0  0  0  0  0  0  0
   -0.7653   -0.2776    2.9009 H   0  0  0  1  0  0  0  0  0  0  0  0
   -1.8243    1.7384    3.6750 H   0  0  0  1  0  0  0  0  0  0  0  0
   -4.7597    1.4012    0.8581 H   0  0  0  1  0  0  0  0  0  0  0  0
   -3.7783   -0.6210   -0.0076 H   0  0  0  1  0  0  0  0  0  0  0  0
  1  3  4  0  0  0  0
  1 14  4  0  0  0  0
  1 21  1  0  0  0  0
  2 14  4  0  0  0  0
  2 15  4  0  0  0  0
  2 30  1  0  0  0  0
  3 16  4  0  0  0  0
  4  5  4  0  0  0  0
  4  7  4  0  0  0  0
  4 17  1  0  0  0  0
  5  9  4  0  0  0  0
  5 31  1  0  0  0  0
  6  7  4  0  0  0  0
  6  8  4  0  0  0  0
  6 32  1  0  0  0  0
  7 33  1  0  0  0  0
  8  9  4  0  0  0  0
  8 20  1  0  0  0  0
  9 34  1  0  0  0  0
 10 11  1  0  0  0  0
 10 21  1  0  0  0  0
 10 24  1  0  0  0  0
 10 35  1  0  0  0  0
 11 12  1  0  0  0  0
 11 36  1  0  0  0  0
 11 37  1  0  0  0  0
 12 23  1  0  0  0  0
 12 38  1  0  0  0  0
 12 39  1  0  0  0  0
 13 23  1  0  0  0  0
 13 25  4  0  0  0  0
 13 29  4  0  0  0  0
 15 16  4  0  0  0  0
 15 18  4  0  0  0  0
 16 17  4  0  0  0  0
 17 19  4  0  0  0  0
 18 19  4  0  0  0  0
 20 22  1  0  0  0  0
 21 40  1  0  0  0  0
 22 41  1  0  0  0  0
 22 42  1  0  0  0  0
 22 43  1  0  0  0  0
 23 24  1  0  0  0  0
 24 44  1  0  0  0  0
 24 45  1  0  0  0  0
 25 26  4  0  0  0  0
 25 46  1  0  0  0  0
 26 27  4  0  0  0  0
 26 47  1  0  0  0  0
 27 28  4  0  0  0  0
 28 29  4  0  0  0  0
 28 48  1  0  0  0  0
 29 49  1  0  0  0  0
M  END
> <ConfClashScore>
0 

> <ConfOneFourInteractionScore>
-0.987833 

> <ConfScore>
0.0778941 

> <ConfScorePBest>
0.00251365 

> <ConfTolerance>
0.368409 

> <HETNAM>
     OWQ A 303  OWQ                                                       

> <pdb_OW>
Q_303 -16.5129 3.80749 7.62812 0.15963 1.39178 -0.28144 -3.20151 0 0 0 -1.30514 0 0 0 0 0 0 0 0 -8.31393

$$$$
6yky_lig_1.pdb
 OpenBabel04162415593D

 49 53  0  0  0  0  0  0  0  0999 V2000
    2.0329   -0.5129   -2.5084 C   0  0  0  1  0  0  0  0  0  0  0  0
    3.7167   -1.9647   -3.1140 C   0  0  0  1  0  0  0  0  0  0  0  0
    1.8373   -1.1095   -1.3523 N   0  0  0  1  0  0  0  0  0  0  0  0
    1.8372   -2.9631    1.2765 C   0  0  0  1  0  0  0  0  0  0  0  0
    0.8061   -2.0459    1.3520 C   0  0  0  1  0  0  0  0  0  0  0  0
    1.4145   -3.6280    3.5407 C   0  0  0  1  0  0  0  0  0  0  0  0
    2.1436   -3.7535    2.3732 C   0  0  0  1  0  0  0  0  0  0  0  0
    0.3803   -2.7081    3.6166 C   0  0  0  1  0  0  0  0  0  0  0  0
    0.0749   -1.9201    2.5229 C   0  0  0  1  0  0  0  0  0  0  0  0
    0.2735    1.0864   -1.8818 C   0  0  0  1  0  0  0  0  0  0  0  0
   -0.7056   -0.0186   -1.4543 C   0  0  0  1  0  0  0  0  0  0  0  0
   -1.9196    0.8023   -0.9927 C   0  0  0  1  0  0  0  0  0  0  0  0
   -2.1997    3.3617   -0.9291 C   0  0  0  1  0  0  0  0  0  0  0  0
    2.9460   -0.9236   -3.3712 N   0  0  0  1  0  0  0  0  0  0  0  0
    3.5514   -2.6372   -1.8979 C   0  0  0  1  0  0  0  0  0  0  0  0
    2.5653   -2.1646   -1.0077 C   0  0  0  1  0  0  0  0  0  0  0  0
    2.6144   -2.9885    0.0826 N   0  0  0  1  0  0  0  0  0  0  0  0
    4.1450   -3.7057   -1.3227 N   0  0  0  1  0  0  0  0  0  0  0  0
    3.6202   -3.9336   -0.1693 N   0  0  0  1  0  0  0  0  0  0  0  0
   -0.2546   -2.6713    4.8042 O   0  0  0  1  0  0  0  0  0  0  0  0
    1.2559    0.5836   -2.8341 N   0  0  0  1  0  0  0  0  0  0  0  0
   -1.3182   -1.6955    4.8998 C   0  0  0  1  0  0  0  0  0  0  0  0
   -1.6415    2.2005   -1.4387 N   0  0  0  1  0  0  0  0  0  0  0  0
   -0.6545    2.0986   -2.5296 C   0  0  0  1  0  0  0  0  0  0  0  0
   -3.2551    3.9787   -1.5748 C   0  0  0  1  0  0  0  0  0  0  0  0
   -3.7844    5.1330   -1.0298 C   0  0  0  1  0  0  0  0  0  0  0  0
   -3.3264    5.6919    0.0945 N   0  0  0  1  0  0  0  0  0  0  0  0
   -2.3000    5.0855    0.7078 C   0  0  0  1  0  0  0  0  0  0  0  0
   -1.7126    3.9255    0.2339 C   0  0  0  1  0  0  0  0  0  0  0  0
    4.4317   -2.2783   -3.8011 H   0  0  0  1  0  0  0  0  0  0  0  0
    0.5789   -1.4501    0.5305 H   0  0  0  1  0  0  0  0  0  0  0  0
    1.6418   -4.2239    4.3622 H   0  0  0  1  0  0  0  0  0  0  0  0
    2.9221   -4.4409    2.3176 H   0  0  0  1  0  0  0  0  0  0  0  0
   -0.7036   -1.2327    2.5785 H   0  0  0  1  0  0  0  0  0  0  0  0
    0.7777    1.5068   -1.0368 H   0  0  0  1  0  0  0  0  0  0  0  0
   -0.9561   -0.6568   -2.2758 H   0  0  0  1  0  0  0  0  0  0  0  0
   -0.3054   -0.6062   -0.6546 H   0  0  0  1  0  0  0  0  0  0  0  0
   -2.8155    0.4349   -1.4479 H   0  0  0  1  0  0  0  0  0  0  0  0
   -2.0170    0.7610    0.0721 H   0  0  0  1  0  0  0  0  0  0  0  0
    1.3654    1.0220   -3.7037 H   0  0  0  1  0  0  0  0  0  0  0  0
   -0.9589   -0.7423    4.5722 H   0  0  0  1  0  0  0  0  0  0  0  0
   -1.6452   -1.6230    5.9160 H   0  0  0  1  0  0  0  0  0  0  0  0
   -2.1372   -1.9993    4.2819 H   0  0  0  1  0  0  0  0  0  0  0  0
   -1.0883    1.7289   -3.4352 H   0  0  0  1  0  0  0  0  0  0  0  0
   -0.1659    3.0309   -2.7223 H   0  0  0  1  0  0  0  0  0  0  0  0
   -3.6433    3.5816   -2.4541 H   0  0  0  1  0  0  0  0  0  0  0  0
   -4.5797    5.5903   -1.5197 H   0  0  0  1  0  0  0  0  0  0  0  0
   -1.9271    5.5074    1.5822 H   0  0  0  1  0  0  0  0  0  0  0  0
   -0.9195    3.4866    0.7438 H   0  0  0  1  0  0  0  0  0  0  0  0
  1  3  4  0  0  0  0
  1 14  4  0  0  0  0
  1 21  1  0  0  0  0
  2 14  4  0  0  0  0
  2 15  4  0  0  0  0
  2 30  1  0  0  0  0
  3 16  4  0  0  0  0
  4  5  4  0  0  0  0
  4  7  4  0  0  0  0
  4 17  1  0  0  0  0
  5  9  4  0  0  0  0
  5 31  1  0  0  0  0
  6  7  4  0  0  0  0
  6  8  4  0  0  0  0
  6 32  1  0  0  0  0
  7 33  1  0  0  0  0
  8  9  4  0  0  0  0
  8 20  1  0  0  0  0
  9 34  1  0  0  0  0
 10 11  1  0  0  0  0
 10 21  1  0  0  0  0
 10 24  1  0  0  0  0
 10 35  1  0  0  0  0
 11 12  1  0  0  0  0
 11 36  1  0  0  0  0
 11 37  1  0  0  0  0
 12 23  1  0  0  0  0
 12 38  1  0  0  0  0
 12 39  1  0  0  0  0
 13 23  1  0  0  0  0
 13 25  4  0  0  0  0
 13 29  4  0  0  0  0
 15 16  4  0  0  0  0
 15 18  4  0  0  0  0
 16 17  4  0  0  0  0
 17 19  4  0  0  0  0
 18 19  4  0  0  0  0
 20 22  1  0  0  0  0
 21 40  1  0  0  0  0
 22 41  1  0  0  0  0
 22 42  1  0  0  0  0
 22 43  1  0  0  0  0
 23 24  1  0  0  0  0
 24 44  1  0  0  0  0
 24 45  1  0  0  0  0
 25 26  4  0  0  0  0
 25 46  1  0  0  0  0
 26 27  4  0  0  0  0
 26 47  1  0  0  0  0
 27 28  4  0  0  0  0
 28 29  4  0  0  0  0
 28 48  1  0  0  0  0
 29 49  1  0  0  0  0
M  END
> <ConfClashScore>
0 

> <ConfOneFourInteractionScore>
-0.987833 

> <ConfScore>
0.0787231 

> <ConfScorePBest>
0.00250032 

> <ConfTolerance>
0.526395 

> <HETNAM>
     OWQ A 303  OWQ                                                       

> <pdb_OW>
Q_303 -16.5129 3.80749 7.62812 0.15963 1.39178 -0.28144 -3.20151 0 0 0 -1.30514 0 0 0 0 0 0 0 0 -8.31393

$$$$
6yky_lig_1.pdb
 OpenBabel04162415593D

 49 53  0  0  0  0  0  0  0  0999 V2000
    1.2062   -2.5715   -1.9086 C   0  0  0  1  0  0  0  0  0  0  0  0
    3.3050   -2.7912   -2.8338 C   0  0  0  1  0  0  0  0  0  0  0  0
    1.5524   -1.5211   -1.1960 N   0  0  0  1  0  0  0  0  0  0  0  0
    3.0313    0.9824    0.2697 C   0  0  0  1  0  0  0  0  0  0  0  0
    2.8360    2.2687   -0.1967 C   0  0  0  1  0  0  0  0  0  0  0  0
    2.5806    1.7221    2.5051 C   0  0  0  1  0  0  0  0  0  0  0  0
    2.9060    0.7092    1.6229 C   0  0  0  1  0  0  0  0  0  0  0  0
    2.3847    3.0123    2.0375 C   0  0  0  1  0  0  0  0  0  0  0  0
    2.5097    3.2846    0.6882 C   0  0  0  1  0  0  0  0  0  0  0  0
   -1.0347   -2.5273   -0.8720 C   0  0  0  1  0  0  0  0  0  0  0  0
   -2.0139   -3.6321   -0.4445 C   0  0  0  1  0  0  0  0  0  0  0  0
   -3.2276   -2.8111    0.0175 C   0  0  0  1  0  0  0  0  0  0  0  0
   -3.5050   -0.2562    0.0795 C   0  0  0  1  0  0  0  0  0  0  0  0
    2.0539   -3.1949   -2.7081 N   0  0  0  1  0  0  0  0  0  0  0  0
    3.7274   -1.6779   -2.0984 C   0  0  0  1  0  0  0  0  0  0  0  0
    2.7894   -1.0438   -1.2581 C   0  0  0  1  0  0  0  0  0  0  0  0
    3.4534   -0.0045   -0.6674 N   0  0  0  1  0  0  0  0  0  0  0  0
    4.8967   -1.0110   -1.9848 N   0  0  0  1  0  0  0  0  0  0  0  0
    4.7672   -0.0321   -1.1586 N   0  0  0  1  0  0  0  0  0  0  0  0
    2.0785    3.8869    3.0250 O   0  0  0  1  0  0  0  0  0  0  0  0
   -0.0560   -3.0284   -1.8213 N   0  0  0  1  0  0  0  0  0  0  0  0
    1.7453    5.2279    2.6339 C   0  0  0  1  0  0  0  0  0  0  0  0
   -2.9494   -1.4129   -0.4284 N   0  0  0  1  0  0  0  0  0  0  0  0
   -1.9626   -1.5148   -1.5196 C   0  0  0  1  0  0  0  0  0  0  0  0
   -3.0040    0.2440    1.2671 C   0  0  0  1  0  0  0  0  0  0  0  0
   -3.5502    1.4039    1.7828 C   0  0  0  1  0  0  0  0  0  0  0  0
   -4.5463    2.0723    1.1934 N   0  0  0  1  0  0  0  0  0  0  0  0
   -5.0253    1.5737    0.0449 C   0  0  0  1  0  0  0  0  0  0  0  0
   -4.5351    0.4210   -0.5435 C   0  0  0  1  0  0  0  0  0  0  0  0
    3.9627   -3.2902   -3.4663 H   0  0  0  1  0  0  0  0  0  0  0  0
    2.9340    2.4744   -1.2114 H   0  0  0  1  0  0  0  0  0  0  0  0
    2.4827    1.5164    3.5198 H   0  0  0  1  0  0  0  0  0  0  0  0
    3.0569   -0.2580    1.9743 H   0  0  0  1  0  0  0  0  0  0  0  0
    2.3588    4.2517    0.3367 H   0  0  0  1  0  0  0  0  0  0  0  0
   -0.5302   -2.1071   -0.0271 H   0  0  0  1  0  0  0  0  0  0  0  0
   -2.2646   -4.2702   -1.2660 H   0  0  0  1  0  0  0  0  0  0  0  0
   -1.6136   -4.2199    0.3551 H   0  0  0  1  0  0  0  0  0  0  0  0
   -4.1237   -3.1783   -0.4376 H   0  0  0  1  0  0  0  0  0  0  0  0
   -3.3249   -2.8525    1.0823 H   0  0  0  1  0  0  0  0  0  0  0  0
   -0.3316   -3.7415   -2.4344 H   0  0  0  1  0  0  0  0  0  0  0  0
    2.5514    5.6456    2.0675 H   0  0  0  1  0  0  0  0  0  0  0  0
    1.5778    5.8228    3.5074 H   0  0  0  1  0  0  0  0  0  0  0  0
    0.8585    5.2147    2.0353 H   0  0  0  1  0  0  0  0  0  0  0  0
   -2.3967   -1.8844   -2.4251 H   0  0  0  1  0  0  0  0  0  0  0  0
   -1.4739   -0.5827   -1.7122 H   0  0  0  1  0  0  0  0  0  0  0  0
   -2.2306   -0.2434    1.7629 H   0  0  0  1  0  0  0  0  0  0  0  0
   -3.1667    1.7756    2.6751 H   0  0  0  1  0  0  0  0  0  0  0  0
   -5.8032    2.0777   -0.4269 H   0  0  0  1  0  0  0  0  0  0  0  0
   -4.9348    0.0712   -1.4377 H   0  0  0  1  0  0  0  0  0  0  0  0
  1  3  4  0  0  0  0
  1 14  4  0  0  0  0
  1 21  1  0  0  0  0
  2 14  4  0  0  0  0
  2 15  4  0  0  0  0
  2 30  1  0  0  0  0
  3 16  4  0  0  0  0
  4  5  4  0  0  0  0
  4  7  4  0  0  0  0
  4 17  1  0  0  0  0
  5  9  4  0  0  0  0
  5 31  1  0  0  0  0
  6  7  4  0  0  0  0
  6  8  4  0  0  0  0
  6 32  1  0  0  0  0
  7 33  1  0  0  0  0
  8  9  4  0  0  0  0
  8 20  1  0  0  0  0
  9 34  1  0  0  0  0
 10 11  1  0  0  0  0
 10 21  1  0  0  0  0
 10 24  1  0  0  0  0
 10 35  1  0  0  0  0
 11 12  1  0  0  0  0
 11 36  1  0  0  0  0
 11 37  1  0  0  0  0
 12 23  1  0  0  0  0
 12 38  1  0  0  0  0
 12 39  1  0  0  0  0
 13 23  1  0  0  0  0
 13 25  4  0  0  0  0
 13 29  4  0  0  0  0
 15 16  4  0  0  0  0
 15 18  4  0  0  0  0
 16 17  4  0  0  0  0
 17 19  4  0  0  0  0
 18 19  4  0  0  0  0
 20 22  1  0  0  0  0
 21 40  1  0  0  0  0
 22 41  1  0  0  0  0
 22 42  1  0  0  0  0
 22 43  1  0  0  0  0
 23 24  1  0  0  0  0
 24 44  1  0  0  0  0
 24 45  1  0  0  0  0
 25 26  4  0  0  0  0
 25 46  1  0  0  0  0
 26 27  4  0  0  0  0
 26 47  1  0  0  0  0
 27 28  4  0  0  0  0
 28 29  4  0  0  0  0
 28 48  1  0  0  0  0
 29 49  1  0  0  0  0
M  END
> <ConfClashScore>
0 

> <ConfOneFourInteractionScore>
-0.986948 

> <ConfScore>
0.0802232 

> <ConfScorePBest>
0.00248699 

> <ConfTolerance>
0.455062 

> <HETNAM>
     OWQ A 303  OWQ                                                       

> <pdb_OW>
Q_303 -16.5129 3.80749 7.62812 0.15963 1.39178 -0.28144 -3.20151 0 0 0 -1.30514 0 0 0 0 0 0 0 0 -8.31393

$$$$
6yky_lig_1.pdb
 OpenBabel04162415593D

 49 53  0  0  0  0  0  0  0  0999 V2000
    0.7229    0.4606    0.4230 C   0  0  0  1  0  0  0  0  0  0  0  0
    2.1532    2.2661    0.3611 C   0  0  0  1  0  0  0  0  0  0  0  0
    1.4441   -0.2307   -0.4331 N   0  0  0  1  0  0  0  0  0  0  0  0
    3.6390   -1.3786   -2.5469 C   0  0  0  1  0  0  0  0  0  0  0  0
    2.6234   -2.3154   -2.5152 C   0  0  0  1  0  0  0  0  0  0  0  0
    4.9911   -2.8845   -3.8318 C   0  0  0  1  0  0  0  0  0  0  0  0
    4.8256   -1.6645   -3.2039 C   0  0  0  1  0  0  0  0  0  0  0  0
    3.9726   -3.8243   -3.8001 C   0  0  0  1  0  0  0  0  0  0  0  0
    2.7895   -3.5390   -3.1450 C   0  0  0  1  0  0  0  0  0  0  0  0
   -1.2507    0.4699    1.9735 C   0  0  0  1  0  0  0  0  0  0  0  0
   -2.3113   -0.5541    2.4643 C   0  0  0  1  0  0  0  0  0  0  0  0
   -3.5245    0.2468    2.9817 C   0  0  0  1  0  0  0  0  0  0  0  0
   -4.0779    2.7363    2.6847 C   0  0  0  1  0  0  0  0  0  0  0  0
    1.0618    1.6765    0.8142 N   0  0  0  1  0  0  0  0  0  0  0  0
    2.9581    1.5758   -0.5524 C   0  0  0  1  0  0  0  0  0  0  0  0
    2.5582    0.2811   -0.9420 C   0  0  0  1  0  0  0  0  0  0  0  0
    3.5057   -0.1572   -1.8252 N   0  0  0  1  0  0  0  0  0  0  0  0
    4.1073    1.8630   -1.2019 N   0  0  0  1  0  0  0  0  0  0  0  0
    4.4501    0.8728   -1.9499 N   0  0  0  1  0  0  0  0  0  0  0  0
    4.2538   -4.9948   -4.4509 O   0  0  0  1  0  0  0  0  0  0  0  0
   -0.4004   -0.0890    0.9188 N   0  0  0  1  0  0  0  0  0  0  0  0
    3.1374   -5.8977   -4.4814 C   0  0  0  1  0  0  0  0  0  0  0  0
   -3.3084    1.5944    2.3832 N   0  0  0  1  0  0  0  0  0  0  0  0
   -2.1830    1.5720    1.4346 C   0  0  0  1  0  0  0  0  0  0  0  0
   -4.4173    3.6392    1.6941 C   0  0  0  1  0  0  0  0  0  0  0  0
   -5.1763    4.7432    2.0327 C   0  0  0  1  0  0  0  0  0  0  0  0
   -5.6012    4.9897    3.2757 N   0  0  0  1  0  0  0  0  0  0  0  0
   -5.2612    4.1083    4.2269 C   0  0  0  1  0  0  0  0  0  0  0  0
   -4.5075    2.9751    3.9755 C   0  0  0  1  0  0  0  0  0  0  0  0
    2.4093    3.2234    0.6765 H   0  0  0  1  0  0  0  0  0  0  0  0
    1.7346   -2.1024   -2.0189 H   0  0  0  1  0  0  0  0  0  0  0  0
    5.8799   -3.0976   -4.3281 H   0  0  0  1  0  0  0  0  0  0  0  0
    5.5913   -0.9610   -3.2243 H   0  0  0  1  0  0  0  0  0  0  0  0
    2.0238   -4.2425   -3.1246 H   0  0  0  1  0  0  0  0  0  0  0  0
   -0.6380    0.8240    2.7761 H   0  0  0  1  0  0  0  0  0  0  0  0
   -2.6099   -1.1869    1.6548 H   0  0  0  1  0  0  0  0  0  0  0  0
   -1.9046   -1.1514    3.2533 H   0  0  0  1  0  0  0  0  0  0  0  0
   -3.5267    0.2956    4.0506 H   0  0  0  1  0  0  0  0  0  0  0  0
   -4.4436   -0.1831    2.6420 H   0  0  0  1  0  0  0  0  0  0  0  0
   -0.6774   -0.9480    0.5369 H   0  0  0  1  0  0  0  0  0  0  0  0
    2.3826   -5.5105   -5.1335 H   0  0  0  1  0  0  0  0  0  0  0  0
    2.7366   -6.0023   -3.4948 H   0  0  0  1  0  0  0  0  0  0  0  0
    3.4611   -6.8529   -4.8385 H   0  0  0  1  0  0  0  0  0  0  0  0
   -1.6821    2.5174    1.4189 H   0  0  0  1  0  0  0  0  0  0  0  0
   -2.5232    1.3317    0.4490 H   0  0  0  1  0  0  0  0  0  0  0  0
   -4.1072    3.4902    0.7126 H   0  0  0  1  0  0  0  0  0  0  0  0
   -5.4299    5.4167    1.2819 H   0  0  0  1  0  0  0  0  0  0  0  0
   -5.5792    4.2848    5.2013 H   0  0  0  1  0  0  0  0  0  0  0  0
   -4.2692    2.3160    4.7438 H   0  0  0  1  0  0  0  0  0  0  0  0
  1  3  4  0  0  0  0
  1 14  4  0  0  0  0
  1 21  1  0  0  0  0
  2 14  4  0  0  0  0
  2 15  4  0  0  0  0
  2 30  1  0  0  0  0
  3 16  4  0  0  0  0
  4  5  4  0  0  0  0
  4  7  4  0  0  0  0
  4 17  1  0  0  0  0
  5  9  4  0  0  0  0
  5 31  1  0  0  0  0
  6  7  4  0  0  0  0
  6  8  4  0  0  0  0
  6 32  1  0  0  0  0
  7 33  1  0  0  0  0
  8  9  4  0  0  0  0
  8 20  1  0  0  0  0
  9 34  1  0  0  0  0
 10 11  1  0  0  0  0
 10 21  1  0  0  0  0
 10 24  1  0  0  0  0
 10 35  1  0  0  0  0
 11 12  1  0  0  0  0
 11 36  1  0  0  0  0
 11 37  1  0  0  0  0
 12 23  1  0  0  0  0
 12 38  1  0  0  0  0
 12 39  1  0  0  0  0
 13 23  1  0  0  0  0
 13 25  4  0  0  0  0
 13 29  4  0  0  0  0
 15 16  4  0  0  0  0
 15 18  4  0  0  0  0
 16 17  4  0  0  0  0
 17 19  4  0  0  0  0
 18 19  4  0  0  0  0
 20 22  1  0  0  0  0
 21 40  1  0  0  0  0
 22 41  1  0  0  0  0
 22 42  1  0  0  0  0
 22 43  1  0  0  0  0
 23 24  1  0  0  0  0
 24 44  1  0  0  0  0
 24 45  1  0  0  0  0
 25 26  4  0  0  0  0
 25 46  1  0  0  0  0
 26 27  4  0  0  0  0
 26 47  1  0  0  0  0
 27 28  4  0  0  0  0
 28 29  4  0  0  0  0
 28 48  1  0  0  0  0
 29 49  1  0  0  0  0
M  END
> <ConfClashScore>
0 

> <ConfOneFourInteractionScore>
-0.984874 

> <ConfScore>
0.0820729 

> <ConfScorePBest>
0.00247367 

> <ConfTolerance>
0.527233 

> <HETNAM>
     OWQ A 303  OWQ                                                       

> <pdb_OW>
Q_303 -16.5129 3.80749 7.62812 0.15963 1.39178 -0.28144 -3.20151 0 0 0 -1.30514 0 0 0 0 0 0 0 0 -8.31393

$$$$
6yky_lig_1.pdb
 OpenBabel04162415593D

 49 53  0  0  0  0  0  0  0  0999 V2000
    1.0243    0.0643    1.1181 C   0  0  0  1  0  0  0  0  0  0  0  0
    3.1265    0.1506    2.0577 C   0  0  0  1  0  0  0  0  0  0  0  0
    1.4715   -0.4446   -0.0097 N   0  0  0  1  0  0  0  0  0  0  0  0
    3.2189   -1.7987   -2.4348 C   0  0  0  1  0  0  0  0  0  0  0  0
    3.5516   -3.1200   -2.6662 C   0  0  0  1  0  0  0  0  0  0  0  0
    2.4358   -1.5983   -4.6918 C   0  0  0  1  0  0  0  0  0  0  0  0
    2.6626   -1.0358   -3.4498 C   0  0  0  1  0  0  0  0  0  0  0  0
    2.7695   -2.9236   -4.9240 C   0  0  0  1  0  0  0  0  0  0  0  0
    3.3241   -3.6839   -3.9119 C   0  0  0  1  0  0  0  0  0  0  0  0
   -0.9704    0.7961    2.3850 C   0  0  0  1  0  0  0  0  0  0  0  0
   -1.9849   -0.2254    2.9455 C   0  0  0  1  0  0  0  0  0  0  0  0
   -3.2132    0.5400    3.3688 C   0  0  0  1  0  0  0  0  0  0  0  0
   -3.9236    2.9416    2.6897 C   0  0  0  1  0  0  0  0  0  0  0  0
    1.8240    0.3566    2.1289 N   0  0  0  1  0  0  0  0  0  0  0  0
    3.6566   -0.3892    0.8803 C   0  0  0  1  0  0  0  0  0  0  0  0
    2.7666   -0.6858   -0.1723 C   0  0  0  1  0  0  0  0  0  0  0  0
    3.5341   -1.1920   -1.1847 N   0  0  0  1  0  0  0  0  0  0  0  0
    4.9007   -0.7209    0.4713 N   0  0  0  1  0  0  0  0  0  0  0  0
    4.8602   -1.1908   -0.7267 N   0  0  0  1  0  0  0  0  0  0  0  0
    2.5067   -3.3621   -6.1780 O   0  0  0  1  0  0  0  0  0  0  0  0
   -0.3061    0.2788    1.2014 N   0  0  0  1  0  0  0  0  0  0  0  0
    2.8850   -4.7109   -6.4942 C   0  0  0  1  0  0  0  0  0  0  0  0
   -2.9812    1.8938    2.6627 N   0  0  0  1  0  0  0  0  0  0  0  0
   -1.8478    1.9845    2.0439 C   0  0  0  1  0  0  0  0  0  0  0  0
   -5.1389    2.8457    3.3419 C   0  0  0  1  0  0  0  0  0  0  0  0
   -5.9952    3.9301    3.3149 C   0  0  0  1  0  0  0  0  0  0  0  0
   -5.7120    5.0745    2.6853 N   0  0  0  1  0  0  0  0  0  0  0  0
   -4.5321    5.1521    2.0535 C   0  0  0  1  0  0  0  0  0  0  0  0
   -3.6141    4.1166    2.0330 C   0  0  0  1  0  0  0  0  0  0  0  0
    3.7455    0.3848    2.8599 H   0  0  0  1  0  0  0  0  0  0  0  0
    3.9726   -3.6911   -1.9058 H   0  0  0  1  0  0  0  0  0  0  0  0
    2.0148   -1.0272   -5.4522 H   0  0  0  1  0  0  0  0  0  0  0  0
    2.4160   -0.0404   -3.2768 H   0  0  0  1  0  0  0  0  0  0  0  0
    3.5707   -4.6794   -4.0848 H   0  0  0  1  0  0  0  0  0  0  0  0
   -0.2382    1.0559    3.1207 H   0  0  0  1  0  0  0  0  0  0  0  0
   -2.2412   -0.9378    2.1895 H   0  0  0  1  0  0  0  0  0  0  0  0
   -1.5636   -0.7340    3.7874 H   0  0  0  1  0  0  0  0  0  0  0  0
   -3.2567    0.6547    4.4317 H   0  0  0  1  0  0  0  0  0  0  0  0
   -4.1085    0.0663    3.0238 H   0  0  0  1  0  0  0  0  0  0  0  0
   -0.8562    0.0733    0.4168 H   0  0  0  1  0  0  0  0  0  0  0  0
    3.8741   -4.7182   -6.9023 H   0  0  0  1  0  0  0  0  0  0  0  0
    2.2007   -5.1142   -7.2112 H   0  0  0  1  0  0  0  0  0  0  0  0
    2.8619   -5.3054   -5.6049 H   0  0  0  1  0  0  0  0  0  0  0  0
   -2.0218    2.0041    0.9883 H   0  0  0  1  0  0  0  0  0  0  0  0
   -1.3536    2.8858    2.3412 H   0  0  0  1  0  0  0  0  0  0  0  0
   -5.4038    1.9739    3.8433 H   0  0  0  1  0  0  0  0  0  0  0  0
   -6.9065    3.8516    3.8097 H   0  0  0  1  0  0  0  0  0  0  0  0
   -4.2951    6.0333    1.5546 H   0  0  0  1  0  0  0  0  0  0  0  0
   -2.7084    4.2213    1.5325 H   0  0  0  1  0  0  0  0  0  0  0  0
  1  3  4  0  0  0  0
  1 14  4  0  0  0  0
  1 21  1  0  0  0  0
  2 14  4  0  0  0  0
  2 15  4  0  0  0  0
  2 30  1  0  0  0  0
  3 16  4  0  0  0  0
  4  5  4  0  0  0  0
  4  7  4  0  0  0  0
  4 17  1  0  0  0  0
  5  9  4  0  0  0  0
  5 31  1  0  0  0  0
  6  7  4  0  0  0  0
  6  8  4  0  0  0  0
  6 32  1  0  0  0  0
  7 33  1  0  0  0  0
  8  9  4  0  0  0  0
  8 20  1  0  0  0  0
  9 34  1  0  0  0  0
 10 11  1  0  0  0  0
 10 21  1  0  0  0  0
 10 24  1  0  0  0  0
 10 35  1  0  0  0  0
 11 12  1  0  0  0  0
 11 36  1  0  0  0  0
 11 37  1  0  0  0  0
 12 23  1  0  0  0  0
 12 38  1  0  0  0  0
 12 39  1  0  0  0  0
 13 23  1  0  0  0  0
 13 25  4  0  0  0  0
 13 29  4  0  0  0  0
 15 16  4  0  0  0  0
 15 18  4  0  0  0  0
 16 17  4  0  0  0  0
 17 19  4  0  0  0  0
 18 19  4  0  0  0  0
 20 22  1  0  0  0  0
 21 40  1  0  0  0  0
 22 41  1  0  0  0  0
 22 42  1  0  0  0  0
 22 43  1  0  0  0  0
 23 24  1  0  0  0  0
 24 44  1  0  0  0  0
 24 45  1  0  0  0  0
 25 26  4  0  0  0  0
 25 46  1  0  0  0  0
 26 27  4  0  0  0  0
 26 47  1  0  0  0  0
 27 28  4  0  0  0  0
 28 29  4  0  0  0  0
 28 48  1  0  0  0  0
 29 49  1  0  0  0  0
M  END
> <ConfClashScore>
0 

> <ConfOneFourInteractionScore>
-0.986948 

> <ConfScore>
0.0820767 

> <ConfScorePBest>
0.00246034 

> <ConfTolerance>
0.552343 

> <HETNAM>
     OWQ A 303  OWQ                                                       

> <pdb_OW>
Q_303 -16.5129 3.80749 7.62812 0.15963 1.39178 -0.28144 -3.20151 0 0 0 -1.30514 0 0 0 0 0 0 0 0 -8.31393

$$$$
6yky_lig_1.pdb
 OpenBabel04162415593D

 49 53  0  0  0  0  0  0  0  0999 V2000
   -0.2495   -0.5289    0.0933 C   0  0  0  1  0  0  0  0  0  0  0  0
   -1.8604   -1.3554   -1.3319 C   0  0  0  1  0  0  0  0  0  0  0  0
    0.7358   -0.8634   -0.7118 N   0  0  0  1  0  0  0  0  0  0  0  0
    2.6682   -1.9065   -3.0622 C   0  0  0  1  0  0  0  0  0  0  0  0
    3.4688   -2.6624   -2.2269 C   0  0  0  1  0  0  0  0  0  0  0  0
    4.6211   -0.9731   -4.0929 C   0  0  0  1  0  0  0  0  0  0  0  0
    3.2451   -1.0585   -3.9948 C   0  0  0  1  0  0  0  0  0  0  0  0
    5.4242   -1.7312   -3.2552 C   0  0  0  1  0  0  0  0  0  0  0  0
    4.8488   -2.5766   -2.3254 C   0  0  0  1  0  0  0  0  0  0  0  0
   -0.9315    0.5820    2.2978 C   0  0  0  1  0  0  0  0  0  0  0  0
   -1.9778   -0.4581    2.6683 C   0  0  0  1  0  0  0  0  0  0  0  0
   -3.1264    0.3615    3.2598 C   0  0  0  1  0  0  0  0  0  0  0  0
   -3.9067    2.7290    2.7320 C   0  0  0  1  0  0  0  0  0  0  0  0
   -1.5158   -0.7652   -0.2018 N   0  0  0  1  0  0  0  0  0  0  0  0
   -0.8520   -1.7327   -2.2259 C   0  0  0  1  0  0  0  0  0  0  0  0
    0.4850   -1.4611   -1.8701 C   0  0  0  1  0  0  0  0  0  0  0  0
    1.2524   -1.9252   -2.9025 N   0  0  0  1  0  0  0  0  0  0  0  0
   -0.8402   -2.3375   -3.4339 N   0  0  0  1  0  0  0  0  0  0  0  0
    0.3709   -2.4628   -3.8523 N   0  0  0  1  0  0  0  0  0  0  0  0
    6.7685   -1.5704   -3.2853 O   0  0  0  1  0  0  0  0  0  0  0  0
   -0.0272    0.0736    1.2651 N   0  0  0  1  0  0  0  0  0  0  0  0
    7.5566   -2.4876   -2.5106 C   0  0  0  1  0  0  0  0  0  0  0  0
   -2.9834    1.6662    2.5950 N   0  0  0  1  0  0  0  0  0  0  0  0
   -1.7676    1.7348    1.7714 C   0  0  0  1  0  0  0  0  0  0  0  0
   -3.7030    3.9286    2.0755 C   0  0  0  1  0  0  0  0  0  0  0  0
   -4.6321    4.9392    2.2340 C   0  0  0  1  0  0  0  0  0  0  0  0
   -5.7240    4.8207    2.9957 N   0  0  0  1  0  0  0  0  0  0  0  0
   -5.9066    3.6538    3.6299 C   0  0  0  1  0  0  0  0  0  0  0  0
   -5.0293    2.5886    3.5243 C   0  0  0  1  0  0  0  0  0  0  0  0
   -2.8605   -1.5359   -1.5529 H   0  0  0  1  0  0  0  0  0  0  0  0
    3.0360   -3.2956   -1.5245 H   0  0  0  1  0  0  0  0  0  0  0  0
    5.0539   -0.3400   -4.7953 H   0  0  0  1  0  0  0  0  0  0  0  0
    2.6426   -0.4867   -4.6206 H   0  0  0  1  0  0  0  0  0  0  0  0
    5.4513   -3.1485   -1.6996 H   0  0  0  1  0  0  0  0  0  0  0  0
   -0.3639    0.8786    3.1550 H   0  0  0  1  0  0  0  0  0  0  0  0
   -1.5904   -1.1455    3.3910 H   0  0  0  1  0  0  0  0  0  0  0  0
   -2.3020   -0.9958    1.8018 H   0  0  0  1  0  0  0  0  0  0  0  0
   -4.0725   -0.0836    3.0323 H   0  0  0  1  0  0  0  0  0  0  0  0
   -3.0228    0.4577    4.3204 H   0  0  0  1  0  0  0  0  0  0  0  0
    0.9223    0.1991    1.4727 H   0  0  0  1  0  0  0  0  0  0  0  0
    7.4443   -3.4761   -2.9045 H   0  0  0  1  0  0  0  0  0  0  0  0
    7.2266   -2.4697   -1.4929 H   0  0  0  1  0  0  0  0  0  0  0  0
    8.5863   -2.2002   -2.5572 H   0  0  0  1  0  0  0  0  0  0  0  0
   -1.9975    1.6009    0.7350 H   0  0  0  1  0  0  0  0  0  0  0  0
   -1.2634    2.6687    1.9076 H   0  0  0  1  0  0  0  0  0  0  0  0
   -2.8663    4.0678    1.4736 H   0  0  0  1  0  0  0  0  0  0  0  0
   -4.4736    5.8379    1.7352 H   0  0  0  1  0  0  0  0  0  0  0  0
   -6.7485    3.5436    4.2304 H   0  0  0  1  0  0  0  0  0  0  0  0
   -5.2119    1.6995    4.0319 H   0  0  0  1  0  0  0  0  0  0  0  0
  1  3  4  0  0  0  0
  1 14  4  0  0  0  0
  1 21  1  0  0  0  0
  2 14  4  0  0  0  0
  2 15  4  0  0  0  0
  2 30  1  0  0  0  0
  3 16  4  0  0  0  0
  4  5  4  0  0  0  0
  4  7  4  0  0  0  0
  4 17  1  0  0  0  0
  5  9  4  0  0  0  0
  5 31  1  0  0  0  0
  6  7  4  0  0  0  0
  6  8  4  0  0  0  0
  6 32  1  0  0  0  0
  7 33  1  0  0  0  0
  8  9  4  0  0  0  0
  8 20  1  0  0  0  0
  9 34  1  0  0  0  0
 10 11  1  0  0  0  0
 10 21  1  0  0  0  0
 10 24  1  0  0  0  0
 10 35  1  0  0  0  0
 11 12  1  0  0  0  0
 11 36  1  0  0  0  0
 11 37  1  0  0  0  0
 12 23  1  0  0  0  0
 12 38  1  0  0  0  0
 12 39  1  0  0  0  0
 13 23  1  0  0  0  0
 13 25  4  0  0  0  0
 13 29  4  0  0  0  0
 15 16  4  0  0  0  0
 15 18  4  0  0  0  0
 16 17  4  0  0  0  0
 17 19  4  0  0  0  0
 18 19  4  0  0  0  0
 20 22  1  0  0  0  0
 21 40  1  0  0  0  0
 22 41  1  0  0  0  0
 22 42  1  0  0  0  0
 22 43  1  0  0  0  0
 23 24  1  0  0  0  0
 24 44  1  0  0  0  0
 24 45  1  0  0  0  0
 25 26  4  0  0  0  0
 25 46  1  0  0  0  0
 26 27  4  0  0  0  0
 26 47  1  0  0  0  0
 27 28  4  0  0  0  0
 28 29  4  0  0  0  0
 28 48  1  0  0  0  0
 29 49  1  0  0  0  0
M  END
> <ConfClashScore>
0 

> <ConfOneFourInteractionScore>
-0.983503 

> <ConfScore>
0.0821408 

> <ConfScorePBest>
0.00244701 

> <ConfTolerance>
0.461916 

> <HETNAM>
     OWQ A 303  OWQ                                                       

> <pdb_OW>
Q_303 -16.5129 3.80749 7.62812 0.15963 1.39178 -0.28144 -3.20151 0 0 0 -1.30514 0 0 0 0 0 0 0 0 -8.31393

$$$$
6yky_lig_1.pdb
 OpenBabel04162415593D

 49 53  0  0  0  0  0  0  0  0999 V2000
    1.3660   -2.4318   -1.9924 C   0  0  0  1  0  0  0  0  0  0  0  0
    3.5029   -2.5525   -2.8458 C   0  0  0  1  0  0  0  0  0  0  0  0
    1.6327   -1.3549   -1.2853 N   0  0  0  1  0  0  0  0  0  0  0  0
    2.9715    1.2644    0.1887 C   0  0  0  1  0  0  0  0  0  0  0  0
    3.3931    1.2501    1.5049 C   0  0  0  1  0  0  0  0  0  0  0  0
    1.5139    3.1051    0.6733 C   0  0  0  1  0  0  0  0  0  0  0  0
    2.0285    2.1915   -0.2272 C   0  0  0  1  0  0  0  0  0  0  0  0
    1.9367    3.0909    1.9934 C   0  0  0  1  0  0  0  0  0  0  0  0
    2.8769    2.1665    2.4078 C   0  0  0  1  0  0  0  0  0  0  0  0
   -0.8926   -2.4546   -1.0175 C   0  0  0  1  0  0  0  0  0  0  0  0
   -1.8606   -3.5655   -0.5800 C   0  0  0  1  0  0  0  0  0  0  0  0
   -3.0953   -2.7543   -0.1577 C   0  0  0  1  0  0  0  0  0  0  0  0
   -3.4146   -0.2060   -0.1620 C   0  0  0  1  0  0  0  0  0  0  0  0
    2.2713   -3.0203   -2.7543 N   0  0  0  1  0  0  0  0  0  0  0  0
    3.8416   -1.4084   -2.1144 C   0  0  0  1  0  0  0  0  0  0  0  0
    2.8442   -0.8135   -1.3148 C   0  0  0  1  0  0  0  0  0  0  0  0
    3.4327    0.2676   -0.7190 N   0  0  0  1  0  0  0  0  0  0  0  0
    4.9698   -0.6788   -1.9733 N   0  0  0  1  0  0  0  0  0  0  0  0
    4.7617    0.3031   -1.1670 N   0  0  0  1  0  0  0  0  0  0  0  0
    1.3597    4.0278    2.7827 O   0  0  0  1  0  0  0  0  0  0  0  0
    0.1099   -2.9612   -1.9381 N   0  0  0  1  0  0  0  0  0  0  0  0
    1.7783    4.0776    4.1555 C   0  0  0  1  0  0  0  0  0  0  0  0
   -2.8326   -1.3625   -0.6321 N   0  0  0  1  0  0  0  0  0  0  0  0
   -1.8260   -1.4735   -1.7041 C   0  0  0  1  0  0  0  0  0  0  0  0
   -4.6016    0.1657   -0.7659 C   0  0  0  1  0  0  0  0  0  0  0  0
   -5.2353    1.3153   -0.3344 C   0  0  0  1  0  0  0  0  0  0  0  0
   -4.7586    2.0956    0.6404 N   0  0  0  1  0  0  0  0  0  0  0  0
   -3.6047    1.7257    1.2141 C   0  0  0  1  0  0  0  0  0  0  0  0
   -2.9062    0.5888    0.8468 C   0  0  0  1  0  0  0  0  0  0  0  0
    4.2066   -3.0246   -3.4488 H   0  0  0  1  0  0  0  0  0  0  0  0
    4.0976    0.5520    1.8177 H   0  0  0  1  0  0  0  0  0  0  0  0
    0.8094    3.8032    0.3604 H   0  0  0  1  0  0  0  0  0  0  0  0
    1.7084    2.1996   -1.2166 H   0  0  0  1  0  0  0  0  0  0  0  0
    3.1971    2.1583    3.3973 H   0  0  0  1  0  0  0  0  0  0  0  0
   -0.4094   -2.0062   -0.1746 H   0  0  0  1  0  0  0  0  0  0  0  0
   -1.4642   -4.1274    0.2398 H   0  0  0  1  0  0  0  0  0  0  0  0
   -2.0869   -4.2268   -1.3901 H   0  0  0  1  0  0  0  0  0  0  0  0
   -3.2098   -2.7724    0.9060 H   0  0  0  1  0  0  0  0  0  0  0  0
   -3.9774   -3.1472   -0.6186 H   0  0  0  1  0  0  0  0  0  0  0  0
   -0.1220   -3.7025   -2.5358 H   0  0  0  1  0  0  0  0  0  0  0  0
    1.1025    4.6919    4.7130 H   0  0  0  1  0  0  0  0  0  0  0  0
    2.7642    4.4895    4.2128 H   0  0  0  1  0  0  0  0  0  0  0  0
    1.7802    3.0885    4.5637 H   0  0  0  1  0  0  0  0  0  0  0  0
   -2.2386   -1.8714   -2.6076 H   0  0  0  1  0  0  0  0  0  0  0  0
   -1.3496   -0.5380   -1.9108 H   0  0  0  1  0  0  0  0  0  0  0  0
   -5.0097   -0.4092   -1.5304 H   0  0  0  1  0  0  0  0  0  0  0  0
   -6.1290    1.5873   -0.7915 H   0  0  0  1  0  0  0  0  0  0  0  0
   -3.2156    2.3221    1.9720 H   0  0  0  1  0  0  0  0  0  0  0  0
   -2.0155    0.3377    1.3213 H   0  0  0  1  0  0  0  0  0  0  0  0
  1  3  4  0  0  0  0
  1 14  4  0  0  0  0
  1 21  1  0  0  0  0
  2 14  4  0  0  0  0
  2 15  4  0  0  0  0
  2 30  1  0  0  0  0
  3 16  4  0  0  0  0
  4  5  4  0  0  0  0
  4  7  4  0  0  0  0
  4 17  1  0  0  0  0
  5  9  4  0  0  0  0
  5 31  1  0  0  0  0
  6  7  4  0  0  0  0
  6  8  4  0  0  0  0
  6 32  1  0  0  0  0
  7 33  1  0  0  0  0
  8  9  4  0  0  0  0
  8 20  1  0  0  0  0
  9 34  1  0  0  0  0
 10 11  1  0  0  0  0
 10 21  1  0  0  0  0
 10 24  1  0  0  0  0
 10 35  1  0  0  0  0
 11 12  1  0  0  0  0
 11 36  1  0  0  0  0
 11 37  1  0  0  0  0
 12 23  1  0  0  0  0
 12 38  1  0  0  0  0
 12 39  1  0  0  0  0
 13 23  1  0  0  0  0
 13 25  4  0  0  0  0
 13 29  4  0  0  0  0
 15 16  4  0  0  0  0
 15 18  4  0  0  0  0
 16 17  4  0  0  0  0
 17 19  4  0  0  0  0
 18 19  4  0  0  0  0
 20 22  1  0  0  0  0
 21 40  1  0  0  0  0
 22 41  1  0  0  0  0
 22 42  1  0  0  0  0
 22 43  1  0  0  0  0
 23 24  1  0  0  0  0
 24 44  1  0  0  0  0
 24 45  1  0  0  0  0
 25 26  4  0  0  0  0
 25 46  1  0  0  0  0
 26 27  4  0  0  0  0
 26 47  1  0  0  0  0
 27 28  4  0  0  0  0
 28 29  4  0  0  0  0
 28 48  1  0  0  0  0
 29 49  1  0  0  0  0
M  END
> <ConfClashScore>
0 

> <ConfOneFourInteractionScore>
-0.986948 

> <ConfScore>
0.0825376 

> <ConfScorePBest>
0.00243368 

> <ConfTolerance>
0.525662 

> <HETNAM>
     OWQ A 303  OWQ                                                       

> <pdb_OW>
Q_303 -16.5129 3.80749 7.62812 0.15963 1.39178 -0.28144 -3.20151 0 0 0 -1.30514 0 0 0 0 0 0 0 0 -8.31393

$$$$
6yky_lig_1.pdb
 OpenBabel04162415593D

 49 53  0  0  0  0  0  0  0  0999 V2000
    1.3798   -2.6325   -1.6774 C   0  0  0  1  0  0  0  0  0  0  0  0
    2.7999   -2.4746   -3.4851 C   0  0  0  1  0  0  0  0  0  0  0  0
    1.5890   -1.3855   -1.3138 N   0  0  0  1  0  0  0  0  0  0  0  0
    2.5285    1.7130   -0.9677 C   0  0  0  1  0  0  0  0  0  0  0  0
    2.0935    1.3834    0.3021 C   0  0  0  1  0  0  0  0  0  0  0  0
    2.1969    4.0368   -0.4805 C   0  0  0  1  0  0  0  0  0  0  0  0
    2.5778    3.0414   -1.3605 C   0  0  0  1  0  0  0  0  0  0  0  0
    1.7605    3.7063    0.7931 C   0  0  0  1  0  0  0  0  0  0  0  0
    1.7114    2.3817    1.1846 C   0  0  0  1  0  0  0  0  0  0  0  0
   -0.0863   -2.8001    0.2840 C   0  0  0  1  0  0  0  0  0  0  0  0
   -1.0845   -3.7965    0.9145 C   0  0  0  1  0  0  0  0  0  0  0  0
   -2.2881   -3.0087    1.3667 C   0  0  0  1  0  0  0  0  0  0  0  0
   -2.9929   -0.6369    0.6500 C   0  0  0  1  0  0  0  0  0  0  0  0
    1.9658   -3.1695   -2.7332 N   0  0  0  1  0  0  0  0  0  0  0  0
    3.0589   -1.1423   -3.1440 C   0  0  0  1  0  0  0  0  0  0  0  0
    2.4119   -0.6106   -2.0097 C   0  0  0  1  0  0  0  0  0  0  0  0
    2.8358    0.6854   -1.9057 N   0  0  0  1  0  0  0  0  0  0  0  0
    3.8321   -0.1672   -3.6698 N   0  0  0  1  0  0  0  0  0  0  0  0
    3.7223    0.9079   -2.9700 N   0  0  0  1  0  0  0  0  0  0  0  0
    1.4092    4.7634    1.5631 O   0  0  0  1  0  0  0  0  0  0  0  0
    0.5238   -3.3559   -0.9110 N   0  0  0  1  0  0  0  0  0  0  0  0
    1.0473    4.4910    2.9260 C   0  0  0  1  0  0  0  0  0  0  0  0
   -2.0751   -1.6771    0.6139 N   0  0  0  1  0  0  0  0  0  0  0  0
   -0.9678   -1.6138   -0.0537 C   0  0  0  1  0  0  0  0  0  0  0  0
   -4.1022   -0.7706    1.4644 C   0  0  0  1  0  0  0  0  0  0  0  0
   -5.0206    0.2608    1.5112 C   0  0  0  1  0  0  0  0  0  0  0  0
   -4.8960    1.3884    0.8045 N   0  0  0  1  0  0  0  0  0  0  0  0
   -3.8179    1.5028    0.0158 C   0  0  0  1  0  0  0  0  0  0  0  0
   -2.8478    0.5213   -0.0884 C   0  0  0  1  0  0  0  0  0  0  0  0
    3.2549   -2.9085   -4.3136 H   0  0  0  1  0  0  0  0  0  0  0  0
    2.0527    0.3864    0.5954 H   0  0  0  1  0  0  0  0  0  0  0  0
    2.2376    5.0337   -0.7738 H   0  0  0  1  0  0  0  0  0  0  0  0
    2.9014    3.2891   -2.3174 H   0  0  0  1  0  0  0  0  0  0  0  0
    1.3879    2.1340    2.1414 H   0  0  0  1  0  0  0  0  0  0  0  0
    0.6779   -2.5266    0.9811 H   0  0  0  1  0  0  0  0  0  0  0  0
   -1.3777   -4.5273    0.1900 H   0  0  0  1  0  0  0  0  0  0  0  0
   -0.6324   -4.2854    1.7521 H   0  0  0  1  0  0  0  0  0  0  0  0
   -2.2863   -2.8642    2.4269 H   0  0  0  1  0  0  0  0  0  0  0  0
   -3.2006   -3.4837    1.0725 H   0  0  0  1  0  0  0  0  0  0  0  0
    0.3122   -4.2768   -1.1710 H   0  0  0  1  0  0  0  0  0  0  0  0
    1.9023    4.1276    3.4567 H   0  0  0  1  0  0  0  0  0  0  0  0
    0.2734    3.7525    2.9484 H   0  0  0  1  0  0  0  0  0  0  0  0
    0.6965    5.3901    3.3881 H   0  0  0  1  0  0  0  0  0  0  0  0
   -0.4547   -0.7091    0.1975 H   0  0  0  1  0  0  0  0  0  0  0  0
   -1.1855   -1.6219   -1.1013 H   0  0  0  1  0  0  0  0  0  0  0  0
   -4.2427   -1.6313    2.0311 H   0  0  0  1  0  0  0  0  0  0  0  0
   -5.8512    0.1543    2.1278 H   0  0  0  1  0  0  0  0  0  0  0  0
   -3.7052    2.3713   -0.5450 H   0  0  0  1  0  0  0  0  0  0  0  0
   -2.0252    0.6533   -0.7109 H   0  0  0  1  0  0  0  0  0  0  0  0
  1  3  4  0  0  0  0
  1 14  4  0  0  0  0
  1 21  1  0  0  0  0
  2 14  4  0  0  0  0
  2 15  4  0  0  0  0
  2 30  1  0  0  0  0
  3 16  4  0  0  0  0
  4  5  4  0  0  0  0
  4  7  4  0  0  0  0
  4 17  1  0  0  0  0
  5  9  4  0  0  0  0
  5 31  1  0  0  0  0
  6  7  4  0  0  0  0
  6  8  4  0  0  0  0
  6 32  1  0  0  0  0
  7 33  1  0  0  0  0
  8  9  4  0  0  0  0
  8 20  1  0  0  0  0
  9 34  1  0  0  0  0
 10 11  1  0  0  0  0
 10 21  1  0  0  0  0
 10 24  1  0  0  0  0
 10 35  1  0  0  0  0
 11 12  1  0  0  0  0
 11 36  1  0  0  0  0
 11 37  1  0  0  0  0
 12 23  1  0  0  0  0
 12 38  1  0  0  0  0
 12 39  1  0  0  0  0
 13 23  1  0  0  0  0
 13 25  4  0  0  0  0
 13 29  4  0  0  0  0
 15 16  4  0  0  0  0
 15 18  4  0  0  0  0
 16 17  4  0  0  0  0
 17 19  4  0  0  0  0
 18 19  4  0  0  0  0
 20 22  1  0  0  0  0
 21 40  1  0  0  0  0
 22 41  1  0  0  0  0
 22 42  1  0  0  0  0
 22 43  1  0  0  0  0
 23 24  1  0  0  0  0
 24 44  1  0  0  0  0
 24 45  1  0  0  0  0
 25 26  4  0  0  0  0
 25 46  1  0  0  0  0
 26 27  4  0  0  0  0
 26 47  1  0  0  0  0
 27 28  4  0  0  0  0
 28 29  4  0  0  0  0
 28 48  1  0  0  0  0
 29 49  1  0  0  0  0
M  END
> <ConfClashScore>
0 

> <ConfOneFourInteractionScore>
-0.984874 

> <ConfScore>
0.0833483 

> <ConfScorePBest>
0.00242035 

> <ConfTolerance>
0.548069 

> <HETNAM>
     OWQ A 303  OWQ                                                       

> <pdb_OW>
Q_303 -16.5129 3.80749 7.62812 0.15963 1.39178 -0.28144 -3.20151 0 0 0 -1.30514 0 0 0 0 0 0 0 0 -8.31393

$$$$
6yky_lig_1.pdb
 OpenBabel04162415593D

 49 53  0  0  0  0  0  0  0  0999 V2000
    2.0461    0.1463   -2.2915 C   0  0  0  1  0  0  0  0  0  0  0  0
    3.3830   -1.4060   -3.3462 C   0  0  0  1  0  0  0  0  0  0  0  0
    1.8484   -0.6285   -1.2468 N   0  0  0  1  0  0  0  0  0  0  0  0
    1.6936   -3.0461    0.9457 C   0  0  0  1  0  0  0  0  0  0  0  0
    1.4553   -1.9727    1.7831 C   0  0  0  1  0  0  0  0  0  0  0  0
    0.7238   -4.5261    2.5632 C   0  0  0  1  0  0  0  0  0  0  0  0
    1.3298   -4.3251    1.3373 C   0  0  0  1  0  0  0  0  0  0  0  0
    0.4848   -3.4496    3.4032 C   0  0  0  1  0  0  0  0  0  0  0  0
    0.8476   -2.1745    3.0125 C   0  0  0  1  0  0  0  0  0  0  0  0
    0.6239    1.8821   -1.2516 C   0  0  0  1  0  0  0  0  0  0  0  0
   -0.4129    0.8511   -0.8323 C   0  0  0  1  0  0  0  0  0  0  0  0
   -1.5003    1.6993   -0.1972 C   0  0  0  1  0  0  0  0  0  0  0  0
   -2.4823    3.8676   -1.0197 C   0  0  0  1  0  0  0  0  0  0  0  0
    2.7919   -0.2254   -3.3172 N   0  0  0  1  0  0  0  0  0  0  0  0
    3.2065   -2.2710   -2.2603 C   0  0  0  1  0  0  0  0  0  0  0  0
    2.4027   -1.8331   -1.1878 C   0  0  0  1  0  0  0  0  0  0  0  0
    2.3982   -2.8538   -0.2778 N   0  0  0  1  0  0  0  0  0  0  0  0
    3.6469   -3.5129   -1.9624 N   0  0  0  1  0  0  0  0  0  0  0  0
    3.1924   -3.8782   -0.8145 N   0  0  0  1  0  0  0  0  0  0  0  0
   -0.0921   -3.5235    4.6184 O   0  0  0  1  0  0  0  0  0  0  0  0
    1.4690    1.3611   -2.3179 N   0  0  0  1  0  0  0  0  0  0  0  0
   -0.2861   -4.8651    5.1234 C   0  0  0  1  0  0  0  0  0  0  0  0
   -1.4613    2.9368   -0.9898 N   0  0  0  1  0  0  0  0  0  0  0  0
   -0.2068    3.0674   -1.7474 C   0  0  0  1  0  0  0  0  0  0  0  0
   -3.0998    4.2719   -2.1888 C   0  0  0  1  0  0  0  0  0  0  0  0
   -4.1152    5.2063   -2.1155 C   0  0  0  1  0  0  0  0  0  0  0  0
   -4.5345    5.7473   -0.9675 N   0  0  0  1  0  0  0  0  0  0  0  0
   -3.9242    5.3494    0.1578 C   0  0  0  1  0  0  0  0  0  0  0  0
   -2.9020    4.4166    0.1763 C   0  0  0  1  0  0  0  0  0  0  0  0
    3.9675   -1.6871   -4.1592 H   0  0  0  1  0  0  0  0  0  0  0  0
    1.7319   -1.0137    1.4908 H   0  0  0  1  0  0  0  0  0  0  0  0
    0.4472   -5.4851    2.8554 H   0  0  0  1  0  0  0  0  0  0  0  0
    1.5127   -5.1332    0.7089 H   0  0  0  1  0  0  0  0  0  0  0  0
    0.6647   -1.3663    3.6409 H   0  0  0  1  0  0  0  0  0  0  0  0
    1.2336    2.1673   -0.4198 H   0  0  0  1  0  0  0  0  0  0  0  0
   -0.0035    0.1592   -0.1263 H   0  0  0  1  0  0  0  0  0  0  0  0
   -0.7882    0.3165   -1.6799 H   0  0  0  1  0  0  0  0  0  0  0  0
   -1.2829    1.8951    0.8320 H   0  0  0  1  0  0  0  0  0  0  0  0
   -2.4549    1.2224   -0.2761 H   0  0  0  1  0  0  0  0  0  0  0  0
    1.6262    1.9293   -3.1007 H   0  0  0  1  0  0  0  0  0  0  0  0
    0.6266   -5.4162    5.0331 H   0  0  0  1  0  0  0  0  0  0  0  0
   -1.0534   -5.3513    4.5580 H   0  0  0  1  0  0  0  0  0  0  0  0
   -0.5750   -4.8202    6.1527 H   0  0  0  1  0  0  0  0  0  0  0  0
   -0.3852    2.9975   -2.8002 H   0  0  0  1  0  0  0  0  0  0  0  0
    0.2792    3.9951   -1.5283 H   0  0  0  1  0  0  0  0  0  0  0  0
   -2.8055    3.8801   -3.1062 H   0  0  0  1  0  0  0  0  0  0  0  0
   -4.5767    5.5038   -2.9987 H   0  0  0  1  0  0  0  0  0  0  0  0
   -4.2338    5.7619    1.0609 H   0  0  0  1  0  0  0  0  0  0  0  0
   -2.4583    4.1343    1.0735 H   0  0  0  1  0  0  0  0  0  0  0  0
  1  3  4  0  0  0  0
  1 14  4  0  0  0  0
  1 21  1  0  0  0  0
  2 14  4  0  0  0  0
  2 15  4  0  0  0  0
  2 30  1  0  0  0  0
  3 16  4  0  0  0  0
  4  5  4  0  0  0  0
  4  7  4  0  0  0  0
  4 17  1  0  0  0  0
  5  9  4  0  0  0  0
  5 31  1  0  0  0  0
  6  7  4  0  0  0  0
  6  8  4  0  0  0  0
  6 32  1  0  0  0  0
  7 33  1  0  0  0  0
  8  9  4  0  0  0  0
  8 20  1  0  0  0  0
  9 34  1  0  0  0  0
 10 11  1  0  0  0  0
 10 21  1  0  0  0  0
 10 24  1  0  0  0  0
 10 35  1  0  0  0  0
 11 12  1  0  0  0  0
 11 36  1  0  0  0  0
 11 37  1  0  0  0  0
 12 23  1  0  0  0  0
 12 38  1  0  0  0  0
 12 39  1  0  0  0  0
 13 23  1  0  0  0  0
 13 25  4  0  0  0  0
 13 29  4  0  0  0  0
 15 16  4  0  0  0  0
 15 18  4  0  0  0  0
 16 17  4  0  0  0  0
 17 19  4  0  0  0  0
 18 19  4  0  0  0  0
 20 22  1  0  0  0  0
 21 40  1  0  0  0  0
 22 41  1  0  0  0  0
 22 42  1  0  0  0  0
 22 43  1  0  0  0  0
 23 24  1  0  0  0  0
 24 44  1  0  0  0  0
 24 45  1  0  0  0  0
 25 26  4  0  0  0  0
 25 46  1  0  0  0  0
 26 27  4  0  0  0  0
 26 47  1  0  0  0  0
 27 28  4  0  0  0  0
 28 29  4  0  0  0  0
 28 48  1  0  0  0  0
 29 49  1  0  0  0  0
M  END
> <ConfClashScore>
0 

> <ConfOneFourInteractionScore>
-0.987833 

> <ConfScore>
0.0838303 

> <ConfScorePBest>
0.00240702 

> <ConfTolerance>
0.631899 

> <HETNAM>
     OWQ A 303  OWQ                                                       

> <pdb_OW>
Q_303 -16.5129 3.80749 7.62812 0.15963 1.39178 -0.28144 -3.20151 0 0 0 -1.30514 0 0 0 0 0 0 0 0 -8.31393

$$$$
6yky_lig_1.pdb
 OpenBabel04162415593D

 49 53  0  0  0  0  0  0  0  0999 V2000
    0.5978   -0.2940    0.9664 C   0  0  0  1  0  0  0  0  0  0  0  0
    2.0820   -0.8190    2.6490 C   0  0  0  1  0  0  0  0  0  0  0  0
    1.3578   -0.8254    0.0332 N   0  0  0  1  0  0  0  0  0  0  0  0
    3.6267   -2.3683   -1.7279 C   0  0  0  1  0  0  0  0  0  0  0  0
    3.5755   -1.3562   -2.6678 C   0  0  0  1  0  0  0  0  0  0  0  0
    3.7054   -3.9983   -3.4841 C   0  0  0  1  0  0  0  0  0  0  0  0
    3.6890   -3.6914   -2.1365 C   0  0  0  1  0  0  0  0  0  0  0  0
    3.6541   -2.9833   -4.4269 C   0  0  0  1  0  0  0  0  0  0  0  0
    3.5919   -1.6642   -4.0192 C   0  0  0  1  0  0  0  0  0  0  0  0
   -1.5510    0.7618    1.5071 C   0  0  0  1  0  0  0  0  0  0  0  0
   -2.5430   -0.3350    1.9258 C   0  0  0  1  0  0  0  0  0  0  0  0
   -3.7496    0.4963    2.3882 C   0  0  0  1  0  0  0  0  0  0  0  0
   -3.9977    3.0470    2.4597 C   0  0  0  1  0  0  0  0  0  0  0  0
    0.9439   -0.2871    2.2419 N   0  0  0  1  0  0  0  0  0  0  0  0
    2.9294   -1.3985    1.6978 C   0  0  0  1  0  0  0  0  0  0  0  0
    2.5201   -1.3833    0.3486 C   0  0  0  1  0  0  0  0  0  0  0  0
    3.5155   -2.0030   -0.3551 N   0  0  0  1  0  0  0  0  0  0  0  0
    4.1307   -2.0139    1.7551 N   0  0  0  1  0  0  0  0  0  0  0  0
    4.4969   -2.3765    0.5753 N   0  0  0  1  0  0  0  0  0  0  0  0
    3.6706   -3.4037   -5.7106 O   0  0  0  1  0  0  0  0  0  0  0  0
   -0.5747    0.2556    0.5585 N   0  0  0  1  0  0  0  0  0  0  0  0
    3.7341   -2.4368   -6.7705 C   0  0  0  1  0  0  0  0  0  0  0  0
   -3.4555    1.8938    1.9504 N   0  0  0  1  0  0  0  0  0  0  0  0
   -2.4663    1.7872    0.8619 C   0  0  0  1  0  0  0  0  0  0  0  0
   -4.8956    2.9998    3.5100 C   0  0  0  1  0  0  0  0  0  0  0  0
   -5.4144    4.1853    3.9948 C   0  0  0  1  0  0  0  0  0  0  0  0
   -5.0957    5.3845    3.4981 N   0  0  0  1  0  0  0  0  0  0  0  0
   -4.2274    5.4152    2.4771 C   0  0  0  1  0  0  0  0  0  0  0  0
   -3.6572    4.2776    1.9329 C   0  0  0  1  0  0  0  0  0  0  0  0
    2.3433   -0.8073    3.6556 H   0  0  0  1  0  0  0  0  0  0  0  0
    3.5247   -0.3638   -2.3611 H   0  0  0  1  0  0  0  0  0  0  0  0
    3.7562   -4.9907   -3.7907 H   0  0  0  1  0  0  0  0  0  0  0  0
    3.7235   -4.4531   -1.4292 H   0  0  0  1  0  0  0  0  0  0  0  0
    3.5575   -0.9025   -4.7264 H   0  0  0  1  0  0  0  0  0  0  0  0
   -1.0449    1.1724    2.3557 H   0  0  0  1  0  0  0  0  0  0  0  0
   -2.7977   -0.9661    1.1002 H   0  0  0  1  0  0  0  0  0  0  0  0
   -2.1514   -0.9310    2.7235 H   0  0  0  1  0  0  0  0  0  0  0  0
   -3.8507    0.4503    3.4524 H   0  0  0  1  0  0  0  0  0  0  0  0
   -4.6480    0.1407    1.9284 H   0  0  0  1  0  0  0  0  0  0  0  0
   -0.7673    0.3122   -0.4007 H   0  0  0  1  0  0  0  0  0  0  0  0
    4.6273   -1.8561   -6.6713 H   0  0  0  1  0  0  0  0  0  0  0  0
    2.8819   -1.7920   -6.7162 H   0  0  0  1  0  0  0  0  0  0  0  0
    3.7403   -2.9418   -7.7138 H   0  0  0  1  0  0  0  0  0  0  0  0
   -1.9674    2.7152    0.6756 H   0  0  0  1  0  0  0  0  0  0  0  0
   -2.9013    1.4269   -0.0469 H   0  0  0  1  0  0  0  0  0  0  0  0
   -5.1752    2.0892    3.9274 H   0  0  0  1  0  0  0  0  0  0  0  0
   -6.0872    4.1422    4.7866 H   0  0  0  1  0  0  0  0  0  0  0  0
   -3.9698    6.3388    2.0744 H   0  0  0  1  0  0  0  0  0  0  0  0
   -2.9850    4.3480    1.1424 H   0  0  0  1  0  0  0  0  0  0  0  0
  1  3  4  0  0  0  0
  1 14  4  0  0  0  0
  1 21  1  0  0  0  0
  2 14  4  0  0  0  0
  2 15  4  0  0  0  0
  2 30  1  0  0  0  0
  3 16  4  0  0  0  0
  4  5  4  0  0  0  0
  4  7  4  0  0  0  0
  4 17  1  0  0  0  0
  5  9  4  0  0  0  0
  5 31  1  0  0  0  0
  6  7  4  0  0  0  0
  6  8  4  0  0  0  0
  6 32  1  0  0  0  0
  7 33  1  0  0  0  0
  8  9  4  0  0  0  0
  8 20  1  0  0  0  0
  9 34  1  0  0  0  0
 10 11  1  0  0  0  0
 10 21  1  0  0  0  0
 10 24  1  0  0  0  0
 10 35  1  0  0  0  0
 11 12  1  0  0  0  0
 11 36  1  0  0  0  0
 11 37  1  0  0  0  0
 12 23  1  0  0  0  0
 12 38  1  0  0  0  0
 12 39  1  0  0  0  0
 13 23  1  0  0  0  0
 13 25  4  0  0  0  0
 13 29  4  0  0  0  0
 15 16  4  0  0  0  0
 15 18  4  0  0  0  0
 16 17  4  0  0  0  0
 17 19  4  0  0  0  0
 18 19  4  0  0  0  0
 20 22  1  0  0  0  0
 21 40  1  0  0  0  0
 22 41  1  0  0  0  0
 22 42  1  0  0  0  0
 22 43  1  0  0  0  0
 23 24  1  0  0  0  0
 24 44  1  0  0  0  0
 24 45  1  0  0  0  0
 25 26  4  0  0  0  0
 25 46  1  0  0  0  0
 26 27  4  0  0  0  0
 26 47  1  0  0  0  0
 27 28  4  0  0  0  0
 28 29  4  0  0  0  0
 28 48  1  0  0  0  0
 29 49  1  0  0  0  0
M  END
> <ConfClashScore>
0 

> <ConfOneFourInteractionScore>
-0.986948 

> <ConfScore>
0.084079 

> <ConfScorePBest>
0.0023937 

> <ConfTolerance>
0.375505 

> <HETNAM>
     OWQ A 303  OWQ                                                       

> <pdb_OW>
Q_303 -16.5129 3.80749 7.62812 0.15963 1.39178 -0.28144 -3.20151 0 0 0 -1.30514 0 0 0 0 0 0 0 0 -8.31393

$$$$
6yky_lig_1.pdb
 OpenBabel04162415593D

 49 53  0  0  0  0  0  0  0  0999 V2000
    3.4275   -0.7541   -0.7751 C   0  0  0  1  0  0  0  0  0  0  0  0
    3.9097   -1.3361   -2.9519 C   0  0  0  1  0  0  0  0  0  0  0  0
    2.1313   -0.8976   -0.9488 N   0  0  0  1  0  0  0  0  0  0  0  0
   -0.9145   -1.4365   -2.0707 C   0  0  0  1  0  0  0  0  0  0  0  0
   -1.8747   -2.3531   -2.4556 C   0  0  0  1  0  0  0  0  0  0  0  0
   -2.5432   -0.2856   -0.7402 C   0  0  0  1  0  0  0  0  0  0  0  0
   -1.2498   -0.3997   -1.2139 C   0  0  0  1  0  0  0  0  0  0  0  0
   -3.5064   -1.2049   -1.1261 C   0  0  0  1  0  0  0  0  0  0  0  0
   -3.1719   -2.2386   -1.9804 C   0  0  0  1  0  0  0  0  0  0  0  0
    3.0419    0.1756    1.4798 C   0  0  0  1  0  0  0  0  0  0  0  0
    1.9809   -0.8479    1.9709 C   0  0  0  1  0  0  0  0  0  0  0  0
    0.7688   -0.0464    2.4899 C   0  0  0  1  0  0  0  0  0  0  0  0
    0.2416    2.4071    2.1850 C   0  0  0  1  0  0  0  0  0  0  0  0
    4.2993   -0.9657   -1.7456 N   0  0  0  1  0  0  0  0  0  0  0  0
    2.5413   -1.5038   -3.1925 C   0  0  0  1  0  0  0  0  0  0  0  0
    1.6472   -1.2672   -2.1282 C   0  0  0  1  0  0  0  0  0  0  0  0
    0.3955   -1.4993   -2.6276 N   0  0  0  1  0  0  0  0  0  0  0  0
    1.8101   -1.8621   -4.2705 N   0  0  0  1  0  0  0  0  0  0  0  0
    0.5578   -1.8682   -3.9714 N   0  0  0  1  0  0  0  0  0  0  0  0
   -4.7932   -1.0325   -0.7412 O   0  0  0  1  0  0  0  0  0  0  0  0
    3.8834   -0.3784    0.4334 N   0  0  0  1  0  0  0  0  0  0  0  0
   -5.7181   -2.0861   -1.0528 C   0  0  0  1  0  0  0  0  0  0  0  0
    0.9853    1.3014    1.8919 N   0  0  0  1  0  0  0  0  0  0  0  0
    2.1099    1.2788    0.9423 C   0  0  0  1  0  0  0  0  0  0  0  0
    0.5973    3.2388    3.2306 C   0  0  0  1  0  0  0  0  0  0  0  0
   -0.1817    4.3502    3.4904 C   0  0  0  1  0  0  0  0  0  0  0  0
   -1.2706    4.6661    2.7827 N   0  0  0  1  0  0  0  0  0  0  0  0
   -1.6063    3.8485    1.7747 C   0  0  0  1  0  0  0  0  0  0  0  0
   -0.8813    2.7173    1.4430 C   0  0  0  1  0  0  0  0  0  0  0  0
    4.6054   -1.4996   -3.7074 H   0  0  0  1  0  0  0  0  0  0  0  0
   -1.6240   -3.1286   -3.1016 H   0  0  0  1  0  0  0  0  0  0  0  0
   -2.7938    0.4899   -0.0942 H   0  0  0  1  0  0  0  0  0  0  0  0
   -0.5281    0.2923   -0.9275 H   0  0  0  1  0  0  0  0  0  0  0  0
   -3.8935   -2.9306   -2.2668 H   0  0  0  1  0  0  0  0  0  0  0  0
    3.6555    0.5288    2.2821 H   0  0  0  1  0  0  0  0  0  0  0  0
    1.6812   -1.4800    1.1613 H   0  0  0  1  0  0  0  0  0  0  0  0
    2.3879   -1.4460    2.7593 H   0  0  0  1  0  0  0  0  0  0  0  0
    0.7676    0.0018    3.5588 H   0  0  0  1  0  0  0  0  0  0  0  0
   -0.1509   -0.4754    2.1507 H   0  0  0  1  0  0  0  0  0  0  0  0
    4.8398   -0.4847    0.6188 H   0  0  0  1  0  0  0  0  0  0  0  0
   -6.6461   -1.9066   -0.5513 H   0  0  0  1  0  0  0  0  0  0  0  0
   -5.3136   -3.0225   -0.7296 H   0  0  0  1  0  0  0  0  0  0  0  0
   -5.8836   -2.1141   -2.1095 H   0  0  0  1  0  0  0  0  0  0  0  0
    2.6115    2.2238    0.9267 H   0  0  0  1  0  0  0  0  0  0  0  0
    1.7687    1.0392   -0.0431 H   0  0  0  1  0  0  0  0  0  0  0  0
    1.4354    3.0320    3.8106 H   0  0  0  1  0  0  0  0  0  0  0  0
    0.0933    4.9727    4.2768 H   0  0  0  1  0  0  0  0  0  0  0  0
   -2.4527    4.0755    1.2146 H   0  0  0  1  0  0  0  0  0  0  0  0
   -1.1764    2.1123    0.6502 H   0  0  0  1  0  0  0  0  0  0  0  0
  1  3  4  0  0  0  0
  1 14  4  0  0  0  0
  1 21  1  0  0  0  0
  2 14  4  0  0  0  0
  2 15  4  0  0  0  0
  2 30  1  0  0  0  0
  3 16  4  0  0  0  0
  4  5  4  0  0  0  0
  4  7  4  0  0  0  0
  4 17  1  0  0  0  0
  5  9  4  0  0  0  0
  5 31  1  0  0  0  0
  6  7  4  0  0  0  0
  6  8  4  0  0  0  0
  6 32  1  0  0  0  0
  7 33  1  0  0  0  0
  8  9  4  0  0  0  0
  8 20  1  0  0  0  0
  9 34  1  0  0  0  0
 10 11  1  0  0  0  0
 10 21  1  0  0  0  0
 10 24  1  0  0  0  0
 10 35  1  0  0  0  0
 11 12  1  0  0  0  0
 11 36  1  0  0  0  0
 11 37  1  0  0  0  0
 12 23  1  0  0  0  0
 12 38  1  0  0  0  0
 12 39  1  0  0  0  0
 13 23  1  0  0  0  0
 13 25  4  0  0  0  0
 13 29  4  0  0  0  0
 15 16  4  0  0  0  0
 15 18  4  0  0  0  0
 16 17  4  0  0  0  0
 17 19  4  0  0  0  0
 18 19  4  0  0  0  0
 20 22  1  0  0  0  0
 21 40  1  0  0  0  0
 22 41  1  0  0  0  0
 22 42  1  0  0  0  0
 22 43  1  0  0  0  0
 23 24  1  0  0  0  0
 24 44  1  0  0  0  0
 24 45  1  0  0  0  0
 25 26  4  0  0  0  0
 25 46  1  0  0  0  0
 26 27  4  0  0  0  0
 26 47  1  0  0  0  0
 27 28  4  0  0  0  0
 28 29  4  0  0  0  0
 28 48  1  0  0  0  0
 29 49  1  0  0  0  0
M  END
> <ConfClashScore>
0 

> <ConfOneFourInteractionScore>
-0.983503 

> <ConfScore>
0.0842617 

> <ConfScorePBest>
0.00238037 

> <ConfTolerance>
0.473463 

> <HETNAM>
     OWQ A 303  OWQ                                                       

> <pdb_OW>
Q_303 -16.5129 3.80749 7.62812 0.15963 1.39178 -0.28144 -3.20151 0 0 0 -1.30514 0 0 0 0 0 0 0 0 -8.31393

$$$$
6yky_lig_1.pdb
 OpenBabel04162415593D

 49 53  0  0  0  0  0  0  0  0999 V2000
    0.2991   -0.5249    0.8567 C   0  0  0  1  0  0  0  0  0  0  0  0
    0.8818   -2.1621    2.3698 C   0  0  0  1  0  0  0  0  0  0  0  0
    1.0679   -1.0237   -0.0872 N   0  0  0  1  0  0  0  0  0  0  0  0
    3.1250   -2.7364   -1.9413 C   0  0  0  1  0  0  0  0  0  0  0  0
    4.3388   -3.2862   -2.3082 C   0  0  0  1  0  0  0  0  0  0  0  0
    2.8969   -1.7766   -4.1262 C   0  0  0  1  0  0  0  0  0  0  0  0
    2.4042   -1.9783   -2.8508 C   0  0  0  1  0  0  0  0  0  0  0  0
    4.1143   -2.3279   -4.4944 C   0  0  0  1  0  0  0  0  0  0  0  0
    4.8329   -3.0838   -3.5874 C   0  0  0  1  0  0  0  0  0  0  0  0
   -1.2974    1.1545    1.7041 C   0  0  0  1  0  0  0  0  0  0  0  0
   -2.3584    0.1309    2.1950 C   0  0  0  1  0  0  0  0  0  0  0  0
   -3.5707    0.9323    2.7136 C   0  0  0  1  0  0  0  0  0  0  0  0
   -4.1026    3.3921    2.4101 C   0  0  0  1  0  0  0  0  0  0  0  0
    0.2034   -1.0736    2.0552 N   0  0  0  1  0  0  0  0  0  0  0  0
    1.7157   -2.7353    1.4029 C   0  0  0  1  0  0  0  0  0  0  0  0
    1.7871   -2.1164    0.1380 C   0  0  0  1  0  0  0  0  0  0  0  0
    2.6584   -2.8674   -0.6014 N   0  0  0  1  0  0  0  0  0  0  0  0
    2.5295   -3.8133    1.3786 N   0  0  0  1  0  0  0  0  0  0  0  0
    3.0915   -3.9153    0.2247 N   0  0  0  1  0  0  0  0  0  0  0  0
    4.4991   -2.1951   -5.7353 O   0  0  0  1  0  0  0  0  0  0  0  0
   -0.4527    0.5987    0.6542 N   0  0  0  1  0  0  0  0  0  0  0  0
    5.8934   -2.5566   -6.0507 C   0  0  0  1  0  0  0  0  0  0  0  0
   -3.3543    2.2800    2.1156 N   0  0  0  1  0  0  0  0  0  0  0  0
   -2.2294    2.2575    1.1662 C   0  0  0  1  0  0  0  0  0  0  0  0
   -5.0853    3.7754    1.5162 C   0  0  0  1  0  0  0  0  0  0  0  0
   -5.8476    4.8914    1.8047 C   0  0  0  1  0  0  0  0  0  0  0  0
   -5.6836    5.6282    2.9076 N   0  0  0  1  0  0  0  0  0  0  0  0
   -4.7244    5.2477    3.7633 C   0  0  0  1  0  0  0  0  0  0  0  0
   -3.9182    4.1422    3.5551 C   0  0  0  1  0  0  0  0  0  0  0  0
    0.7982   -2.5846    3.3164 H   0  0  0  1  0  0  0  0  0  0  0  0
    4.8815   -3.8516   -1.6245 H   0  0  0  1  0  0  0  0  0  0  0  0
    2.3542   -1.2111   -4.8099 H   0  0  0  1  0  0  0  0  0  0  0  0
    1.4927   -1.5613   -2.5734 H   0  0  0  1  0  0  0  0  0  0  0  0
    5.7444   -3.5008   -3.8648 H   0  0  0  1  0  0  0  0  0  0  0  0
   -0.6840    1.5079    2.5064 H   0  0  0  1  0  0  0  0  0  0  0  0
   -2.6578   -0.5013    1.3854 H   0  0  0  1  0  0  0  0  0  0  0  0
   -1.9514   -0.4670    2.9835 H   0  0  0  1  0  0  0  0  0  0  0  0
   -3.5722    0.9806    3.7825 H   0  0  0  1  0  0  0  0  0  0  0  0
   -4.4903    0.5031    2.3742 H   0  0  0  1  0  0  0  0  0  0  0  0
   -0.4229    1.0419   -0.2193 H   0  0  0  1  0  0  0  0  0  0  0  0
    6.4714   -2.5700   -5.1503 H   0  0  0  1  0  0  0  0  0  0  0  0
    6.3041   -1.8365   -6.7272 H   0  0  0  1  0  0  0  0  0  0  0  0
    5.9166   -3.5258   -6.5035 H   0  0  0  1  0  0  0  0  0  0  0  0
   -1.7281    3.2026    1.1507 H   0  0  0  1  0  0  0  0  0  0  0  0
   -2.5704    2.0178    0.1807 H   0  0  0  1  0  0  0  0  0  0  0  0
   -5.2479    3.2340    0.6433 H   0  0  0  1  0  0  0  0  0  0  0  0
   -6.5866    5.1723    1.1290 H   0  0  0  1  0  0  0  0  0  0  0  0
   -4.5789    5.8107    4.6256 H   0  0  0  1  0  0  0  0  0  0  0  0
   -3.1876    3.8812    4.2477 H   0  0  0  1  0  0  0  0  0  0  0  0
  1  3  4  0  0  0  0
  1 14  4  0  0  0  0
  1 21  1  0  0  0  0
  2 14  4  0  0  0  0
  2 15  4  0  0  0  0
  2 30  1  0  0  0  0
  3 16  4  0  0  0  0
  4  5  4  0  0  0  0
  4  7  4  0  0  0  0
  4 17  1  0  0  0  0
  5  9  4  0  0  0  0
  5 31  1  0  0  0  0
  6  7  4  0  0  0  0
  6  8  4  0  0  0  0
  6 32  1  0  0  0  0
  7 33  1  0  0  0  0
  8  9  4  0  0  0  0
  8 20  1  0  0  0  0
  9 34  1  0  0  0  0
 10 11  1  0  0  0  0
 10 21  1  0  0  0  0
 10 24  1  0  0  0  0
 10 35  1  0  0  0  0
 11 12  1  0  0  0  0
 11 36  1  0  0  0  0
 11 37  1  0  0  0  0
 12 23  1  0  0  0  0
 12 38  1  0  0  0  0
 12 39  1  0  0  0  0
 13 23  1  0  0  0  0
 13 25  4  0  0  0  0
 13 29  4  0  0  0  0
 15 16  4  0  0  0  0
 15 18  4  0  0  0  0
 16 17  4  0  0  0  0
 17 19  4  0  0  0  0
 18 19  4  0  0  0  0
 20 22  1  0  0  0  0
 21 40  1  0  0  0  0
 22 41  1  0  0  0  0
 22 42  1  0  0  0  0
 22 43  1  0  0  0  0
 23 24  1  0  0  0  0
 24 44  1  0  0  0  0
 24 45  1  0  0  0  0
 25 26  4  0  0  0  0
 25 46  1  0  0  0  0
 26 27  4  0  0  0  0
 26 47  1  0  0  0  0
 27 28  4  0  0  0  0
 28 29  4  0  0  0  0
 28 48  1  0  0  0  0
 29 49  1  0  0  0  0
M  END
> <ConfClashScore>
0 

> <ConfOneFourInteractionScore>
-0.987833 

> <ConfScore>
0.0935287 

> <ConfScorePBest>
0.00236704 

> <ConfTolerance>
0.528545 

> <HETNAM>
     OWQ A 303  OWQ                                                       

> <pdb_OW>
Q_303 -16.5129 3.80749 7.62812 0.15963 1.39178 -0.28144 -3.20151 0 0 0 -1.30514 0 0 0 0 0 0 0 0 -8.31393

$$$$
6yky_lig_1.pdb
 OpenBabel04162415593D

 49 53  0  0  0  0  0  0  0  0999 V2000
    0.5738   -0.4745    1.1699 C   0  0  0  1  0  0  0  0  0  0  0  0
    0.9440   -2.3837    2.4057 C   0  0  0  1  0  0  0  0  0  0  0  0
    1.2358   -0.9338    0.1298 N   0  0  0  1  0  0  0  0  0  0  0  0
    3.0581   -2.6076   -2.0039 C   0  0  0  1  0  0  0  0  0  0  0  0
    3.4613   -1.3237   -2.3187 C   0  0  0  1  0  0  0  0  0  0  0  0
    3.5296   -3.3083   -4.2475 C   0  0  0  1  0  0  0  0  0  0  0  0
    3.0898   -3.6009   -2.9703 C   0  0  0  1  0  0  0  0  0  0  0  0
    3.9340   -2.0206   -4.5635 C   0  0  0  1  0  0  0  0  0  0  0  0
    3.9024   -1.0305   -3.5997 C   0  0  0  1  0  0  0  0  0  0  0  0
   -0.8061    1.2981    2.1729 C   0  0  0  1  0  0  0  0  0  0  0  0
   -1.8647    0.2880    2.5885 C   0  0  0  1  0  0  0  0  0  0  0  0
   -2.9280    1.1556    3.2380 C   0  0  0  1  0  0  0  0  0  0  0  0
   -3.8493    3.3413    2.4422 C   0  0  0  1  0  0  0  0  0  0  0  0
    0.4276   -1.1745    2.2812 N   0  0  0  1  0  0  0  0  0  0  0  0
    1.6585   -2.9217    1.3294 C   0  0  0  1  0  0  0  0  0  0  0  0
    1.7895   -2.1396    0.1635 C   0  0  0  1  0  0  0  0  0  0  0  0
    2.5203   -2.8907   -0.7151 N   0  0  0  1  0  0  0  0  0  0  0  0
    2.3018   -4.0900    1.1140 N   0  0  0  1  0  0  0  0  0  0  0  0
    2.8131   -4.1003   -0.0675 N   0  0  0  1  0  0  0  0  0  0  0  0
    4.2683   -1.7146   -5.8396 O   0  0  0  1  0  0  0  0  0  0  0  0
    0.0177    0.7693    1.1001 N   0  0  0  1  0  0  0  0  0  0  0  0
    4.4978   -2.8107   -6.7387 C   0  0  0  1  0  0  0  0  0  0  0  0
   -2.8642    2.3994    2.4570 N   0  0  0  1  0  0  0  0  0  0  0  0
   -1.6113    2.5075    1.6932 C   0  0  0  1  0  0  0  0  0  0  0  0
   -5.1048    2.9848    2.8986 C   0  0  0  1  0  0  0  0  0  0  0  0
   -6.1319    3.9045    2.8047 C   0  0  0  1  0  0  0  0  0  0  0  0
   -5.9778    5.1283    2.2902 N   0  0  0  1  0  0  0  0  0  0  0  0
   -4.7563    5.4590    1.8475 C   0  0  0  1  0  0  0  0  0  0  0  0
   -3.6714    4.6018    1.9064 C   0  0  0  1  0  0  0  0  0  0  0  0
    0.8221   -2.9248    3.2855 H   0  0  0  1  0  0  0  0  0  0  0  0
    3.4337   -0.5777   -1.5947 H   0  0  0  1  0  0  0  0  0  0  0  0
    3.5572   -4.0544   -4.9716 H   0  0  0  1  0  0  0  0  0  0  0  0
    2.7826   -4.5661   -2.7344 H   0  0  0  1  0  0  0  0  0  0  0  0
    4.2095   -0.0653   -3.8356 H   0  0  0  1  0  0  0  0  0  0  0  0
   -0.1852    1.5608    3.0037 H   0  0  0  1  0  0  0  0  0  0  0  0
   -2.2574   -0.2293    1.7381 H   0  0  0  1  0  0  0  0  0  0  0  0
   -1.4678   -0.4202    3.2855 H   0  0  0  1  0  0  0  0  0  0  0  0
   -3.8941    0.7022    3.1602 H   0  0  0  1  0  0  0  0  0  0  0  0
   -2.7002    1.3364    4.2677 H   0  0  0  1  0  0  0  0  0  0  0  0
    0.1782    1.3201    0.3055 H   0  0  0  1  0  0  0  0  0  0  0  0
    4.7834   -2.4321   -7.6979 H   0  0  0  1  0  0  0  0  0  0  0  0
    3.6010   -3.3863   -6.8353 H   0  0  0  1  0  0  0  0  0  0  0  0
    5.2801   -3.4304   -6.3528 H   0  0  0  1  0  0  0  0  0  0  0  0
   -1.1022    3.4213    1.9182 H   0  0  0  1  0  0  0  0  0  0  0  0
   -1.7972    2.4520    0.6409 H   0  0  0  1  0  0  0  0  0  0  0  0
   -5.2730    2.0424    3.3048 H   0  0  0  1  0  0  0  0  0  0  0  0
   -7.0730    3.6303    3.1523 H   0  0  0  1  0  0  0  0  0  0  0  0
   -4.6173    6.4057    1.4401 H   0  0  0  1  0  0  0  0  0  0  0  0
   -2.7398    4.9011    1.5539 H   0  0  0  1  0  0  0  0  0  0  0  0
  1  3  4  0  0  0  0
  1 14  4  0  0  0  0
  1 21  1  0  0  0  0
  2 14  4  0  0  0  0
  2 15  4  0  0  0  0
  2 30  1  0  0  0  0
  3 16  4  0  0  0  0
  4  5  4  0  0  0  0
  4  7  4  0  0  0  0
  4 17  1  0  0  0  0
  5  9  4  0  0  0  0
  5 31  1  0  0  0  0
  6  7  4  0  0  0  0
  6  8  4  0  0  0  0
  6 32  1  0  0  0  0
  7 33  1  0  0  0  0
  8  9  4  0  0  0  0
  8 20  1  0  0  0  0
  9 34  1  0  0  0  0
 10 11  1  0  0  0  0
 10 21  1  0  0  0  0
 10 24  1  0  0  0  0
 10 35  1  0  0  0  0
 11 12  1  0  0  0  0
 11 36  1  0  0  0  0
 11 37  1  0  0  0  0
 12 23  1  0  0  0  0
 12 38  1  0  0  0  0
 12 39  1  0  0  0  0
 13 23  1  0  0  0  0
 13 25  4  0  0  0  0
 13 29  4  0  0  0  0
 15 16  4  0  0  0  0
 15 18  4  0  0  0  0
 16 17  4  0  0  0  0
 17 19  4  0  0  0  0
 18 19  4  0  0  0  0
 20 22  1  0  0  0  0
 21 40  1  0  0  0  0
 22 41  1  0  0  0  0
 22 42  1  0  0  0  0
 22 43  1  0  0  0  0
 23 24  1  0  0  0  0
 24 44  1  0  0  0  0
 24 45  1  0  0  0  0
 25 26  4  0  0  0  0
 25 46  1  0  0  0  0
 26 27  4  0  0  0  0
 26 47  1  0  0  0  0
 27 28  4  0  0  0  0
 28 29  4  0  0  0  0
 28 48  1  0  0  0  0
 29 49  1  0  0  0  0
M  END
> <ConfClashScore>
0 

> <ConfOneFourInteractionScore>
-0.987833 

> <ConfScore>
0.0965281 

> <ConfScorePBest>
0.00235371 

> <ConfTolerance>
0.60024 

> <HETNAM>
     OWQ A 303  OWQ                                                       

> <pdb_OW>
Q_303 -16.5129 3.80749 7.62812 0.15963 1.39178 -0.28144 -3.20151 0 0 0 -1.30514 0 0 0 0 0 0 0 0 -8.31393

$$$$
6yky_lig_1.pdb
 OpenBabel04162415593D

 49 53  0  0  0  0  0  0  0  0999 V2000
    1.0672   -0.6908    1.2138 C   0  0  0  1  0  0  0  0  0  0  0  0
    1.5722   -2.7148    2.1926 C   0  0  0  1  0  0  0  0  0  0  0  0
    1.3194   -1.1337    0.0009 N   0  0  0  1  0  0  0  0  0  0  0  0
    2.0892   -2.8261   -2.6724 C   0  0  0  1  0  0  0  0  0  0  0  0
    1.0031   -2.2278   -3.2827 C   0  0  0  1  0  0  0  0  0  0  0  0
    3.1967   -2.9837   -4.7927 C   0  0  0  1  0  0  0  0  0  0  0  0
    3.1866   -3.2071   -3.4288 C   0  0  0  1  0  0  0  0  0  0  0  0
    2.1075   -2.3835   -5.4050 C   0  0  0  1  0  0  0  0  0  0  0  0
    1.0134   -2.0038   -4.6506 C   0  0  0  1  0  0  0  0  0  0  0  0
    0.3105    1.2275    2.6299 C   0  0  0  1  0  0  0  0  0  0  0  0
   -0.5194    0.3959    3.3474 C   0  0  0  1  0  0  0  0  0  0  0  0
   -1.8039    1.0662    3.6497 C   0  0  0  1  0  0  0  0  0  0  0  0
   -2.6338    3.4003    3.0800 C   0  0  0  1  0  0  0  0  0  0  0  0
    1.1881   -1.4546    2.2854 N   0  0  0  1  0  0  0  0  0  0  0  0
    1.8538   -3.2382    0.9255 C   0  0  0  1  0  0  0  0  0  0  0  0
    1.7114   -2.3874   -0.1898 C   0  0  0  1  0  0  0  0  0  0  0  0
    2.0440   -3.1387   -1.2829 N   0  0  0  1  0  0  0  0  0  0  0  0
    2.2583   -4.4448    0.4720 N   0  0  0  1  0  0  0  0  0  0  0  0
    2.3775   -4.4166   -0.8096 N   0  0  0  1  0  0  0  0  0  0  0  0
    2.2291   -2.2214   -6.7440 O   0  0  0  1  0  0  0  0  0  0  0  0
    0.6741    0.5783    1.3694 N   0  0  0  1  0  0  0  0  0  0  0  0
    1.0890   -1.7057   -7.4488 C   0  0  0  1  0  0  0  0  0  0  0  0
   -1.6608    2.3913    3.0228 N   0  0  0  1  0  0  0  0  0  0  0  0
   -0.3859    2.5233    2.3375 C   0  0  0  1  0  0  0  0  0  0  0  0
   -2.6464    4.4457    3.9848 C   0  0  0  1  0  0  0  0  0  0  0  0
   -3.6711    5.3704    3.9179 C   0  0  0  1  0  0  0  0  0  0  0  0
   -4.6603    5.3074    3.0213 N   0  0  0  1  0  0  0  0  0  0  0  0
   -4.6381    4.2863    2.1530 C   0  0  0  1  0  0  0  0  0  0  0  0
   -3.6486    3.3186    2.1466 C   0  0  0  1  0  0  0  0  0  0  0  0
    1.6637   -3.3059    3.0433 H   0  0  0  1  0  0  0  0  0  0  0  0
    0.1781   -1.9456   -2.7158 H   0  0  0  1  0  0  0  0  0  0  0  0
    4.0217   -3.2658   -5.3597 H   0  0  0  1  0  0  0  0  0  0  0  0
    4.0021   -3.6609   -2.9700 H   0  0  0  1  0  0  0  0  0  0  0  0
    0.1978   -1.5499   -5.1093 H   0  0  0  1  0  0  0  0  0  0  0  0
    1.1951    1.4220    3.1996 H   0  0  0  1  0  0  0  0  0  0  0  0
   -0.7113   -0.4871    2.7743 H   0  0  0  1  0  0  0  0  0  0  0  0
   -0.0391    0.1286    4.2654 H   0  0  0  1  0  0  0  0  0  0  0  0
   -1.9475    1.1573    4.7061 H   0  0  0  1  0  0  0  0  0  0  0  0
   -2.6247    0.5286    3.2227 H   0  0  0  1  0  0  0  0  0  0  0  0
    0.6246    1.1278    0.5594 H   0  0  0  1  0  0  0  0  0  0  0  0
    0.1960   -1.9559   -6.9150 H   0  0  0  1  0  0  0  0  0  0  0  0
    1.0511   -2.1353   -8.4280 H   0  0  0  1  0  0  0  0  0  0  0  0
    1.1704   -0.6418   -7.5283 H   0  0  0  1  0  0  0  0  0  0  0  0
    0.1709    3.3513    2.7239 H   0  0  0  1  0  0  0  0  0  0  0  0
   -0.5300    2.6499    1.2849 H   0  0  0  1  0  0  0  0  0  0  0  0
   -1.8987    4.5345    4.7022 H   0  0  0  1  0  0  0  0  0  0  0  0
   -3.6727    6.1554    4.6000 H   0  0  0  1  0  0  0  0  0  0  0  0
   -5.4014    4.2179    1.4500 H   0  0  0  1  0  0  0  0  0  0  0  0
   -3.6688    2.5447    1.4522 H   0  0  0  1  0  0  0  0  0  0  0  0
  1  3  4  0  0  0  0
  1 14  4  0  0  0  0
  1 21  1  0  0  0  0
  2 14  4  0  0  0  0
  2 15  4  0  0  0  0
  2 30  1  0  0  0  0
  3 16  4  0  0  0  0
  4  5  4  0  0  0  0
  4  7  4  0  0  0  0
  4 17  1  0  0  0  0
  5  9  4  0  0  0  0
  5 31  1  0  0  0  0
  6  7  4  0  0  0  0
  6  8  4  0  0  0  0
  6 32  1  0  0  0  0
  7 33  1  0  0  0  0
  8  9  4  0  0  0  0
  8 20  1  0  0  0  0
  9 34  1  0  0  0  0
 10 11  1  0  0  0  0
 10 21  1  0  0  0  0
 10 24  1  0  0  0  0
 10 35  1  0  0  0  0
 11 12  1  0  0  0  0
 11 36  1  0  0  0  0
 11 37  1  0  0  0  0
 12 23  1  0  0  0  0
 12 38  1  0  0  0  0
 12 39  1  0  0  0  0
 13 23  1  0  0  0  0
 13 25  4  0  0  0  0
 13 29  4  0  0  0  0
 15 16  4  0  0  0  0
 15 18  4  0  0  0  0
 16 17  4  0  0  0  0
 17 19  4  0  0  0  0
 18 19  4  0  0  0  0
 20 22  1  0  0  0  0
 21 40  1  0  0  0  0
 22 41  1  0  0  0  0
 22 42  1  0  0  0  0
 22 43  1  0  0  0  0
 23 24  1  0  0  0  0
 24 44  1  0  0  0  0
 24 45  1  0  0  0  0
 25 26  4  0  0  0  0
 25 46  1  0  0  0  0
 26 27  4  0  0  0  0
 26 47  1  0  0  0  0
 27 28  4  0  0  0  0
 28 29  4  0  0  0  0
 28 48  1  0  0  0  0
 29 49  1  0  0  0  0
M  END
> <ConfClashScore>
0 

> <ConfOneFourInteractionScore>
-0.982045 

> <ConfScore>
0.0967254 

> <ConfScorePBest>
0.00234038 

> <ConfTolerance>
0.675885 

> <HETNAM>
     OWQ A 303  OWQ                                                       

> <pdb_OW>
Q_303 -16.5129 3.80749 7.62812 0.15963 1.39178 -0.28144 -3.20151 0 0 0 -1.30514 0 0 0 0 0 0 0 0 -8.31393

$$$$
6yky_lig_1.pdb
 OpenBabel04162415593D

 49 53  0  0  0  0  0  0  0  0999 V2000
    0.1824    0.3195    0.2726 C   0  0  0  1  0  0  0  0  0  0  0  0
    1.3799    2.2622    0.5909 C   0  0  0  1  0  0  0  0  0  0  0  0
    1.1192   -0.2191   -0.4778 N   0  0  0  1  0  0  0  0  0  0  0  0
    3.8124   -0.9299   -2.2293 C   0  0  0  1  0  0  0  0  0  0  0  0
    3.8389   -2.1671   -1.6140 C   0  0  0  1  0  0  0  0  0  0  0  0
    4.7936   -1.8851   -4.1971 C   0  0  0  1  0  0  0  0  0  0  0  0
    4.2929   -0.7880   -3.5218 C   0  0  0  1  0  0  0  0  0  0  0  0
    4.8202   -3.1261   -3.5800 C   0  0  0  1  0  0  0  0  0  0  0  0
    4.3410   -3.2673   -2.2913 C   0  0  0  1  0  0  0  0  0  0  0  0
   -1.9462    0.0712    1.4347 C   0  0  0  1  0  0  0  0  0  0  0  0
   -2.9345   -1.0279    1.8562 C   0  0  0  1  0  0  0  0  0  0  0  0
   -4.1510   -0.2001    2.2983 C   0  0  0  1  0  0  0  0  0  0  0  0
   -4.4342    2.3850    2.3548 C   0  0  0  1  0  0  0  0  0  0  0  0
    0.3023    1.5269    0.7963 N   0  0  0  1  0  0  0  0  0  0  0  0
    2.4084    1.7380   -0.2003 C   0  0  0  1  0  0  0  0  0  0  0  0
    2.2379    0.4461   -0.7386 C   0  0  0  1  0  0  0  0  0  0  0  0
    3.3710    0.1838   -1.4579 N   0  0  0  1  0  0  0  0  0  0  0  0
    3.6126    2.1961   -0.6068 N   0  0  0  1  0  0  0  0  0  0  0  0
    4.1954    1.3129   -1.3402 N   0  0  0  1  0  0  0  0  0  0  0  0
    5.3997   -4.1708   -4.2027 O   0  0  0  1  0  0  0  0  0  0  0  0
   -0.9507   -0.4421    0.4941 N   0  0  0  1  0  0  0  0  0  0  0  0
    5.2915   -5.4346   -3.5074 C   0  0  0  1  0  0  0  0  0  0  0  0
   -3.8623    1.1946    1.8481 N   0  0  0  1  0  0  0  0  0  0  0  0
   -2.8624    1.0831    0.7700 C   0  0  0  1  0  0  0  0  0  0  0  0
   -5.4840    2.3357    3.2532 C   0  0  0  1  0  0  0  0  0  0  0  0
   -6.0102    3.5227    3.7262 C   0  0  0  1  0  0  0  0  0  0  0  0
   -5.5585    4.7254    3.3576 N   0  0  0  1  0  0  0  0  0  0  0  0
   -4.5433    4.7584    2.4828 C   0  0  0  1  0  0  0  0  0  0  0  0
   -3.9547    3.6193    1.9618 C   0  0  0  1  0  0  0  0  0  0  0  0
    1.4625    3.2111    1.0086 H   0  0  0  1  0  0  0  0  0  0  0  0
    3.4820   -2.2726   -0.6428 H   0  0  0  1  0  0  0  0  0  0  0  0
    5.1505   -1.7795   -5.1682 H   0  0  0  1  0  0  0  0  0  0  0  0
    4.2767    0.1439   -3.9833 H   0  0  0  1  0  0  0  0  0  0  0  0
    4.3573   -4.1991   -1.8298 H   0  0  0  1  0  0  0  0  0  0  0  0
   -1.4508    0.4944    2.2835 H   0  0  0  1  0  0  0  0  0  0  0  0
   -2.5463   -1.6125    2.6639 H   0  0  0  1  0  0  0  0  0  0  0  0
   -3.1772   -1.6697    1.0351 H   0  0  0  1  0  0  0  0  0  0  0  0
   -4.2617   -0.2352    3.3620 H   0  0  0  1  0  0  0  0  0  0  0  0
   -5.0426   -0.5668    1.8341 H   0  0  0  1  0  0  0  0  0  0  0  0
   -1.0822   -1.2982    0.0356 H   0  0  0  1  0  0  0  0  0  0  0  0
    5.7097   -5.3399   -2.5271 H   0  0  0  1  0  0  0  0  0  0  0  0
    5.8239   -6.1871   -4.0508 H   0  0  0  1  0  0  0  0  0  0  0  0
    4.2609   -5.7118   -3.4300 H   0  0  0  1  0  0  0  0  0  0  0  0
   -2.3681    2.0125    0.5783 H   0  0  0  1  0  0  0  0  0  0  0  0
   -3.2864    0.7100   -0.1388 H   0  0  0  1  0  0  0  0  0  0  0  0
   -5.8703    1.4226    3.5671 H   0  0  0  1  0  0  0  0  0  0  0  0
   -6.7981    3.4779    4.4036 H   0  0  0  1  0  0  0  0  0  0  0  0
   -4.1803    5.6850    2.1808 H   0  0  0  1  0  0  0  0  0  0  0  0
   -3.1664    3.6913    1.2873 H   0  0  0  1  0  0  0  0  0  0  0  0
  1  3  4  0  0  0  0
  1 14  4  0  0  0  0
  1 21  1  0  0  0  0
  2 14  4  0  0  0  0
  2 15  4  0  0  0  0
  2 30  1  0  0  0  0
  3 16  4  0  0  0  0
  4  5  4  0  0  0  0
  4  7  4  0  0  0  0
  4 17  1  0  0  0  0
  5  9  4  0  0  0  0
  5 31  1  0  0  0  0
  6  7  4  0  0  0  0
  6  8  4  0  0  0  0
  6 32  1  0  0  0  0
  7 33  1  0  0  0  0
  8  9  4  0  0  0  0
  8 20  1  0  0  0  0
  9 34  1  0  0  0  0
 10 11  1  0  0  0  0
 10 21  1  0  0  0  0
 10 24  1  0  0  0  0
 10 35  1  0  0  0  0
 11 12  1  0  0  0  0
 11 36  1  0  0  0  0
 11 37  1  0  0  0  0
 12 23  1  0  0  0  0
 12 38  1  0  0  0  0
 12 39  1  0  0  0  0
 13 23  1  0  0  0  0
 13 25  4  0  0  0  0
 13 29  4  0  0  0  0
 15 16  4  0  0  0  0
 15 18  4  0  0  0  0
 16 17  4  0  0  0  0
 17 19  4  0  0  0  0
 18 19  4  0  0  0  0
 20 22  1  0  0  0  0
 21 40  1  0  0  0  0
 22 41  1  0  0  0  0
 22 42  1  0  0  0  0
 22 43  1  0  0  0  0
 23 24  1  0  0  0  0
 24 44  1  0  0  0  0
 24 45  1  0  0  0  0
 25 26  4  0  0  0  0
 25 46  1  0  0  0  0
 26 27  4  0  0  0  0
 26 47  1  0  0  0  0
 27 28  4  0  0  0  0
 28 29  4  0  0  0  0
 28 48  1  0  0  0  0
 29 49  1  0  0  0  0
M  END
> <ConfClashScore>
0 

> <ConfOneFourInteractionScore>
-0.984874 

> <ConfScore>
0.097838 

> <ConfScorePBest>
0.00232706 

> <ConfTolerance>
0.383546 

> <HETNAM>
     OWQ A 303  OWQ                                                       

> <pdb_OW>
Q_303 -16.5129 3.80749 7.62812 0.15963 1.39178 -0.28144 -3.20151 0 0 0 -1.30514 0 0 0 0 0 0 0 0 -8.31393

$$$$
6yky_lig_1.pdb
 OpenBabel04162415593D

 49 53  0  0  0  0  0  0  0  0999 V2000
    1.8817   -2.8243   -1.1764 C   0  0  0  1  0  0  0  0  0  0  0  0
    3.4259   -2.6441   -2.8771 C   0  0  0  1  0  0  0  0  0  0  0  0
    1.7870   -1.5204   -1.0282 N   0  0  0  1  0  0  0  0  0  0  0  0
    2.0205    1.7240   -1.1767 C   0  0  0  1  0  0  0  0  0  0  0  0
    1.0749    1.3995   -0.2224 C   0  0  0  1  0  0  0  0  0  0  0  0
    1.5885    4.0543   -0.8155 C   0  0  0  1  0  0  0  0  0  0  0  0
    2.2759    3.0533   -1.4757 C   0  0  0  1  0  0  0  0  0  0  0  0
    0.6400    3.7289    0.1417 C   0  0  0  1  0  0  0  0  0  0  0  0
    0.3856    2.4035    0.4396 C   0  0  0  1  0  0  0  0  0  0  0  0
    0.2601   -3.0953    0.6537 C   0  0  0  1  0  0  0  0  0  0  0  0
   -0.7934   -4.1365    1.1229 C   0  0  0  1  0  0  0  0  0  0  0  0
   -2.0293   -3.3557    1.6167 C   0  0  0  1  0  0  0  0  0  0  0  0
   -2.6195   -0.8713    1.3109 C   0  0  0  1  0  0  0  0  0  0  0  0
    2.6774   -3.3785   -2.0743 N   0  0  0  1  0  0  0  0  0  0  0  0
    3.3645   -1.2507   -2.7627 C   0  0  0  1  0  0  0  0  0  0  0  0
    2.5020   -0.7027   -1.7911 C   0  0  0  1  0  0  0  0  0  0  0  0
    2.6342    0.6547   -1.8910 N   0  0  0  1  0  0  0  0  0  0  0  0
    3.9711   -0.2244   -3.3981 N   0  0  0  1  0  0  0  0  0  0  0  0
    3.5656    0.8966   -2.9119 N   0  0  0  1  0  0  0  0  0  0  0  0
   -0.0710    4.6606    0.8201 O   0  0  0  1  0  0  0  0  0  0  0  0
    1.1320   -3.6346   -0.3750 N   0  0  0  1  0  0  0  0  0  0  0  0
    0.0982    6.0310    0.4255 C   0  0  0  1  0  0  0  0  0  0  0  0
   -1.8232   -2.0043    1.0231 N   0  0  0  1  0  0  0  0  0  0  0  0
   -0.6791   -2.0078    0.0969 C   0  0  0  1  0  0  0  0  0  0  0  0
   -3.9279   -1.0181    1.7330 C   0  0  0  1  0  0  0  0  0  0  0  0
   -4.6691    0.1155    2.0071 C   0  0  0  1  0  0  0  0  0  0  0  0
   -4.1878    1.3561    1.8826 N   0  0  0  1  0  0  0  0  0  0  0  0
   -2.9192    1.4839    1.4684 C   0  0  0  1  0  0  0  0  0  0  0  0
   -2.1052    0.4035    1.1757 C   0  0  0  1  0  0  0  0  0  0  0  0
    4.0482   -3.0920   -3.5798 H   0  0  0  1  0  0  0  0  0  0  0  0
    0.8805    0.4021   -0.0011 H   0  0  0  1  0  0  0  0  0  0  0  0
    1.7829    5.0517   -1.0369 H   0  0  0  1  0  0  0  0  0  0  0  0
    2.9846    3.2973   -2.1966 H   0  0  0  1  0  0  0  0  0  0  0  0
   -0.3231    2.1594    1.1605 H   0  0  0  1  0  0  0  0  0  0  0  0
    0.8510   -2.7319    1.4683 H   0  0  0  1  0  0  0  0  0  0  0  0
   -1.0657   -4.7735    0.3074 H   0  0  0  1  0  0  0  0  0  0  0  0
   -0.3927   -4.7278    1.9196 H   0  0  0  1  0  0  0  0  0  0  0  0
   -2.0533   -3.3077    2.6854 H   0  0  0  1  0  0  0  0  0  0  0  0
   -2.9344   -3.8000    1.2587 H   0  0  0  1  0  0  0  0  0  0  0  0
    1.1831   -4.6057   -0.4965 H   0  0  0  1  0  0  0  0  0  0  0  0
   -0.3312    6.1794   -0.5433 H   0  0  0  1  0  0  0  0  0  0  0  0
    1.1415    6.2662    0.3926 H   0  0  0  1  0  0  0  0  0  0  0  0
   -0.3895    6.6685    1.1330 H   0  0  0  1  0  0  0  0  0  0  0  0
   -0.9959   -2.2528   -0.8953 H   0  0  0  1  0  0  0  0  0  0  0  0
   -0.1933   -1.0545    0.0915 H   0  0  0  1  0  0  0  0  0  0  0  0
   -4.3464   -1.9640    1.8422 H   0  0  0  1  0  0  0  0  0  0  0  0
   -5.6518   -0.0028    2.3265 H   0  0  0  1  0  0  0  0  0  0  0  0
   -2.5277    2.4414    1.3617 H   0  0  0  1  0  0  0  0  0  0  0  0
   -1.1250    0.5487    0.8601 H   0  0  0  1  0  0  0  0  0  0  0  0
  1  3  4  0  0  0  0
  1 14  4  0  0  0  0
  1 21  1  0  0  0  0
  2 14  4  0  0  0  0
  2 15  4  0  0  0  0
  2 30  1  0  0  0  0
  3 16  4  0  0  0  0
  4  5  4  0  0  0  0
  4  7  4  0  0  0  0
  4 17  1  0  0  0  0
  5  9  4  0  0  0  0
  5 31  1  0  0  0  0
  6  7  4  0  0  0  0
  6  8  4  0  0  0  0
  6 32  1  0  0  0  0
  7 33  1  0  0  0  0
  8  9  4  0  0  0  0
  8 20  1  0  0  0  0
  9 34  1  0  0  0  0
 10 11  1  0  0  0  0
 10 21  1  0  0  0  0
 10 24  1  0  0  0  0
 10 35  1  0  0  0  0
 11 12  1  0  0  0  0
 11 36  1  0  0  0  0
 11 37  1  0  0  0  0
 12 23  1  0  0  0  0
 12 38  1  0  0  0  0
 12 39  1  0  0  0  0
 13 23  1  0  0  0  0
 13 25  4  0  0  0  0
 13 29  4  0  0  0  0
 15 16  4  0  0  0  0
 15 18  4  0  0  0  0
 16 17  4  0  0  0  0
 17 19  4  0  0  0  0
 18 19  4  0  0  0  0
 20 22  1  0  0  0  0
 21 40  1  0  0  0  0
 22 41  1  0  0  0  0
 22 42  1  0  0  0  0
 22 43  1  0  0  0  0
 23 24  1  0  0  0  0
 24 44  1  0  0  0  0
 24 45  1  0  0  0  0
 25 26  4  0  0  0  0
 25 46  1  0  0  0  0
 26 27  4  0  0  0  0
 26 47  1  0  0  0  0
 27 28  4  0  0  0  0
 28 29  4  0  0  0  0
 28 48  1  0  0  0  0
 29 49  1  0  0  0  0
M  END
> <ConfClashScore>
0 

> <ConfOneFourInteractionScore>
-0.987833 

> <ConfScore>
0.0981849 

> <ConfScorePBest>
0.00231373 

> <ConfTolerance>
0.430825 

> <HETNAM>
     OWQ A 303  OWQ                                                       

> <pdb_OW>
Q_303 -16.5129 3.80749 7.62812 0.15963 1.39178 -0.28144 -3.20151 0 0 0 -1.30514 0 0 0 0 0 0 0 0 -8.31393

$$$$
6yky_lig_1.pdb
 OpenBabel04162415593D

 49 53  0  0  0  0  0  0  0  0999 V2000
    1.2315   -0.2520    1.1607 C   0  0  0  1  0  0  0  0  0  0  0  0
    2.7185   -1.5140    2.3877 C   0  0  0  1  0  0  0  0  0  0  0  0
    1.6245   -0.7711    0.0174 N   0  0  0  1  0  0  0  0  0  0  0  0
    2.9745   -2.4929   -2.3997 C   0  0  0  1  0  0  0  0  0  0  0  0
    1.7013   -2.7382   -2.8780 C   0  0  0  1  0  0  0  0  0  0  0  0
    3.8365   -2.5970   -4.6343 C   0  0  0  1  0  0  0  0  0  0  0  0
    4.0442   -2.4248   -3.2787 C   0  0  0  1  0  0  0  0  0  0  0  0
    2.5595   -2.8430   -5.1142 C   0  0  0  1  0  0  0  0  0  0  0  0
    1.4931   -2.9108   -4.2375 C   0  0  0  1  0  0  0  0  0  0  0  0
   -0.3987    1.1718    2.3495 C   0  0  0  1  0  0  0  0  0  0  0  0
   -1.4288    0.1518    2.8836 C   0  0  0  1  0  0  0  0  0  0  0  0
   -2.6449    0.9248    3.3276 C   0  0  0  1  0  0  0  0  0  0  0  0
   -3.2948    3.3277    2.7110 C   0  0  0  1  0  0  0  0  0  0  0  0
    1.7594   -0.6087    2.3185 N   0  0  0  1  0  0  0  0  0  0  0  0
    3.1750   -2.0992    1.2013 C   0  0  0  1  0  0  0  0  0  0  0  0
    2.5833   -1.6885   -0.0109 C   0  0  0  1  0  0  0  0  0  0  0  0
    3.2047   -2.4047   -0.9963 N   0  0  0  1  0  0  0  0  0  0  0  0
    4.1110   -3.0278    0.9069 N   0  0  0  1  0  0  0  0  0  0  0  0
    4.1506   -3.2260   -0.3646 N   0  0  0  1  0  0  0  0  0  0  0  0
    2.3749   -3.1105   -6.4288 O   0  0  0  1  0  0  0  0  0  0  0  0
    0.2572    0.6755    1.1522 N   0  0  0  1  0  0  0  0  0  0  0  0
    1.0200   -3.2188   -6.8925 C   0  0  0  1  0  0  0  0  0  0  0  0
   -2.3920    2.2929    2.6572 N   0  0  0  1  0  0  0  0  0  0  0  0
   -1.2575    2.3822    2.0403 C   0  0  0  1  0  0  0  0  0  0  0  0
   -3.6540    3.8873    3.9232 C   0  0  0  1  0  0  0  0  0  0  0  0
   -4.5623    4.9287    3.9314 C   0  0  0  1  0  0  0  0  0  0  0  0
   -5.1193    5.4267    2.8233 N   0  0  0  1  0  0  0  0  0  0  0  0
   -4.7653    4.8718    1.6554 C   0  0  0  1  0  0  0  0  0  0  0  0
   -3.8610    3.8289    1.5552 C   0  0  0  1  0  0  0  0  0  0  0  0
    3.1260   -1.7864    3.3050 H   0  0  0  1  0  0  0  0  0  0  0  0
    0.8994   -2.7933   -2.2180 H   0  0  0  1  0  0  0  0  0  0  0  0
    4.6383   -2.5419   -5.2943 H   0  0  0  1  0  0  0  0  0  0  0  0
    5.0029   -2.2443   -2.9183 H   0  0  0  1  0  0  0  0  0  0  0  0
    0.5344   -3.0914   -4.5980 H   0  0  0  1  0  0  0  0  0  0  0  0
    0.3377    1.4007    3.0913 H   0  0  0  1  0  0  0  0  0  0  0  0
   -1.6963   -0.5364    2.1092 H   0  0  0  1  0  0  0  0  0  0  0  0
   -1.0152   -0.3853    3.7115 H   0  0  0  1  0  0  0  0  0  0  0  0
   -3.5475    0.4743    2.9708 H   0  0  0  1  0  0  0  0  0  0  0  0
   -2.6864    1.0122    4.3932 H   0  0  0  1  0  0  0  0  0  0  0  0
   -0.0269    1.0377    0.2871 H   0  0  0  1  0  0  0  0  0  0  0  0
    1.0158   -3.3666   -7.9522 H   0  0  0  1  0  0  0  0  0  0  0  0
    0.4894   -2.3203   -6.6559 H   0  0  0  1  0  0  0  0  0  0  0  0
    0.5452   -4.0503   -6.4148 H   0  0  0  1  0  0  0  0  0  0  0  0
   -1.4314    2.4323    0.9857 H   0  0  0  1  0  0  0  0  0  0  0  0
   -0.7493    3.2676    2.3609 H   0  0  0  1  0  0  0  0  0  0  0  0
   -3.2483    3.5311    4.8122 H   0  0  0  1  0  0  0  0  0  0  0  0
   -4.8259    5.3463    4.8467 H   0  0  0  1  0  0  0  0  0  0  0  0
   -5.1909    5.2431    0.7821 H   0  0  0  1  0  0  0  0  0  0  0  0
   -3.6125    3.4303    0.6274 H   0  0  0  1  0  0  0  0  0  0  0  0
  1  3  4  0  0  0  0
  1 14  4  0  0  0  0
  1 21  1  0  0  0  0
  2 14  4  0  0  0  0
  2 15  4  0  0  0  0
  2 30  1  0  0  0  0
  3 16  4  0  0  0  0
  4  5  4  0  0  0  0
  4  7  4  0  0  0  0
  4 17  1  0  0  0  0
  5  9  4  0  0  0  0
  5 31  1  0  0  0  0
  6  7  4  0  0  0  0
  6  8  4  0  0  0  0
  6 32  1  0  0  0  0
  7 33  1  0  0  0  0
  8  9  4  0  0  0  0
  8 20  1  0  0  0  0
  9 34  1  0  0  0  0
 10 11  1  0  0  0  0
 10 21  1  0  0  0  0
 10 24  1  0  0  0  0
 10 35  1  0  0  0  0
 11 12  1  0  0  0  0
 11 36  1  0  0  0  0
 11 37  1  0  0  0  0
 12 23  1  0  0  0  0
 12 38  1  0  0  0  0
 12 39  1  0  0  0  0
 13 23  1  0  0  0  0
 13 25  4  0  0  0  0
 13 29  4  0  0  0  0
 15 16  4  0  0  0  0
 15 18  4  0  0  0  0
 16 17  4  0  0  0  0
 17 19  4  0  0  0  0
 18 19  4  0  0  0  0
 20 22  1  0  0  0  0
 21 40  1  0  0  0  0
 22 41  1  0  0  0  0
 22 42  1  0  0  0  0
 22 43  1  0  0  0  0
 23 24  1  0  0  0  0
 24 44  1  0  0  0  0
 24 45  1  0  0  0  0
 25 26  4  0  0  0  0
 25 46  1  0  0  0  0
 26 27  4  0  0  0  0
 26 47  1  0  0  0  0
 27 28  4  0  0  0  0
 28 29  4  0  0  0  0
 28 48  1  0  0  0  0
 29 49  1  0  0  0  0
M  END
> <ConfClashScore>
0 

> <ConfOneFourInteractionScore>
-0.986948 

> <ConfScore>
0.0983013 

> <ConfScorePBest>
0.0023004 

> <ConfTolerance>
0.687445 

> <HETNAM>
     OWQ A 303  OWQ                                                       

> <pdb_OW>
Q_303 -16.5129 3.80749 7.62812 0.15963 1.39178 -0.28144 -3.20151 0 0 0 -1.30514 0 0 0 0 0 0 0 0 -8.31393

$$$$
6yky_lig_1.pdb
 OpenBabel04162415593D

 49 53  0  0  0  0  0  0  0  0999 V2000
    0.1247   -0.4556    0.7594 C   0  0  0  1  0  0  0  0  0  0  0  0
    1.0809   -1.5367    2.5556 C   0  0  0  1  0  0  0  0  0  0  0  0
    1.1171   -0.7659   -0.0467 N   0  0  0  1  0  0  0  0  0  0  0  0
    3.7939   -1.9902   -1.4972 C   0  0  0  1  0  0  0  0  0  0  0  0
    3.4459   -0.9950   -2.3907 C   0  0  0  1  0  0  0  0  0  0  0  0
    4.9522   -3.1557   -3.2429 C   0  0  0  1  0  0  0  0  0  0  0  0
    4.5459   -3.0735   -1.9243 C   0  0  0  1  0  0  0  0  0  0  0  0
    4.6031   -2.1576   -4.1393 C   0  0  0  1  0  0  0  0  0  0  0  0
    3.8533   -1.0775   -3.7131 C   0  0  0  1  0  0  0  0  0  0  0  0
   -1.9187    0.7973    1.2191 C   0  0  0  1  0  0  0  0  0  0  0  0
   -2.9100   -0.3002    1.6377 C   0  0  0  1  0  0  0  0  0  0  0  0
   -4.1180    0.5302    2.0980 C   0  0  0  1  0  0  0  0  0  0  0  0
   -4.3837    3.1120    2.1806 C   0  0  0  1  0  0  0  0  0  0  0  0
    0.1002   -0.8272    2.0274 N   0  0  0  1  0  0  0  0  0  0  0  0
    2.1624   -1.8950    1.7428 C   0  0  0  1  0  0  0  0  0  0  0  0
    2.1468   -1.4769    0.3963 C   0  0  0  1  0  0  0  0  0  0  0  0
    3.3013   -1.9532   -0.1607 N   0  0  0  1  0  0  0  0  0  0  0  0
    3.3018   -2.5928    1.9424 N   0  0  0  1  0  0  0  0  0  0  0  0
    3.9846   -2.6432    0.8520 N   0  0  0  1  0  0  0  0  0  0  0  0
    4.9360   -2.1321   -5.4444 O   0  0  0  1  0  0  0  0  0  0  0  0
   -0.9317    0.2865    0.2632 N   0  0  0  1  0  0  0  0  0  0  0  0
    5.7421   -3.2466   -5.8924 C   0  0  0  1  0  0  0  0  0  0  0  0
   -3.8249    1.9276    1.6592 N   0  0  0  1  0  0  0  0  0  0  0  0
   -2.8344    1.8210    0.5719 C   0  0  0  1  0  0  0  0  0  0  0  0
   -3.7257    3.8288    3.1629 C   0  0  0  1  0  0  0  0  0  0  0  0
   -4.3074    4.9866    3.6432 C   0  0  0  1  0  0  0  0  0  0  0  0
   -5.4819    5.4538    3.2088 N   0  0  0  1  0  0  0  0  0  0  0  0
   -6.1109    4.7466    2.2594 C   0  0  0  1  0  0  0  0  0  0  0  0
   -5.5991    3.5793    1.7200 C   0  0  0  1  0  0  0  0  0  0  0  0
    1.0502   -1.8232    3.5549 H   0  0  0  1  0  0  0  0  0  0  0  0
    2.8783   -0.1843   -2.0711 H   0  0  0  1  0  0  0  0  0  0  0  0
    5.5197   -3.9664   -3.5625 H   0  0  0  1  0  0  0  0  0  0  0  0
    4.8044   -3.8244   -1.2528 H   0  0  0  1  0  0  0  0  0  0  0  0
    3.5948   -0.3266   -4.3846 H   0  0  0  1  0  0  0  0  0  0  0  0
   -1.4140    1.2092    2.0679 H   0  0  0  1  0  0  0  0  0  0  0  0
   -3.1631   -0.9324    0.8124 H   0  0  0  1  0  0  0  0  0  0  0  0
   -2.5186   -0.8950    2.4364 H   0  0  0  1  0  0  0  0  0  0  0  0
   -4.2202    0.4851    3.1621 H   0  0  0  1  0  0  0  0  0  0  0  0
   -5.0155    0.1732    1.6375 H   0  0  0  1  0  0  0  0  0  0  0  0
   -1.0177    0.4651   -0.6965 H   0  0  0  1  0  0  0  0  0  0  0  0
    6.5899   -3.3556   -5.2488 H   0  0  0  1  0  0  0  0  0  0  0  0
    6.0752   -3.0660   -6.8931 H   0  0  0  1  0  0  0  0  0  0  0  0
    5.1576   -4.1424   -5.8667 H   0  0  0  1  0  0  0  0  0  0  0  0
   -2.3363    2.7495    0.3853 H   0  0  0  1  0  0  0  0  0  0  0  0
   -3.2680    1.4594   -0.3370 H   0  0  0  1  0  0  0  0  0  0  0  0
   -2.8103    3.5027    3.5335 H   0  0  0  1  0  0  0  0  0  0  0  0
   -3.8056    5.5219    4.3802 H   0  0  0  1  0  0  0  0  0  0  0  0
   -7.0279    5.0919    1.9111 H   0  0  0  1  0  0  0  0  0  0  0  0
   -6.1199    3.0637    0.9820 H   0  0  0  1  0  0  0  0  0  0  0  0
  1  3  4  0  0  0  0
  1 14  4  0  0  0  0
  1 21  1  0  0  0  0
  2 14  4  0  0  0  0
  2 15  4  0  0  0  0
  2 30  1  0  0  0  0
  3 16  4  0  0  0  0
  4  5  4  0  0  0  0
  4  7  4  0  0  0  0
  4 17  1  0  0  0  0
  5  9  4  0  0  0  0
  5 31  1  0  0  0  0
  6  7  4  0  0  0  0
  6  8  4  0  0  0  0
  6 32  1  0  0  0  0
  7 33  1  0  0  0  0
  8  9  4  0  0  0  0
  8 20  1  0  0  0  0
  9 34  1  0  0  0  0
 10 11  1  0  0  0  0
 10 21  1  0  0  0  0
 10 24  1  0  0  0  0
 10 35  1  0  0  0  0
 11 12  1  0  0  0  0
 11 36  1  0  0  0  0
 11 37  1  0  0  0  0
 12 23  1  0  0  0  0
 12 38  1  0  0  0  0
 12 39  1  0  0  0  0
 13 23  1  0  0  0  0
 13 25  4  0  0  0  0
 13 29  4  0  0  0  0
 15 16  4  0  0  0  0
 15 18  4  0  0  0  0
 16 17  4  0  0  0  0
 17 19  4  0  0  0  0
 18 19  4  0  0  0  0
 20 22  1  0  0  0  0
 21 40  1  0  0  0  0
 22 41  1  0  0  0  0
 22 42  1  0  0  0  0
 22 43  1  0  0  0  0
 23 24  1  0  0  0  0
 24 44  1  0  0  0  0
 24 45  1  0  0  0  0
 25 26  4  0  0  0  0
 25 46  1  0  0  0  0
 26 27  4  0  0  0  0
 26 47  1  0  0  0  0
 27 28  4  0  0  0  0
 28 29  4  0  0  0  0
 28 48  1  0  0  0  0
 29 49  1  0  0  0  0
M  END
> <ConfClashScore>
0 

> <ConfOneFourInteractionScore>
-0.986948 

> <ConfScore>
0.0983419 

> <ConfScorePBest>
0.00228707 

> <ConfTolerance>
0.486837 

> <HETNAM>
     OWQ A 303  OWQ                                                       

> <pdb_OW>
Q_303 -16.5129 3.80749 7.62812 0.15963 1.39178 -0.28144 -3.20151 0 0 0 -1.30514 0 0 0 0 0 0 0 0 -8.31393

$$$$
6yky_lig_1.pdb
 OpenBabel04162415593D

 49 53  0  0  0  0  0  0  0  0999 V2000
    0.5830   -0.1946    0.9237 C   0  0  0  1  0  0  0  0  0  0  0  0
    2.4122    0.5171    2.1309 C   0  0  0  1  0  0  0  0  0  0  0  0
    1.3256   -0.7288   -0.0218 N   0  0  0  1  0  0  0  0  0  0  0  0
    3.7228   -1.6829   -2.0416 C   0  0  0  1  0  0  0  0  0  0  0  0
    2.8560   -2.7234   -2.3177 C   0  0  0  1  0  0  0  0  0  0  0  0
    4.7186   -1.9347   -4.2077 C   0  0  0  1  0  0  0  0  0  0  0  0
    4.6573   -1.2896   -2.9869 C   0  0  0  1  0  0  0  0  0  0  0  0
    3.8494   -2.9783   -4.4848 C   0  0  0  1  0  0  0  0  0  0  0  0
    2.9177   -3.3703   -3.5421 C   0  0  0  1  0  0  0  0  0  0  0  0
   -1.6415    0.2772    1.8774 C   0  0  0  1  0  0  0  0  0  0  0  0
   -2.7136   -0.7447    2.3471 C   0  0  0  1  0  0  0  0  0  0  0  0
   -3.9204    0.0589    2.8751 C   0  0  0  1  0  0  0  0  0  0  0  0
   -4.4512    2.5625    2.6212 C   0  0  0  1  0  0  0  0  0  0  0  0
    1.1049    0.4135    1.9746 N   0  0  0  1  0  0  0  0  0  0  0  0
    3.2499   -0.0339    1.1545 C   0  0  0  1  0  0  0  0  0  0  0  0
    2.6498   -0.6733    0.0504 C   0  0  0  1  0  0  0  0  0  0  0  0
    3.6783   -1.1129   -0.7364 N   0  0  0  1  0  0  0  0  0  0  0  0
    4.5892   -0.1106    0.9949 N   0  0  0  1  0  0  0  0  0  0  0  0
    4.8680   -0.7333   -0.0970 N   0  0  0  1  0  0  0  0  0  0  0  0
    3.9650   -3.5715   -5.6967 O   0  0  0  1  0  0  0  0  0  0  0  0
   -0.7934   -0.2715    0.8154 N   0  0  0  1  0  0  0  0  0  0  0  0
    4.7420   -2.8861   -6.6912 C   0  0  0  1  0  0  0  0  0  0  0  0
   -3.6894    1.4145    2.3009 N   0  0  0  1  0  0  0  0  0  0  0  0
   -2.5614    1.3977    1.3552 C   0  0  0  1  0  0  0  0  0  0  0  0
   -4.5895    3.5934    1.7104 C   0  0  0  1  0  0  0  0  0  0  0  0
   -5.3459    4.6948    2.0629 C   0  0  0  1  0  0  0  0  0  0  0  0
   -5.9535    4.8206    3.2467 N   0  0  0  1  0  0  0  0  0  0  0  0
   -5.8075    3.8156    4.1217 C   0  0  0  1  0  0  0  0  0  0  0  0
   -5.0716    2.6754    3.8502 C   0  0  0  1  0  0  0  0  0  0  0  0
    2.8109    0.9981    2.9623 H   0  0  0  1  0  0  0  0  0  0  0  0
    2.1577   -3.0211   -1.6069 H   0  0  0  1  0  0  0  0  0  0  0  0
    5.4170   -1.6370   -4.9185 H   0  0  0  1  0  0  0  0  0  0  0  0
    5.3121   -0.5093   -2.7775 H   0  0  0  1  0  0  0  0  0  0  0  0
    2.2629   -4.1506   -3.7514 H   0  0  0  1  0  0  0  0  0  0  0  0
   -1.0278    0.6112    2.6878 H   0  0  0  1  0  0  0  0  0  0  0  0
   -3.0159   -1.3603    1.5258 H   0  0  0  1  0  0  0  0  0  0  0  0
   -2.3151   -1.3597    3.1267 H   0  0  0  1  0  0  0  0  0  0  0  0
   -4.8426   -0.3560    2.5252 H   0  0  0  1  0  0  0  0  0  0  0  0
   -3.9254    0.0889    3.9446 H   0  0  0  1  0  0  0  0  0  0  0  0
   -1.2012   -0.6921    0.0298 H   0  0  0  1  0  0  0  0  0  0  0  0
    5.7209   -2.6892   -6.3065 H   0  0  0  1  0  0  0  0  0  0  0  0
    4.2649   -1.9617   -6.9417 H   0  0  0  1  0  0  0  0  0  0  0  0
    4.8192   -3.4968   -7.5664 H   0  0  0  1  0  0  0  0  0  0  0  0
   -2.0512    2.3383    1.3576 H   0  0  0  1  0  0  0  0  0  0  0  0
   -2.9009    1.1781    0.3646 H   0  0  0  1  0  0  0  0  0  0  0  0
   -4.1328    3.5409    0.7775 H   0  0  0  1  0  0  0  0  0  0  0  0
   -5.4475    5.4653    1.3718 H   0  0  0  1  0  0  0  0  0  0  0  0
   -6.2697    3.8966    5.0499 H   0  0  0  1  0  0  0  0  0  0  0  0
   -4.9872    1.9180    4.5579 H   0  0  0  1  0  0  0  0  0  0  0  0
  1  3  4  0  0  0  0
  1 14  4  0  0  0  0
  1 21  1  0  0  0  0
  2 14  4  0  0  0  0
  2 15  4  0  0  0  0
  2 30  1  0  0  0  0
  3 16  4  0  0  0  0
  4  5  4  0  0  0  0
  4  7  4  0  0  0  0
  4 17  1  0  0  0  0
  5  9  4  0  0  0  0
  5 31  1  0  0  0  0
  6  7  4  0  0  0  0
  6  8  4  0  0  0  0
  6 32  1  0  0  0  0
  7 33  1  0  0  0  0
  8  9  4  0  0  0  0
  8 20  1  0  0  0  0
  9 34  1  0  0  0  0
 10 11  1  0  0  0  0
 10 21  1  0  0  0  0
 10 24  1  0  0  0  0
 10 35  1  0  0  0  0
 11 12  1  0  0  0  0
 11 36  1  0  0  0  0
 11 37  1  0  0  0  0
 12 23  1  0  0  0  0
 12 38  1  0  0  0  0
 12 39  1  0  0  0  0
 13 23  1  0  0  0  0
 13 25  4  0  0  0  0
 13 29  4  0  0  0  0
 15 16  4  0  0  0  0
 15 18  4  0  0  0  0
 16 17  4  0  0  0  0
 17 19  4  0  0  0  0
 18 19  4  0  0  0  0
 20 22  1  0  0  0  0
 21 40  1  0  0  0  0
 22 41  1  0  0  0  0
 22 42  1  0  0  0  0
 22 43  1  0  0  0  0
 23 24  1  0  0  0  0
 24 44  1  0  0  0  0
 24 45  1  0  0  0  0
 25 26  4  0  0  0  0
 25 46  1  0  0  0  0
 26 27  4  0  0  0  0
 26 47  1  0  0  0  0
 27 28  4  0  0  0  0
 28 29  4  0  0  0  0
 28 48  1  0  0  0  0
 29 49  1  0  0  0  0
M  END
> <ConfClashScore>
0 

> <ConfOneFourInteractionScore>
-0.986948 

> <ConfScore>
0.100938 

> <ConfScorePBest>
0.00227374 

> <ConfTolerance>
0.559826 

> <HETNAM>
     OWQ A 303  OWQ                                                       

> <pdb_OW>
Q_303 -16.5129 3.80749 7.62812 0.15963 1.39178 -0.28144 -3.20151 0 0 0 -1.30514 0 0 0 0 0 0 0 0 -8.31393

$$$$
6yky_lig_1.pdb
 OpenBabel04162415593D

 49 53  0  0  0  0  0  0  0  0999 V2000
    1.2509   -2.7816   -1.4859 C   0  0  0  1  0  0  0  0  0  0  0  0
    2.4981   -2.6156   -3.4163 C   0  0  0  1  0  0  0  0  0  0  0  0
    1.3372   -1.4931   -1.2347 N   0  0  0  1  0  0  0  0  0  0  0  0
    2.0170    1.7019   -1.1598 C   0  0  0  1  0  0  0  0  0  0  0  0
    0.7141    2.0613   -0.8708 C   0  0  0  1  0  0  0  0  0  0  0  0
    2.8187    3.5032    0.2041 C   0  0  0  1  0  0  0  0  0  0  0  0
    3.0709    2.4255   -0.6237 C   0  0  0  1  0  0  0  0  0  0  0  0
    1.5119    3.8637    0.4940 C   0  0  0  1  0  0  0  0  0  0  0  0
    0.4613    3.1421   -0.0406 C   0  0  0  1  0  0  0  0  0  0  0  0
   -0.0517   -3.0428    0.5846 C   0  0  0  1  0  0  0  0  0  0  0  0
   -1.0668   -4.0408    1.1849 C   0  0  0  1  0  0  0  0  0  0  0  0
   -2.2611   -3.2478    1.6523 C   0  0  0  1  0  0  0  0  0  0  0  0
   -2.9432   -0.8319    0.9953 C   0  0  0  1  0  0  0  0  0  0  0  0
    1.8134   -3.3352   -2.5459 N   0  0  0  1  0  0  0  0  0  0  0  0
    2.6219   -1.2388   -3.1980 C   0  0  0  1  0  0  0  0  0  0  0  0
    2.0056   -0.6909   -2.0543 C   0  0  0  1  0  0  0  0  0  0  0  0
    2.2785    0.6487   -2.0832 N   0  0  0  1  0  0  0  0  0  0  0  0
    3.2302   -0.2299   -3.8592 N   0  0  0  1  0  0  0  0  0  0  0  0
    3.0473    0.8805   -3.2337 N   0  0  0  1  0  0  0  0  0  0  0  0
    1.2648    4.9229    1.3009 O   0  0  0  1  0  0  0  0  0  0  0  0
    0.5559   -3.5762   -0.6218 N   0  0  0  1  0  0  0  0  0  0  0  0
    2.4009    5.6315    1.8200 C   0  0  0  1  0  0  0  0  0  0  0  0
   -2.0259   -1.9005    0.9352 N   0  0  0  1  0  0  0  0  0  0  0  0
   -0.9148   -1.8357    0.2741 C   0  0  0  1  0  0  0  0  0  0  0  0
   -4.0406   -0.9573    1.8270 C   0  0  0  1  0  0  0  0  0  0  0  0
   -4.9443    0.0858    1.8968 C   0  0  0  1  0  0  0  0  0  0  0  0
   -4.8164    1.2170    1.1966 N   0  0  0  1  0  0  0  0  0  0  0  0
   -3.7500    1.3233    0.3911 C   0  0  0  1  0  0  0  0  0  0  0  0
   -2.7949    0.3299    0.2634 C   0  0  0  1  0  0  0  0  0  0  0  0
    2.9363   -3.0629   -4.2467 H   0  0  0  1  0  0  0  0  0  0  0  0
   -0.0765    1.5208   -1.2763 H   0  0  0  1  0  0  0  0  0  0  0  0
    3.6093    4.0436    0.6095 H   0  0  0  1  0  0  0  0  0  0  0  0
    4.0512    2.1575   -0.8445 H   0  0  0  1  0  0  0  0  0  0  0  0
   -0.5190    3.4101    0.1801 H   0  0  0  1  0  0  0  0  0  0  0  0
    0.7131   -2.7984    1.2918 H   0  0  0  1  0  0  0  0  0  0  0  0
   -1.3670   -4.7484    0.4405 H   0  0  0  1  0  0  0  0  0  0  0  0
   -0.6255   -4.5576    2.0115 H   0  0  0  1  0  0  0  0  0  0  0  0
   -3.1790   -3.7020    1.3421 H   0  0  0  1  0  0  0  0  0  0  0  0
   -2.2621   -3.1308    2.7159 H   0  0  0  1  0  0  0  0  0  0  0  0
    0.4644   -4.5315   -0.8203 H   0  0  0  1  0  0  0  0  0  0  0  0
    2.1109    6.1832    2.6897 H   0  0  0  1  0  0  0  0  0  0  0  0
    2.7702    6.3065    1.0764 H   0  0  0  1  0  0  0  0  0  0  0  0
    3.1682    4.9327    2.0806 H   0  0  0  1  0  0  0  0  0  0  0  0
   -0.3900   -0.9452    0.5508 H   0  0  0  1  0  0  0  0  0  0  0  0
   -1.1278   -1.8136   -0.7743 H   0  0  0  1  0  0  0  0  0  0  0  0
   -4.1833   -1.8204    2.3894 H   0  0  0  1  0  0  0  0  0  0  0  0
   -5.7660   -0.0146    2.5263 H   0  0  0  1  0  0  0  0  0  0  0  0
   -3.6350    2.1946   -0.1649 H   0  0  0  1  0  0  0  0  0  0  0  0
   -1.9810    0.4559   -0.3717 H   0  0  0  1  0  0  0  0  0  0  0  0
  1  3  4  0  0  0  0
  1 14  4  0  0  0  0
  1 21  1  0  0  0  0
  2 14  4  0  0  0  0
  2 15  4  0  0  0  0
  2 30  1  0  0  0  0
  3 16  4  0  0  0  0
  4  5  4  0  0  0  0
  4  7  4  0  0  0  0
  4 17  1  0  0  0  0
  5  9  4  0  0  0  0
  5 31  1  0  0  0  0
  6  7  4  0  0  0  0
  6  8  4  0  0  0  0
  6 32  1  0  0  0  0
  7 33  1  0  0  0  0
  8  9  4  0  0  0  0
  8 20  1  0  0  0  0
  9 34  1  0  0  0  0
 10 11  1  0  0  0  0
 10 21  1  0  0  0  0
 10 24  1  0  0  0  0
 10 35  1  0  0  0  0
 11 12  1  0  0  0  0
 11 36  1  0  0  0  0
 11 37  1  0  0  0  0
 12 23  1  0  0  0  0
 12 38  1  0  0  0  0
 12 39  1  0  0  0  0
 13 23  1  0  0  0  0
 13 25  4  0  0  0  0
 13 29  4  0  0  0  0
 15 16  4  0  0  0  0
 15 18  4  0  0  0  0
 16 17  4  0  0  0  0
 17 19  4  0  0  0  0
 18 19  4  0  0  0  0
 20 22  1  0  0  0  0
 21 40  1  0  0  0  0
 22 41  1  0  0  0  0
 22 42  1  0  0  0  0
 22 43  1  0  0  0  0
 23 24  1  0  0  0  0
 24 44  1  0  0  0  0
 24 45  1  0  0  0  0
 25 26  4  0  0  0  0
 25 46  1  0  0  0  0
 26 27  4  0  0  0  0
 26 47  1  0  0  0  0
 27 28  4  0  0  0  0
 28 29  4  0  0  0  0
 28 48  1  0  0  0  0
 29 49  1  0  0  0  0
M  END
> <ConfClashScore>
0 

> <ConfOneFourInteractionScore>
-0.987833 

> <ConfScore>
0.102761 

> <ConfScorePBest>
0.00226041 

> <ConfTolerance>
0.700052 

> <HETNAM>
     OWQ A 303  OWQ                                                       

> <pdb_OW>
Q_303 -16.5129 3.80749 7.62812 0.15963 1.39178 -0.28144 -3.20151 0 0 0 -1.30514 0 0 0 0 0 0 0 0 -8.31393

$$$$
6yky_lig_1.pdb
 OpenBabel04162415593D

 49 53  0  0  0  0  0  0  0  0999 V2000
    2.0148   -0.1833    0.8314 C   0  0  0  1  0  0  0  0  0  0  0  0
    4.2444   -0.6726    0.5171 C   0  0  0  1  0  0  0  0  0  0  0  0
    1.6411   -0.8741   -0.2240 N   0  0  0  1  0  0  0  0  0  0  0  0
    1.3638   -2.6842   -2.8686 C   0  0  0  1  0  0  0  0  0  0  0  0
    1.2544   -2.2886   -4.1883 C   0  0  0  1  0  0  0  0  0  0  0  0
   -0.7975   -3.7136   -2.9955 C   0  0  0  1  0  0  0  0  0  0  0  0
    0.3353   -3.3954   -2.2704 C   0  0  0  1  0  0  0  0  0  0  0  0
   -0.9074   -3.3169   -4.3192 C   0  0  0  1  0  0  0  0  0  0  0  0
    0.1182   -2.6078   -4.9154 C   0  0  0  1  0  0  0  0  0  0  0  0
    1.1889    1.1905    2.7156 C   0  0  0  1  0  0  0  0  0  0  0  0
    0.5057    0.5256    3.8743 C   0  0  0  1  0  0  0  0  0  0  0  0
   -0.9665    0.9822    3.6743 C   0  0  0  1  0  0  0  0  0  0  0  0
   -1.8347    3.2323    3.0090 C   0  0  0  1  0  0  0  0  0  0  0  0
    3.2802   -0.0807    1.1983 N   0  0  0  1  0  0  0  0  0  0  0  0
    3.9033   -1.4211   -0.6152 C   0  0  0  1  0  0  0  0  0  0  0  0
    2.5411   -1.5033   -0.9698 C   0  0  0  1  0  0  0  0  0  0  0  0
    2.4895   -2.2804   -2.0938 N   0  0  0  1  0  0  0  0  0  0  0  0
    4.6065   -2.1367   -1.5199 N   0  0  0  1  0  0  0  0  0  0  0  0
    3.8100   -2.6484   -2.3924 N   0  0  0  1  0  0  0  0  0  0  0  0
   -2.0567   -3.6787   -4.9219 O   0  0  0  1  0  0  0  0  0  0  0  0
    1.0055    0.4088    1.5051 N   0  0  0  1  0  0  0  0  0  0  0  0
   -2.1934   -3.2392   -6.2933 C   0  0  0  1  0  0  0  0  0  0  0  0
   -0.7946    2.2838    3.0834 N   0  0  0  1  0  0  0  0  0  0  0  0
    0.5390    2.5373    2.5708 C   0  0  0  1  0  0  0  0  0  0  0  0
   -2.9822    2.8925    2.3166 C   0  0  0  1  0  0  0  0  0  0  0  0
   -4.0098    3.8133    2.2406 C   0  0  0  1  0  0  0  0  0  0  0  0
   -3.9537    5.0250    2.8016 N   0  0  0  1  0  0  0  0  0  0  0  0
   -2.8336    5.3428    3.4662 C   0  0  0  1  0  0  0  0  0  0  0  0
   -1.7585    4.4808    3.5948 C   0  0  0  1  0  0  0  0  0  0  0  0
    5.2366   -0.5844    0.8159 H   0  0  0  1  0  0  0  0  0  0  0  0
    2.0244   -1.7515   -4.6358 H   0  0  0  1  0  0  0  0  0  0  0  0
   -1.5675   -4.2507   -2.5480 H   0  0  0  1  0  0  0  0  0  0  0  0
    0.4160   -3.6895   -1.2761 H   0  0  0  1  0  0  0  0  0  0  0  0
    0.0376   -2.3136   -5.9097 H   0  0  0  1  0  0  0  0  0  0  0  0
    2.2344    1.3015    2.9141 H   0  0  0  1  0  0  0  0  0  0  0  0
    0.8976    0.8702    4.8084 H   0  0  0  1  0  0  0  0  0  0  0  0
    0.5945   -0.5394    3.8209 H   0  0  0  1  0  0  0  0  0  0  0  0
   -1.4851    1.0441    4.6081 H   0  0  0  1  0  0  0  0  0  0  0  0
   -1.4927    0.3225    3.0165 H   0  0  0  1  0  0  0  0  0  0  0  0
    0.0954    0.3050    1.1568 H   0  0  0  1  0  0  0  0  0  0  0  0
   -2.1362   -2.1715   -6.3336 H   0  0  0  1  0  0  0  0  0  0  0  0
   -3.1389   -3.5602   -6.6778 H   0  0  0  1  0  0  0  0  0  0  0  0
   -1.4063   -3.6608   -6.8829 H   0  0  0  1  0  0  0  0  0  0  0  0
    1.0454    3.2780    3.1538 H   0  0  0  1  0  0  0  0  0  0  0  0
    0.5098    2.8470    1.5471 H   0  0  0  1  0  0  0  0  0  0  0  0
   -3.0702    1.9615    1.8614 H   0  0  0  1  0  0  0  0  0  0  0  0
   -4.8708    3.5498    1.7202 H   0  0  0  1  0  0  0  0  0  0  0  0
   -2.7694    6.2828    3.9065 H   0  0  0  1  0  0  0  0  0  0  0  0
   -0.9095    4.7677    4.1224 H   0  0  0  1  0  0  0  0  0  0  0  0
  1  3  4  0  0  0  0
  1 14  4  0  0  0  0
  1 21  1  0  0  0  0
  2 14  4  0  0  0  0
  2 15  4  0  0  0  0
  2 30  1  0  0  0  0
  3 16  4  0  0  0  0
  4  5  4  0  0  0  0
  4  7  4  0  0  0  0
  4 17  1  0  0  0  0
  5  9  4  0  0  0  0
  5 31  1  0  0  0  0
  6  7  4  0  0  0  0
  6  8  4  0  0  0  0
  6 32  1  0  0  0  0
  7 33  1  0  0  0  0
  8  9  4  0  0  0  0
  8 20  1  0  0  0  0
  9 34  1  0  0  0  0
 10 11  1  0  0  0  0
 10 21  1  0  0  0  0
 10 24  1  0  0  0  0
 10 35  1  0  0  0  0
 11 12  1  0  0  0  0
 11 36  1  0  0  0  0
 11 37  1  0  0  0  0
 12 23  1  0  0  0  0
 12 38  1  0  0  0  0
 12 39  1  0  0  0  0
 13 23  1  0  0  0  0
 13 25  4  0  0  0  0
 13 29  4  0  0  0  0
 15 16  4  0  0  0  0
 15 18  4  0  0  0  0
 16 17  4  0  0  0  0
 17 19  4  0  0  0  0
 18 19  4  0  0  0  0
 20 22  1  0  0  0  0
 21 40  1  0  0  0  0
 22 41  1  0  0  0  0
 22 42  1  0  0  0  0
 22 43  1  0  0  0  0
 23 24  1  0  0  0  0
 24 44  1  0  0  0  0
 24 45  1  0  0  0  0
 25 26  4  0  0  0  0
 25 46  1  0  0  0  0
 26 27  4  0  0  0  0
 26 47  1  0  0  0  0
 27 28  4  0  0  0  0
 28 29  4  0  0  0  0
 28 48  1  0  0  0  0
 29 49  1  0  0  0  0
M  END
> <ConfClashScore>
0 

> <ConfOneFourInteractionScore>
-0.986948 

> <ConfScore>
0.103032 

> <ConfScorePBest>
0.00224709 

> <ConfTolerance>
1.0913 

> <HETNAM>
     OWQ A 303  OWQ                                                       

> <pdb_OW>
Q_303 -16.5129 3.80749 7.62812 0.15963 1.39178 -0.28144 -3.20151 0 0 0 -1.30514 0 0 0 0 0 0 0 0 -8.31393

$$$$
6yky_lig_1.pdb
 OpenBabel04162415593D

 49 53  0  0  0  0  0  0  0  0999 V2000
    1.1009   -1.3843   -2.7236 C   0  0  0  1  0  0  0  0  0  0  0  0
    3.1030   -2.3739   -3.2907 C   0  0  0  1  0  0  0  0  0  0  0  0
    1.4386   -1.2613   -1.4580 N   0  0  0  1  0  0  0  0  0  0  0  0
    2.9092   -1.2733    1.4854 C   0  0  0  1  0  0  0  0  0  0  0  0
    3.1236    0.0546    1.8030 C   0  0  0  1  0  0  0  0  0  0  0  0
    2.2084   -1.7013    3.7377 C   0  0  0  1  0  0  0  0  0  0  0  0
    2.4535   -2.1532    2.4547 C   0  0  0  1  0  0  0  0  0  0  0  0
    2.4234   -0.3695    4.0565 C   0  0  0  1  0  0  0  0  0  0  0  0
    2.8777    0.5077    3.0898 C   0  0  0  1  0  0  0  0  0  0  0  0
   -1.0997   -0.4302   -2.1765 C   0  0  0  1  0  0  0  0  0  0  0  0
   -2.0928   -1.5256   -1.7570 C   0  0  0  1  0  0  0  0  0  0  0  0
   -3.2984   -0.6927   -1.2948 C   0  0  0  1  0  0  0  0  0  0  0  0
   -3.5491    1.8705   -1.2194 C   0  0  0  1  0  0  0  0  0  0  0  0
    1.9059   -1.9249   -3.6215 N   0  0  0  1  0  0  0  0  0  0  0  0
    3.5139   -2.2681   -1.9571 C   0  0  0  1  0  0  0  0  0  0  0  0
    2.6227   -1.6846   -1.0332 C   0  0  0  1  0  0  0  0  0  0  0  0
    3.2634   -1.7059    0.1747 N   0  0  0  1  0  0  0  0  0  0  0  0
    4.6344   -2.6117   -1.2852 N   0  0  0  1  0  0  0  0  0  0  0  0
    4.5173   -2.2965   -0.0424 N   0  0  0  1  0  0  0  0  0  0  0  0
    2.1425   -0.0885    5.3511 O   0  0  0  1  0  0  0  0  0  0  0  0
   -0.1242   -0.9381   -3.1250 N   0  0  0  1  0  0  0  0  0  0  0  0
    2.5634    1.1902    5.8513 C   0  0  0  1  0  0  0  0  0  0  0  0
   -3.0027    0.7042   -1.7334 N   0  0  0  1  0  0  0  0  0  0  0  0
   -2.0139    0.5959   -2.8221 C   0  0  0  1  0  0  0  0  0  0  0  0
   -3.3186    3.0874   -1.8339 C   0  0  0  1  0  0  0  0  0  0  0  0
   -3.8857    4.2244   -1.2905 C   0  0  0  1  0  0  0  0  0  0  0  0
   -4.6483    4.2127   -0.1930 N   0  0  0  1  0  0  0  0  0  0  0  0
   -4.8599    3.0267    0.3951 C   0  0  0  1  0  0  0  0  0  0  0  0
   -4.3343    1.8392   -0.0834 C   0  0  0  1  0  0  0  0  0  0  0  0
    3.7275   -2.7974   -4.0065 H   0  0  0  1  0  0  0  0  0  0  0  0
    3.4693    0.7139    1.0767 H   0  0  0  1  0  0  0  0  0  0  0  0
    1.8627   -2.3606    4.4640 H   0  0  0  1  0  0  0  0  0  0  0  0
    2.2961   -3.1532    2.2166 H   0  0  0  1  0  0  0  0  0  0  0  0
    3.0352    1.5077    3.3279 H   0  0  0  1  0  0  0  0  0  0  0  0
   -0.5929   -0.0197   -1.3282 H   0  0  0  1  0  0  0  0  0  0  0  0
   -1.7018   -2.1216   -0.9590 H   0  0  0  1  0  0  0  0  0  0  0  0
   -2.3485   -2.1569   -2.5822 H   0  0  0  1  0  0  0  0  0  0  0  0
   -4.1973   -1.0474   -1.7542 H   0  0  0  1  0  0  0  0  0  0  0  0
   -3.3993   -0.7379   -0.2305 H   0  0  0  1  0  0  0  0  0  0  0  0
   -0.3519   -0.9609   -4.0779 H   0  0  0  1  0  0  0  0  0  0  0  0
    2.1239    1.9669    5.2611 H   0  0  0  1  0  0  0  0  0  0  0  0
    3.6297    1.2609    5.7965 H   0  0  0  1  0  0  0  0  0  0  0  0
    2.2503    1.2954    6.8691 H   0  0  0  1  0  0  0  0  0  0  0  0
   -1.5139    1.5232   -3.0089 H   0  0  0  1  0  0  0  0  0  0  0  0
   -2.4495    0.2356   -3.7306 H   0  0  0  1  0  0  0  0  0  0  0  0
   -2.7296    3.1460   -2.6890 H   0  0  0  1  0  0  0  0  0  0  0  0
   -3.7100    5.1359   -1.7595 H   0  0  0  1  0  0  0  0  0  0  0  0
   -5.4476    2.9975    1.2526 H   0  0  0  1  0  0  0  0  0  0  0  0
   -4.5268    0.9404    0.4030 H   0  0  0  1  0  0  0  0  0  0  0  0
  1  3  4  0  0  0  0
  1 14  4  0  0  0  0
  1 21  1  0  0  0  0
  2 14  4  0  0  0  0
  2 15  4  0  0  0  0
  2 30  1  0  0  0  0
  3 16  4  0  0  0  0
  4  5  4  0  0  0  0
  4  7  4  0  0  0  0
  4 17  1  0  0  0  0
  5  9  4  0  0  0  0
  5 31  1  0  0  0  0
  6  7  4  0  0  0  0
  6  8  4  0  0  0  0
  6 32  1  0  0  0  0
  7 33  1  0  0  0  0
  8  9  4  0  0  0  0
  8 20  1  0  0  0  0
  9 34  1  0  0  0  0
 10 11  1  0  0  0  0
 10 21  1  0  0  0  0
 10 24  1  0  0  0  0
 10 35  1  0  0  0  0
 11 12  1  0  0  0  0
 11 36  1  0  0  0  0
 11 37  1  0  0  0  0
 12 23  1  0  0  0  0
 12 38  1  0  0  0  0
 12 39  1  0  0  0  0
 13 23  1  0  0  0  0
 13 25  4  0  0  0  0
 13 29  4  0  0  0  0
 15 16  4  0  0  0  0
 15 18  4  0  0  0  0
 16 17  4  0  0  0  0
 17 19  4  0  0  0  0
 18 19  4  0  0  0  0
 20 22  1  0  0  0  0
 21 40  1  0  0  0  0
 22 41  1  0  0  0  0
 22 42  1  0  0  0  0
 22 43  1  0  0  0  0
 23 24  1  0  0  0  0
 24 44  1  0  0  0  0
 24 45  1  0  0  0  0
 25 26  4  0  0  0  0
 25 46  1  0  0  0  0
 26 27  4  0  0  0  0
 26 47  1  0  0  0  0
 27 28  4  0  0  0  0
 28 29  4  0  0  0  0
 28 48  1  0  0  0  0
 29 49  1  0  0  0  0
M  END
> <ConfClashScore>
0 

> <ConfOneFourInteractionScore>
-0.991755 

> <ConfScore>
0.103216 

> <ConfScorePBest>
0.00223376 

> <ConfTolerance>
0.524247 

> <HETNAM>
     OWQ A 303  OWQ                                                       

> <pdb_OW>
Q_303 -16.5129 3.80749 7.62812 0.15963 1.39178 -0.28144 -3.20151 0 0 0 -1.30514 0 0 0 0 0 0 0 0 -8.31393

$$$$
6yky_lig_1.pdb
 OpenBabel04162415593D

 49 53  0  0  0  0  0  0  0  0999 V2000
    1.8965   -2.7122   -1.3771 C   0  0  0  1  0  0  0  0  0  0  0  0
    3.4730   -2.4699   -3.0400 C   0  0  0  1  0  0  0  0  0  0  0  0
    1.7637   -1.4133   -1.2154 N   0  0  0  1  0  0  0  0  0  0  0  0
    1.8863    1.8000   -1.2917 C   0  0  0  1  0  0  0  0  0  0  0  0
    2.6026    2.7410   -0.5764 C   0  0  0  1  0  0  0  0  0  0  0  0
   -0.1614    2.6977   -0.4267 C   0  0  0  1  0  0  0  0  0  0  0  0
    0.5025    1.7766   -1.2147 C   0  0  0  1  0  0  0  0  0  0  0  0
    0.5569    3.6416    0.2909 C   0  0  0  1  0  0  0  0  0  0  0  0
    1.9367    3.6648    0.2140 C   0  0  0  1  0  0  0  0  0  0  0  0
    0.2500   -3.0133    0.4348 C   0  0  0  1  0  0  0  0  0  0  0  0
   -0.7989   -4.0566    0.9097 C   0  0  0  1  0  0  0  0  0  0  0  0
   -2.0434   -3.2790    1.3867 C   0  0  0  1  0  0  0  0  0  0  0  0
   -2.6495   -0.8027    1.0482 C   0  0  0  1  0  0  0  0  0  0  0  0
    2.7266   -3.2339   -2.2633 N   0  0  0  1  0  0  0  0  0  0  0  0
    3.3718   -1.0801   -2.9103 C   0  0  0  1  0  0  0  0  0  0  0  0
    2.4734   -0.5675   -1.9521 C   0  0  0  1  0  0  0  0  0  0  0  0
    2.5714    0.7941   -2.0328 N   0  0  0  1  0  0  0  0  0  0  0  0
    3.9648   -0.0303   -3.5196 N   0  0  0  1  0  0  0  0  0  0  0  0
    3.5186    1.0734   -3.0293 N   0  0  0  1  0  0  0  0  0  0  0  0
   -0.1981    4.4846    1.0286 O   0  0  0  1  0  0  0  0  0  0  0  0
    1.1408   -3.5636   -0.5920 N   0  0  0  1  0  0  0  0  0  0  0  0
    0.4376    5.3633    1.9700 C   0  0  0  1  0  0  0  0  0  0  0  0
   -1.8433   -1.9332    0.7786 N   0  0  0  1  0  0  0  0  0  0  0  0
   -0.6934   -1.9393   -0.1404 C   0  0  0  1  0  0  0  0  0  0  0  0
   -2.5826   -0.1652    2.2733 C   0  0  0  1  0  0  0  0  0  0  0  0
   -3.3849    0.9382    2.4931 C   0  0  0  1  0  0  0  0  0  0  0  0
   -4.2310    1.4251    1.5803 N   0  0  0  1  0  0  0  0  0  0  0  0
   -4.2888    0.7947    0.3985 C   0  0  0  1  0  0  0  0  0  0  0  0
   -3.5189   -0.3139    0.0927 C   0  0  0  1  0  0  0  0  0  0  0  0
    4.1226   -2.8924   -3.7337 H   0  0  0  1  0  0  0  0  0  0  0  0
    3.6410    2.7559   -0.6310 H   0  0  0  1  0  0  0  0  0  0  0  0
   -1.1998    2.6828   -0.3721 H   0  0  0  1  0  0  0  0  0  0  0  0
   -0.0362    1.0659   -1.7499 H   0  0  0  1  0  0  0  0  0  0  0  0
    2.4754    4.3754    0.7491 H   0  0  0  1  0  0  0  0  0  0  0  0
    0.8332   -2.6363    1.2488 H   0  0  0  1  0  0  0  0  0  0  0  0
   -0.3990   -4.6357    1.7157 H   0  0  0  1  0  0  0  0  0  0  0  0
   -1.0615   -4.7050    0.1000 H   0  0  0  1  0  0  0  0  0  0  0  0
   -2.0745   -3.2188    2.4545 H   0  0  0  1  0  0  0  0  0  0  0  0
   -2.9431   -3.7341    1.0283 H   0  0  0  1  0  0  0  0  0  0  0  0
    1.2004   -4.5332   -0.7215 H   0  0  0  1  0  0  0  0  0  0  0  0
    0.9406    6.1473    1.4433 H   0  0  0  1  0  0  0  0  0  0  0  0
    1.1473    4.8111    2.5499 H   0  0  0  1  0  0  0  0  0  0  0  0
   -0.3013    5.7863    2.6180 H   0  0  0  1  0  0  0  0  0  0  0  0
   -1.0022   -2.1981   -1.1317 H   0  0  0  1  0  0  0  0  0  0  0  0
   -0.2144   -0.9825   -0.1540 H   0  0  0  1  0  0  0  0  0  0  0  0
   -1.9405   -0.5097    3.0153 H   0  0  0  1  0  0  0  0  0  0  0  0
   -3.3274    1.4141    3.4160 H   0  0  0  1  0  0  0  0  0  0  0  0
   -4.9441    1.1564   -0.3236 H   0  0  0  1  0  0  0  0  0  0  0  0
   -3.5936   -0.7703   -0.8388 H   0  0  0  1  0  0  0  0  0  0  0  0
  1  3  4  0  0  0  0
  1 14  4  0  0  0  0
  1 21  1  0  0  0  0
  2 14  4  0  0  0  0
  2 15  4  0  0  0  0
  2 30  1  0  0  0  0
  3 16  4  0  0  0  0
  4  5  4  0  0  0  0
  4  7  4  0  0  0  0
  4 17  1  0  0  0  0
  5  9  4  0  0  0  0
  5 31  1  0  0  0  0
  6  7  4  0  0  0  0
  6  8  4  0  0  0  0
  6 32  1  0  0  0  0
  7 33  1  0  0  0  0
  8  9  4  0  0  0  0
  8 20  1  0  0  0  0
  9 34  1  0  0  0  0
 10 11  1  0  0  0  0
 10 21  1  0  0  0  0
 10 24  1  0  0  0  0
 10 35  1  0  0  0  0
 11 12  1  0  0  0  0
 11 36  1  0  0  0  0
 11 37  1  0  0  0  0
 12 23  1  0  0  0  0
 12 38  1  0  0  0  0
 12 39  1  0  0  0  0
 13 23  1  0  0  0  0
 13 25  4  0  0  0  0
 13 29  4  0  0  0  0
 15 16  4  0  0  0  0
 15 18  4  0  0  0  0
 16 17  4  0  0  0  0
 17 19  4  0  0  0  0
 18 19  4  0  0  0  0
 20 22  1  0  0  0  0
 21 40  1  0  0  0  0
 22 41  1  0  0  0  0
 22 42  1  0  0  0  0
 22 43  1  0  0  0  0
 23 24  1  0  0  0  0
 24 44  1  0  0  0  0
 24 45  1  0  0  0  0
 25 26  4  0  0  0  0
 25 46  1  0  0  0  0
 26 27  4  0  0  0  0
 26 47  1  0  0  0  0
 27 28  4  0  0  0  0
 28 29  4  0  0  0  0
 28 48  1  0  0  0  0
 29 49  1  0  0  0  0
M  END
> <ConfClashScore>
0 

> <ConfOneFourInteractionScore>
-0.987833 

> <ConfScore>
0.103882 

> <ConfScorePBest>
0.00222043 

> <ConfTolerance>
0.425504 

> <HETNAM>
     OWQ A 303  OWQ                                                       

> <pdb_OW>
Q_303 -16.5129 3.80749 7.62812 0.15963 1.39178 -0.28144 -3.20151 0 0 0 -1.30514 0 0 0 0 0 0 0 0 -8.31393

$$$$
6yky_lig_1.pdb
 OpenBabel04162415593D

 49 53  0  0  0  0  0  0  0  0999 V2000
    1.7879   -0.4911   -2.6283 C   0  0  0  1  0  0  0  0  0  0  0  0
    3.1521   -2.1579   -3.4470 C   0  0  0  1  0  0  0  0  0  0  0  0
    1.6053   -1.1066   -1.4800 N   0  0  0  1  0  0  0  0  0  0  0  0
    1.6888   -3.0469    1.1322 C   0  0  0  1  0  0  0  0  0  0  0  0
    0.3564   -3.3116    1.3866 C   0  0  0  1  0  0  0  0  0  0  0  0
    1.9993   -2.3993    3.4194 C   0  0  0  1  0  0  0  0  0  0  0  0
    2.5109   -2.5875    2.1493 C   0  0  0  1  0  0  0  0  0  0  0  0
    0.6629   -2.6647    3.6748 C   0  0  0  1  0  0  0  0  0  0  0  0
   -0.1566   -3.1227    2.6604 C   0  0  0  1  0  0  0  0  0  0  0  0
    0.2631    1.2396   -1.7221 C   0  0  0  1  0  0  0  0  0  0  0  0
   -0.7858    0.1964   -1.2468 C   0  0  0  1  0  0  0  0  0  0  0  0
   -2.0302    0.9741   -0.7698 C   0  0  0  1  0  0  0  0  0  0  0  0
   -2.6420    3.4584   -1.1066 C   0  0  0  1  0  0  0  0  0  0  0  0
    2.5395   -0.9968   -3.5906 N   0  0  0  1  0  0  0  0  0  0  0  0
    2.9925   -2.8561   -2.2446 C   0  0  0  1  0  0  0  0  0  0  0  0
    2.1817   -2.2791   -1.2457 C   0  0  0  1  0  0  0  0  0  0  0  0
    2.1967   -3.1540   -0.1948 N   0  0  0  1  0  0  0  0  0  0  0  0
    3.4558   -4.0322   -1.7681 N   0  0  0  1  0  0  0  0  0  0  0  0
    3.0091   -4.2320   -0.5772 N   0  0  0  1  0  0  0  0  0  0  0  0
    0.2257   -2.5626    4.9524 O   0  0  0  1  0  0  0  0  0  0  0  0
    1.1483    0.6925   -2.7427 N   0  0  0  1  0  0  0  0  0  0  0  0
    1.1182   -1.9648    5.9056 C   0  0  0  1  0  0  0  0  0  0  0  0
   -1.8302    2.3198   -1.3781 N   0  0  0  1  0  0  0  0  0  0  0  0
   -0.6804    2.3136   -2.2973 C   0  0  0  1  0  0  0  0  0  0  0  0
   -3.7357    3.3602   -0.2664 C   0  0  0  1  0  0  0  0  0  0  0  0
   -4.4938    4.4905   -0.0273 C   0  0  0  1  0  0  0  0  0  0  0  0
   -4.2277    5.6823   -0.5703 N   0  0  0  1  0  0  0  0  0  0  0  0
   -3.1670    5.7622   -1.3864 C   0  0  0  1  0  0  0  0  0  0  0  0
   -2.3521    4.6822   -1.6777 C   0  0  0  1  0  0  0  0  0  0  0  0
    3.7410   -2.5455   -4.2116 H   0  0  0  1  0  0  0  0  0  0  0  0
   -0.2613   -3.6524    0.6224 H   0  0  0  1  0  0  0  0  0  0  0  0
    2.6169   -2.0585    4.1836 H   0  0  0  1  0  0  0  0  0  0  0  0
    3.5126   -2.3845    1.9568 H   0  0  0  1  0  0  0  0  0  0  0  0
   -1.1583   -3.3257    2.8529 H   0  0  0  1  0  0  0  0  0  0  0  0
    0.8464    1.6168   -0.9082 H   0  0  0  1  0  0  0  0  0  0  0  0
   -0.3857   -0.3826   -0.4408 H   0  0  0  1  0  0  0  0  0  0  0  0
   -1.0485   -0.4521   -2.0564 H   0  0  0  1  0  0  0  0  0  0  0  0
   -2.0611    1.0345    0.2981 H   0  0  0  1  0  0  0  0  0  0  0  0
   -2.9299    0.5190   -1.1280 H   0  0  0  1  0  0  0  0  0  0  0  0
    1.2875    1.2146   -3.5603 H   0  0  0  1  0  0  0  0  0  0  0  0
    2.0306   -2.5227    5.9392 H   0  0  0  1  0  0  0  0  0  0  0  0
    0.6616   -1.9697    6.8732 H   0  0  0  1  0  0  0  0  0  0  0  0
    1.3274   -0.9566    5.6145 H   0  0  0  1  0  0  0  0  0  0  0  0
   -0.9894    2.0546   -3.2884 H   0  0  0  1  0  0  0  0  0  0  0  0
   -0.2014    3.2703   -2.3110 H   0  0  0  1  0  0  0  0  0  0  0  0
   -3.9830    2.4527    0.1773 H   0  0  0  1  0  0  0  0  0  0  0  0
   -5.3135    4.4096    0.6078 H   0  0  0  1  0  0  0  0  0  0  0  0
   -2.9459    6.6804   -1.8218 H   0  0  0  1  0  0  0  0  0  0  0  0
   -1.5369    4.7900   -2.3144 H   0  0  0  1  0  0  0  0  0  0  0  0
  1  3  4  0  0  0  0
  1 14  4  0  0  0  0
  1 21  1  0  0  0  0
  2 14  4  0  0  0  0
  2 15  4  0  0  0  0
  2 30  1  0  0  0  0
  3 16  4  0  0  0  0
  4  5  4  0  0  0  0
  4  7  4  0  0  0  0
  4 17  1  0  0  0  0
  5  9  4  0  0  0  0
  5 31  1  0  0  0  0
  6  7  4  0  0  0  0
  6  8  4  0  0  0  0
  6 32  1  0  0  0  0
  7 33  1  0  0  0  0
  8  9  4  0  0  0  0
  8 20  1  0  0  0  0
  9 34  1  0  0  0  0
 10 11  1  0  0  0  0
 10 21  1  0  0  0  0
 10 24  1  0  0  0  0
 10 35  1  0  0  0  0
 11 12  1  0  0  0  0
 11 36  1  0  0  0  0
 11 37  1  0  0  0  0
 12 23  1  0  0  0  0
 12 38  1  0  0  0  0
 12 39  1  0  0  0  0
 13 23  1  0  0  0  0
 13 25  4  0  0  0  0
 13 29  4  0  0  0  0
 15 16  4  0  0  0  0
 15 18  4  0  0  0  0
 16 17  4  0  0  0  0
 17 19  4  0  0  0  0
 18 19  4  0  0  0  0
 20 22  1  0  0  0  0
 21 40  1  0  0  0  0
 22 41  1  0  0  0  0
 22 42  1  0  0  0  0
 22 43  1  0  0  0  0
 23 24  1  0  0  0  0
 24 44  1  0  0  0  0
 24 45  1  0  0  0  0
 25 26  4  0  0  0  0
 25 46  1  0  0  0  0
 26 27  4  0  0  0  0
 26 47  1  0  0  0  0
 27 28  4  0  0  0  0
 28 29  4  0  0  0  0
 28 48  1  0  0  0  0
 29 49  1  0  0  0  0
M  END
> <ConfClashScore>
0 

> <ConfOneFourInteractionScore>
-0.987833 

> <ConfScore>
0.104166 

> <ConfScorePBest>
0.0022071 

> <ConfTolerance>
0.646134 

> <HETNAM>
     OWQ A 303  OWQ                                                       

> <pdb_OW>
Q_303 -16.5129 3.80749 7.62812 0.15963 1.39178 -0.28144 -3.20151 0 0 0 -1.30514 0 0 0 0 0 0 0 0 -8.31393

$$$$
6yky_lig_1.pdb
 OpenBabel04162415593D

 49 53  0  0  0  0  0  0  0  0999 V2000
    0.4822   -1.3757   -2.4497 C   0  0  0  1  0  0  0  0  0  0  0  0
    2.1656   -2.3843   -3.6574 C   0  0  0  1  0  0  0  0  0  0  0  0
    1.2703   -1.1233   -1.4268 N   0  0  0  1  0  0  0  0  0  0  0  0
    3.7048   -0.8096    0.7128 C   0  0  0  1  0  0  0  0  0  0  0  0
    3.8275    0.5586    0.8651 C   0  0  0  1  0  0  0  0  0  0  0  0
    3.9648   -1.0987    3.0784 C   0  0  0  1  0  0  0  0  0  0  0  0
    3.7762   -1.6398    1.8206 C   0  0  0  1  0  0  0  0  0  0  0  0
    4.0878    0.2735    3.2314 C   0  0  0  1  0  0  0  0  0  0  0  0
    4.0166    1.1010    2.1266 C   0  0  0  1  0  0  0  0  0  0  0  0
   -1.4231   -0.4182   -1.2044 C   0  0  0  1  0  0  0  0  0  0  0  0
   -2.4082   -1.4110   -0.5481 C   0  0  0  1  0  0  0  0  0  0  0  0
   -3.6213   -0.6272   -0.1146 C   0  0  0  1  0  0  0  0  0  0  0  0
   -4.3549    1.7151   -0.8898 C   0  0  0  1  0  0  0  0  0  0  0  0
    0.9110   -1.9892   -3.5388 N   0  0  0  1  0  0  0  0  0  0  0  0
    3.0480   -2.1412   -2.5987 C   0  0  0  1  0  0  0  0  0  0  0  0
    2.5474   -1.4838   -1.4562 C   0  0  0  1  0  0  0  0  0  0  0  0
    3.6006   -1.3757   -0.5907 N   0  0  0  1  0  0  0  0  0  0  0  0
    4.3565   -2.3990   -2.3832 N   0  0  0  1  0  0  0  0  0  0  0  0
    4.7060   -1.9649   -1.2227 N   0  0  0  1  0  0  0  0  0  0  0  0
    4.2797    0.9156    4.4082 O   0  0  0  1  0  0  0  0  0  0  0  0
   -0.8067   -0.9962   -2.3859 N   0  0  0  1  0  0  0  0  0  0  0  0
    4.3169    0.1103    5.5967 C   0  0  0  1  0  0  0  0  0  0  0  0
   -3.4256    0.6875   -0.9007 N   0  0  0  1  0  0  0  0  0  0  0  0
   -2.3197    0.7481   -1.5708 C   0  0  0  1  0  0  0  0  0  0  0  0
   -5.5537    1.5741   -0.2155 C   0  0  0  1  0  0  0  0  0  0  0  0
   -6.4504    2.6255   -0.2270 C   0  0  0  1  0  0  0  0  0  0  0  0
   -6.2219    3.7793   -0.8617 N   0  0  0  1  0  0  0  0  0  0  0  0
   -5.0575    3.9006   -1.5150 C   0  0  0  1  0  0  0  0  0  0  0  0
   -4.1018    2.9004   -1.5522 C   0  0  0  1  0  0  0  0  0  0  0  0
    2.4910   -2.8662   -4.5196 H   0  0  0  1  0  0  0  0  0  0  0  0
    3.7780    1.1810    0.0334 H   0  0  0  1  0  0  0  0  0  0  0  0
    4.0143   -1.7211    3.9101 H   0  0  0  1  0  0  0  0  0  0  0  0
    3.6878   -2.6696    1.7053 H   0  0  0  1  0  0  0  0  0  0  0  0
    4.1050    2.1309    2.2419 H   0  0  0  1  0  0  0  0  0  0  0  0
   -0.6618   -0.1178   -0.5151 H   0  0  0  1  0  0  0  0  0  0  0  0
   -1.9494   -1.8730    0.3011 H   0  0  0  1  0  0  0  0  0  0  0  0
   -2.6927   -2.1633   -1.2537 H   0  0  0  1  0  0  0  0  0  0  0  0
   -3.6206   -0.4562    0.9417 H   0  0  0  1  0  0  0  0  0  0  0  0
   -4.5280   -1.1209   -0.3958 H   0  0  0  1  0  0  0  0  0  0  0  0
   -1.3628   -1.1168   -3.1838 H   0  0  0  1  0  0  0  0  0  0  0  0
    3.9764    0.6880    6.4304 H   0  0  0  1  0  0  0  0  0  0  0  0
    5.3202   -0.2159    5.7750 H   0  0  0  1  0  0  0  0  0  0  0  0
    3.6816   -0.7414    5.4701 H   0  0  0  1  0  0  0  0  0  0  0  0
   -1.8178    1.6652   -1.3429 H   0  0  0  1  0  0  0  0  0  0  0  0
   -2.5380    0.7110   -2.6177 H   0  0  0  1  0  0  0  0  0  0  0  0
   -5.7763    0.6934    0.2908 H   0  0  0  1  0  0  0  0  0  0  0  0
   -7.3489    2.5132    0.2844 H   0  0  0  1  0  0  0  0  0  0  0  0
   -4.8630    4.7897   -2.0183 H   0  0  0  1  0  0  0  0  0  0  0  0
   -3.2100    3.0385   -2.0692 H   0  0  0  1  0  0  0  0  0  0  0  0
  1  3  4  0  0  0  0
  1 14  4  0  0  0  0
  1 21  1  0  0  0  0
  2 14  4  0  0  0  0
  2 15  4  0  0  0  0
  2 30  1  0  0  0  0
  3 16  4  0  0  0  0
  4  5  4  0  0  0  0
  4  7  4  0  0  0  0
  4 17  1  0  0  0  0
  5  9  4  0  0  0  0
  5 31  1  0  0  0  0
  6  7  4  0  0  0  0
  6  8  4  0  0  0  0
  6 32  1  0  0  0  0
  7 33  1  0  0  0  0
  8  9  4  0  0  0  0
  8 20  1  0  0  0  0
  9 34  1  0  0  0  0
 10 11  1  0  0  0  0
 10 21  1  0  0  0  0
 10 24  1  0  0  0  0
 10 35  1  0  0  0  0
 11 12  1  0  0  0  0
 11 36  1  0  0  0  0
 11 37  1  0  0  0  0
 12 23  1  0  0  0  0
 12 38  1  0  0  0  0
 12 39  1  0  0  0  0
 13 23  1  0  0  0  0
 13 25  4  0  0  0  0
 13 29  4  0  0  0  0
 15 16  4  0  0  0  0
 15 18  4  0  0  0  0
 16 17  4  0  0  0  0
 17 19  4  0  0  0  0
 18 19  4  0  0  0  0
 20 22  1  0  0  0  0
 21 40  1  0  0  0  0
 22 41  1  0  0  0  0
 22 42  1  0  0  0  0
 22 43  1  0  0  0  0
 23 24  1  0  0  0  0
 24 44  1  0  0  0  0
 24 45  1  0  0  0  0
 25 26  4  0  0  0  0
 25 46  1  0  0  0  0
 26 27  4  0  0  0  0
 26 47  1  0  0  0  0
 27 28  4  0  0  0  0
 28 29  4  0  0  0  0
 28 48  1  0  0  0  0
 29 49  1  0  0  0  0
M  END
> <ConfClashScore>
0 

> <ConfOneFourInteractionScore>
-0.986948 

> <ConfScore>
0.104317 

> <ConfScorePBest>
0.00219377 

> <ConfTolerance>
0.767744 

> <HETNAM>
     OWQ A 303  OWQ                                                       

> <pdb_OW>
Q_303 -16.5129 3.80749 7.62812 0.15963 1.39178 -0.28144 -3.20151 0 0 0 -1.30514 0 0 0 0 0 0 0 0 -8.31393

$$$$
6yky_lig_1.pdb
 OpenBabel04162415593D

 49 53  0  0  0  0  0  0  0  0999 V2000
    1.9010   -2.8342   -1.1478 C   0  0  0  1  0  0  0  0  0  0  0  0
    3.6318   -2.5992   -2.6506 C   0  0  0  1  0  0  0  0  0  0  0  0
    1.7196   -1.5352   -1.0447 N   0  0  0  1  0  0  0  0  0  0  0  0
    1.7971    1.7140   -1.2443 C   0  0  0  1  0  0  0  0  0  0  0  0
    0.6761    1.4140   -0.4937 C   0  0  0  1  0  0  0  0  0  0  0  0
    1.3577    4.0546   -0.9692 C   0  0  0  1  0  0  0  0  0  0  0  0
    2.1370    3.0362   -1.4847 C   0  0  0  1  0  0  0  0  0  0  0  0
    0.2332    3.7539   -0.2163 C   0  0  0  1  0  0  0  0  0  0  0  0
   -0.1055    2.4354    0.0233 C   0  0  0  1  0  0  0  0  0  0  0  0
    0.1256   -3.1625    0.5233 C   0  0  0  1  0  0  0  0  0  0  0  0
   -0.8671   -4.2583    0.9430 C   0  0  0  1  0  0  0  0  0  0  0  0
   -2.0735   -3.4259    1.4038 C   0  0  0  1  0  0  0  0  0  0  0  0
   -2.3370   -0.8395    1.4875 C   0  0  0  1  0  0  0  0  0  0  0  0
    2.8298   -3.3594   -1.9275 N   0  0  0  1  0  0  0  0  0  0  0  0
    3.4828   -1.2095   -2.5792 C   0  0  0  1  0  0  0  0  0  0  0  0
    2.4790   -0.6929   -1.7345 C   0  0  0  1  0  0  0  0  0  0  0  0
    2.5503    0.6677   -1.8513 N   0  0  0  1  0  0  0  0  0  0  0  0
    4.1080   -0.1627   -3.1610 N   0  0  0  1  0  0  0  0  0  0  0  0
    3.5865    0.9426   -2.7562 N   0  0  0  1  0  0  0  0  0  0  0  0
   -0.6063    4.6629    0.3339 O   0  0  0  1  0  0  0  0  0  0  0  0
    1.1020   -3.6704   -0.4242 N   0  0  0  1  0  0  0  0  0  0  0  0
   -0.2165    6.0433    0.2629 C   0  0  0  1  0  0  0  0  0  0  0  0
   -1.7785   -2.0291    0.9643 N   0  0  0  1  0  0  0  0  0  0  0  0
   -0.7889   -2.1375   -0.1236 C   0  0  0  1  0  0  0  0  0  0  0  0
   -3.4112   -0.2317    0.8642 C   0  0  0  1  0  0  0  0  0  0  0  0
   -3.9284    0.9271    1.4113 C   0  0  0  1  0  0  0  0  0  0  0  0
   -3.4415    1.4988    2.5169 N   0  0  0  1  0  0  0  0  0  0  0  0
   -2.3973    0.9013    3.1083 C   0  0  0  1  0  0  0  0  0  0  0  0
   -1.8200   -0.2624    2.6309 C   0  0  0  1  0  0  0  0  0  0  0  0
    4.3591   -3.0244   -3.2604 H   0  0  0  1  0  0  0  0  0  0  0  0
    0.4189    0.4219   -0.3167 H   0  0  0  1  0  0  0  0  0  0  0  0
    1.6148    5.0466   -1.1461 H   0  0  0  1  0  0  0  0  0  0  0  0
    2.9783    3.2618   -2.0529 H   0  0  0  1  0  0  0  0  0  0  0  0
   -0.9468    2.2098    0.5914 H   0  0  0  1  0  0  0  0  0  0  0  0
    0.6316   -2.7511    1.3716 H   0  0  0  1  0  0  0  0  0  0  0  0
   -0.4761   -4.8535    1.7416 H   0  0  0  1  0  0  0  0  0  0  0  0
   -1.1217   -4.8904    0.1180 H   0  0  0  1  0  0  0  0  0  0  0  0
   -2.9719   -3.7816    0.9440 H   0  0  0  1  0  0  0  0  0  0  0  0
   -2.1751   -3.4704    2.4680 H   0  0  0  1  0  0  0  0  0  0  0  0
    1.1893   -4.6388   -0.5470 H   0  0  0  1  0  0  0  0  0  0  0  0
   -0.9403    6.6454    0.7713 H   0  0  0  1  0  0  0  0  0  0  0  0
   -0.1585    6.3450   -0.7620 H   0  0  0  1  0  0  0  0  0  0  0  0
    0.7397    6.1680    0.7266 H   0  0  0  1  0  0  0  0  0  0  0  0
   -0.2894   -1.2100   -0.3108 H   0  0  0  1  0  0  0  0  0  0  0  0
   -1.2237   -2.4988   -1.0321 H   0  0  0  1  0  0  0  0  0  0  0  0
   -3.8221   -0.6389    0.0000 H   0  0  0  1  0  0  0  0  0  0  0  0
   -4.7379    1.3774    0.9385 H   0  0  0  1  0  0  0  0  0  0  0  0
   -2.0018    1.3332    3.9678 H   0  0  0  1  0  0  0  0  0  0  0  0
   -1.0122   -0.6940    3.1236 H   0  0  0  1  0  0  0  0  0  0  0  0
  1  3  4  0  0  0  0
  1 14  4  0  0  0  0
  1 21  1  0  0  0  0
  2 14  4  0  0  0  0
  2 15  4  0  0  0  0
  2 30  1  0  0  0  0
  3 16  4  0  0  0  0
  4  5  4  0  0  0  0
  4  7  4  0  0  0  0
  4 17  1  0  0  0  0
  5  9  4  0  0  0  0
  5 31  1  0  0  0  0
  6  7  4  0  0  0  0
  6  8  4  0  0  0  0
  6 32  1  0  0  0  0
  7 33  1  0  0  0  0
  8  9  4  0  0  0  0
  8 20  1  0  0  0  0
  9 34  1  0  0  0  0
 10 11  1  0  0  0  0
 10 21  1  0  0  0  0
 10 24  1  0  0  0  0
 10 35  1  0  0  0  0
 11 12  1  0  0  0  0
 11 36  1  0  0  0  0
 11 37  1  0  0  0  0
 12 23  1  0  0  0  0
 12 38  1  0  0  0  0
 12 39  1  0  0  0  0
 13 23  1  0  0  0  0
 13 25  4  0  0  0  0
 13 29  4  0  0  0  0
 15 16  4  0  0  0  0
 15 18  4  0  0  0  0
 16 17  4  0  0  0  0
 17 19  4  0  0  0  0
 18 19  4  0  0  0  0
 20 22  1  0  0  0  0
 21 40  1  0  0  0  0
 22 41  1  0  0  0  0
 22 42  1  0  0  0  0
 22 43  1  0  0  0  0
 23 24  1  0  0  0  0
 24 44  1  0  0  0  0
 24 45  1  0  0  0  0
 25 26  4  0  0  0  0
 25 46  1  0  0  0  0
 26 27  4  0  0  0  0
 26 47  1  0  0  0  0
 27 28  4  0  0  0  0
 28 29  4  0  0  0  0
 28 48  1  0  0  0  0
 29 49  1  0  0  0  0
M  END
> <ConfClashScore>
0 

> <ConfOneFourInteractionScore>
-0.987833 

> <ConfScore>
0.104747 

> <ConfScorePBest>
0.00218045 

> <ConfTolerance>
0.426832 

> <HETNAM>
     OWQ A 303  OWQ                                                       

> <pdb_OW>
Q_303 -16.5129 3.80749 7.62812 0.15963 1.39178 -0.28144 -3.20151 0 0 0 -1.30514 0 0 0 0 0 0 0 0 -8.31393

$$$$
6yky_lig_1.pdb
 OpenBabel04162415593D

 49 53  0  0  0  0  0  0  0  0999 V2000
    1.6743   -2.8283   -1.3871 C   0  0  0  1  0  0  0  0  0  0  0  0
    3.2498   -2.6502   -3.0591 C   0  0  0  1  0  0  0  0  0  0  0  0
    1.7481   -1.5503   -1.0836 N   0  0  0  1  0  0  0  0  0  0  0  0
    2.4324    1.6608   -0.8665 C   0  0  0  1  0  0  0  0  0  0  0  0
    2.3102    1.4900    0.4995 C   0  0  0  1  0  0  0  0  0  0  0  0
    1.5126    3.8664   -0.6753 C   0  0  0  1  0  0  0  0  0  0  0  0
    2.0305    2.8496   -1.4552 C   0  0  0  1  0  0  0  0  0  0  0  0
    1.3900    3.6952    0.6948 C   0  0  0  1  0  0  0  0  0  0  0  0
    1.7907    2.5098    1.2816 C   0  0  0  1  0  0  0  0  0  0  0  0
   -0.0664   -3.0389    0.3673 C   0  0  0  1  0  0  0  0  0  0  0  0
   -1.1198   -4.0802    0.8365 C   0  0  0  1  0  0  0  0  0  0  0  0
   -2.3559   -3.2994    1.3301 C   0  0  0  1  0  0  0  0  0  0  0  0
   -2.9515   -0.8078    1.0258 C   0  0  0  1  0  0  0  0  0  0  0  0
    2.4022   -3.3708   -2.3474 N   0  0  0  1  0  0  0  0  0  0  0  0
    3.3686   -1.2842   -2.7786 C   0  0  0  1  0  0  0  0  0  0  0  0
    2.5727   -0.7480   -1.7456 C   0  0  0  1  0  0  0  0  0  0  0  0
    2.8815    0.5827   -1.6829 N   0  0  0  1  0  0  0  0  0  0  0  0
    4.1113   -0.2777   -3.2887 N   0  0  0  1  0  0  0  0  0  0  0  0
    3.8490    0.8208   -2.6706 N   0  0  0  1  0  0  0  0  0  0  0  0
    0.8944    4.6144    1.5570 O   0  0  0  1  0  0  0  0  0  0  0  0
    0.8058   -3.5783   -0.6614 N   0  0  0  1  0  0  0  0  0  0  0  0
    0.5456    5.8990    1.0177 C   0  0  0  1  0  0  0  0  0  0  0  0
   -2.1499   -1.9481    0.7364 N   0  0  0  1  0  0  0  0  0  0  0  0
   -1.0056   -1.9516   -0.1897 C   0  0  0  1  0  0  0  0  0  0  0  0
   -3.5491   -0.0894    0.0068 C   0  0  0  1  0  0  0  0  0  0  0  0
   -4.3223    1.0087    0.3326 C   0  0  0  1  0  0  0  0  0  0  0  0
   -4.5233    1.4194    1.5884 N   0  0  0  1  0  0  0  0  0  0  0  0
   -3.9345    0.7161    2.5662 C   0  0  0  1  0  0  0  0  0  0  0  0
   -3.1475   -0.3975    2.3301 C   0  0  0  1  0  0  0  0  0  0  0  0
    3.8171   -3.0887   -3.8124 H   0  0  0  1  0  0  0  0  0  0  0  0
    2.6080    0.5965    0.9406 H   0  0  0  1  0  0  0  0  0  0  0  0
    1.2148    4.7599   -1.1164 H   0  0  0  1  0  0  0  0  0  0  0  0
    2.1188    2.9766   -2.4837 H   0  0  0  1  0  0  0  0  0  0  0  0
    1.7025    2.3828    2.3101 H   0  0  0  1  0  0  0  0  0  0  0  0
    0.5244   -2.6754    1.1820 H   0  0  0  1  0  0  0  0  0  0  0  0
   -1.3920   -4.7173    0.0211 H   0  0  0  1  0  0  0  0  0  0  0  0
   -0.7192   -4.6714    1.6333 H   0  0  0  1  0  0  0  0  0  0  0  0
   -2.3800   -3.2514    2.3988 H   0  0  0  1  0  0  0  0  0  0  0  0
   -3.2609   -3.7440    0.9720 H   0  0  0  1  0  0  0  0  0  0  0  0
    0.7650   -4.5406   -0.8423 H   0  0  0  1  0  0  0  0  0  0  0  0
   -0.3287    5.8049    0.4080 H   0  0  0  1  0  0  0  0  0  0  0  0
    1.3558    6.2684    0.4245 H   0  0  0  1  0  0  0  0  0  0  0  0
    0.3497    6.5806    1.8189 H   0  0  0  1  0  0  0  0  0  0  0  0
   -1.3223   -2.1968   -1.1819 H   0  0  0  1  0  0  0  0  0  0  0  0
   -0.5200   -0.9982   -0.1951 H   0  0  0  1  0  0  0  0  0  0  0  0
   -3.4191   -0.3700   -0.9861 H   0  0  0  1  0  0  0  0  0  0  0  0
   -4.7707    1.5428   -0.4390 H   0  0  0  1  0  0  0  0  0  0  0  0
   -4.0759    1.0224    3.5499 H   0  0  0  1  0  0  0  0  0  0  0  0
   -2.7119   -0.9157    3.1197 H   0  0  0  1  0  0  0  0  0  0  0  0
  1  3  4  0  0  0  0
  1 14  4  0  0  0  0
  1 21  1  0  0  0  0
  2 14  4  0  0  0  0
  2 15  4  0  0  0  0
  2 30  1  0  0  0  0
  3 16  4  0  0  0  0
  4  5  4  0  0  0  0
  4  7  4  0  0  0  0
  4 17  1  0  0  0  0
  5  9  4  0  0  0  0
  5 31  1  0  0  0  0
  6  7  4  0  0  0  0
  6  8  4  0  0  0  0
  6 32  1  0  0  0  0
  7 33  1  0  0  0  0
  8  9  4  0  0  0  0
  8 20  1  0  0  0  0
  9 34  1  0  0  0  0
 10 11  1  0  0  0  0
 10 21  1  0  0  0  0
 10 24  1  0  0  0  0
 10 35  1  0  0  0  0
 11 12  1  0  0  0  0
 11 36  1  0  0  0  0
 11 37  1  0  0  0  0
 12 23  1  0  0  0  0
 12 38  1  0  0  0  0
 12 39  1  0  0  0  0
 13 23  1  0  0  0  0
 13 25  4  0  0  0  0
 13 29  4  0  0  0  0
 15 16  4  0  0  0  0
 15 18  4  0  0  0  0
 16 17  4  0  0  0  0
 17 19  4  0  0  0  0
 18 19  4  0  0  0  0
 20 22  1  0  0  0  0
 21 40  1  0  0  0  0
 22 41  1  0  0  0  0
 22 42  1  0  0  0  0
 22 43  1  0  0  0  0
 23 24  1  0  0  0  0
 24 44  1  0  0  0  0
 24 45  1  0  0  0  0
 25 26  4  0  0  0  0
 25 46  1  0  0  0  0
 26 27  4  0  0  0  0
 26 47  1  0  0  0  0
 27 28  4  0  0  0  0
 28 29  4  0  0  0  0
 28 48  1  0  0  0  0
 29 49  1  0  0  0  0
M  END
> <ConfClashScore>
0 

> <ConfOneFourInteractionScore>
-0.987833 

> <ConfScore>
0.105919 

> <ConfScorePBest>
0.00216712 

> <ConfTolerance>
0.495563 

> <HETNAM>
     OWQ A 303  OWQ                                                       

> <pdb_OW>
Q_303 -16.5129 3.80749 7.62812 0.15963 1.39178 -0.28144 -3.20151 0 0 0 -1.30514 0 0 0 0 0 0 0 0 -8.31393

$$$$
6yky_lig_1.pdb
 OpenBabel04162415593D

 49 53  0  0  0  0  0  0  0  0999 V2000
    0.1744   -0.1226    0.6620 C   0  0  0  1  0  0  0  0  0  0  0  0
    1.5914    1.2907    1.8040 C   0  0  0  1  0  0  0  0  0  0  0  0
    1.1197   -0.5198   -0.1623 N   0  0  0  1  0  0  0  0  0  0  0  0
    3.8501   -0.9840   -1.8957 C   0  0  0  1  0  0  0  0  0  0  0  0
    2.8322   -1.2456   -2.7933 C   0  0  0  1  0  0  0  0  0  0  0  0
    5.3509   -2.3178   -3.2057 C   0  0  0  1  0  0  0  0  0  0  0  0
    5.1107   -1.5230   -2.1007 C   0  0  0  1  0  0  0  0  0  0  0  0
    4.3301   -2.5803   -4.1060 C   0  0  0  1  0  0  0  0  0  0  0  0
    3.0733   -2.0427   -3.9014 C   0  0  0  1  0  0  0  0  0  0  0  0
   -2.0942   -0.1372    1.4752 C   0  0  0  1  0  0  0  0  0  0  0  0
   -3.0870   -1.2330    1.8945 C   0  0  0  1  0  0  0  0  0  0  0  0
   -4.2935   -0.4007    2.3553 C   0  0  0  1  0  0  0  0  0  0  0  0
   -4.5551    2.1817    2.4375 C   0  0  0  1  0  0  0  0  0  0  0  0
    0.3966    0.7585    1.6217 N   0  0  0  1  0  0  0  0  0  0  0  0
    2.6345    0.9036    0.9551 C   0  0  0  1  0  0  0  0  0  0  0  0
    2.3522   -0.0389   -0.0549 C   0  0  0  1  0  0  0  0  0  0  0  0
    3.5264   -0.2350   -0.7276 N   0  0  0  1  0  0  0  0  0  0  0  0
    3.9408    1.2331    0.8550 N   0  0  0  1  0  0  0  0  0  0  0  0
    4.4855    0.5860   -0.1156 N   0  0  0  1  0  0  0  0  0  0  0  0
    4.6297   -3.3702   -5.1643 O   0  0  0  1  0  0  0  0  0  0  0  0
   -1.1090   -0.6494    0.5193 N   0  0  0  1  0  0  0  0  0  0  0  0
    6.0204   -3.6054   -5.4347 C   0  0  0  1  0  0  0  0  0  0  0  0
   -3.9984    0.9962    1.9161 N   0  0  0  1  0  0  0  0  0  0  0  0
   -3.0087    0.8879    0.8282 C   0  0  0  1  0  0  0  0  0  0  0  0
   -3.8987    2.8867    3.4294 C   0  0  0  1  0  0  0  0  0  0  0  0
   -4.4256    4.0943    3.8462 C   0  0  0  1  0  0  0  0  0  0  0  0
   -5.5455    4.6209    3.3413 N   0  0  0  1  0  0  0  0  0  0  0  0
   -6.1739    3.9246    2.3834 C   0  0  0  1  0  0  0  0  0  0  0  0
   -5.7145    2.7101    1.9045 C   0  0  0  1  0  0  0  0  0  0  0  0
    1.7538    1.9832    2.5628 H   0  0  0  1  0  0  0  0  0  0  0  0
    1.8854   -0.8445   -2.6373 H   0  0  0  1  0  0  0  0  0  0  0  0
    6.2977   -2.7190   -3.3617 H   0  0  0  1  0  0  0  0  0  0  0  0
    5.8755   -1.3294   -1.4231 H   0  0  0  1  0  0  0  0  0  0  0  0
    2.3084   -2.2363   -4.5789 H   0  0  0  1  0  0  0  0  0  0  0  0
   -1.5884    0.2741    2.3236 H   0  0  0  1  0  0  0  0  0  0  0  0
   -2.6961   -1.8283    2.6932 H   0  0  0  1  0  0  0  0  0  0  0  0
   -3.3415   -1.8650    1.0695 H   0  0  0  1  0  0  0  0  0  0  0  0
   -5.1917   -0.7563    1.8954 H   0  0  0  1  0  0  0  0  0  0  0  0
   -4.3952   -0.4453    3.4195 H   0  0  0  1  0  0  0  0  0  0  0  0
   -1.3344   -1.3113   -0.1674 H   0  0  0  1  0  0  0  0  0  0  0  0
    6.4744   -2.7013   -5.7829 H   0  0  0  1  0  0  0  0  0  0  0  0
    6.1146   -4.3632   -6.1842 H   0  0  0  1  0  0  0  0  0  0  0  0
    6.5083   -3.9270   -4.5384 H   0  0  0  1  0  0  0  0  0  0  0  0
   -2.5092    1.8155    0.6412 H   0  0  0  1  0  0  0  0  0  0  0  0
   -3.4433    0.5268   -0.0804 H   0  0  0  1  0  0  0  0  0  0  0  0
   -3.0249    2.5152    3.8538 H   0  0  0  1  0  0  0  0  0  0  0  0
   -3.9252    4.6203    4.5909 H   0  0  0  1  0  0  0  0  0  0  0  0
   -7.0491    4.3161    1.9807 H   0  0  0  1  0  0  0  0  0  0  0  0
   -6.2325    2.2050    1.1574 H   0  0  0  1  0  0  0  0  0  0  0  0
  1  3  4  0  0  0  0
  1 14  4  0  0  0  0
  1 21  1  0  0  0  0
  2 14  4  0  0  0  0
  2 15  4  0  0  0  0
  2 30  1  0  0  0  0
  3 16  4  0  0  0  0
  4  5  4  0  0  0  0
  4  7  4  0  0  0  0
  4 17  1  0  0  0  0
  5  9  4  0  0  0  0
  5 31  1  0  0  0  0
  6  7  4  0  0  0  0
  6  8  4  0  0  0  0
  6 32  1  0  0  0  0
  7 33  1  0  0  0  0
  8  9  4  0  0  0  0
  8 20  1  0  0  0  0
  9 34  1  0  0  0  0
 10 11  1  0  0  0  0
 10 21  1  0  0  0  0
 10 24  1  0  0  0  0
 10 35  1  0  0  0  0
 11 12  1  0  0  0  0
 11 36  1  0  0  0  0
 11 37  1  0  0  0  0
 12 23  1  0  0  0  0
 12 38  1  0  0  0  0
 12 39  1  0  0  0  0
 13 23  1  0  0  0  0
 13 25  4  0  0  0  0
 13 29  4  0  0  0  0
 15 16  4  0  0  0  0
 15 18  4  0  0  0  0
 16 17  4  0  0  0  0
 17 19  4  0  0  0  0
 18 19  4  0  0  0  0
 20 22  1  0  0  0  0
 21 40  1  0  0  0  0
 22 41  1  0  0  0  0
 22 42  1  0  0  0  0
 22 43  1  0  0  0  0
 23 24  1  0  0  0  0
 24 44  1  0  0  0  0
 24 45  1  0  0  0  0
 25 26  4  0  0  0  0
 25 46  1  0  0  0  0
 26 27  4  0  0  0  0
 26 47  1  0  0  0  0
 27 28  4  0  0  0  0
 28 29  4  0  0  0  0
 28 48  1  0  0  0  0
 29 49  1  0  0  0  0
M  END
> <ConfClashScore>
1.01886e-05 

> <ConfOneFourInteractionScore>
-0.986948 

> <ConfScore>
0.107064 

> <ConfScorePBest>
0.00215379 

> <ConfTolerance>
0.617844 

> <HETNAM>
     OWQ A 303  OWQ                                                       

> <pdb_OW>
Q_303 -16.5129 3.80749 7.62812 0.15963 1.39178 -0.28144 -3.20151 0 0 0 -1.30514 0 0 0 0 0 0 0 0 -8.31393

$$$$
6yky_lig_1.pdb
 OpenBabel04162415593D

 49 53  0  0  0  0  0  0  0  0999 V2000
   -0.0229    0.0775    0.2965 C   0  0  0  1  0  0  0  0  0  0  0  0
    0.5334    2.2738   -0.1233 C   0  0  0  1  0  0  0  0  0  0  0  0
    0.9423   -0.3873   -0.4672 N   0  0  0  1  0  0  0  0  0  0  0  0
    3.4711   -0.8639   -2.4625 C   0  0  0  1  0  0  0  0  0  0  0  0
    4.8514   -0.8526   -2.5329 C   0  0  0  1  0  0  0  0  0  0  0  0
    3.4312   -3.0020   -3.5461 C   0  0  0  1  0  0  0  0  0  0  0  0
    2.7597   -1.9389   -2.9722 C   0  0  0  1  0  0  0  0  0  0  0  0
    4.8155   -2.9908   -3.6167 C   0  0  0  1  0  0  0  0  0  0  0  0
    5.5246   -1.9189   -3.1084 C   0  0  0  1  0  0  0  0  0  0  0  0
   -1.8691   -0.2435    1.9014 C   0  0  0  1  0  0  0  0  0  0  0  0
   -2.8579   -1.3421    2.3227 C   0  0  0  1  0  0  0  0  0  0  0  0
   -4.0735   -0.5137    2.7664 C   0  0  0  1  0  0  0  0  0  0  0  0
   -4.3440    2.0494    2.8156 C   0  0  0  1  0  0  0  0  0  0  0  0
   -0.2281    1.3716    0.4686 N   0  0  0  1  0  0  0  0  0  0  0  0
    1.5758    1.8348   -0.9475 C   0  0  0  1  0  0  0  0  0  0  0  0
    1.7580    0.4452   -1.1024 C   0  0  0  1  0  0  0  0  0  0  0  0
    2.8252    0.2956   -1.9443 N   0  0  0  1  0  0  0  0  0  0  0  0
    2.5201    2.4571   -1.6863 N   0  0  0  1  0  0  0  0  0  0  0  0
    3.2618    1.5866   -2.2776 N   0  0  0  1  0  0  0  0  0  0  0  0
    5.3669   -4.0937   -4.2103 O   0  0  0  1  0  0  0  0  0  0  0  0
   -0.8780   -0.7551    0.9628 N   0  0  0  1  0  0  0  0  0  0  0  0
    6.7980   -4.0190   -4.3046 C   0  0  0  1  0  0  0  0  0  0  0  0
   -3.7841    0.8811    2.3170 N   0  0  0  1  0  0  0  0  0  0  0  0
   -2.7850    0.7696    1.2380 C   0  0  0  1  0  0  0  0  0  0  0  0
   -3.8010    2.8283    3.8207 C   0  0  0  1  0  0  0  0  0  0  0  0
   -4.4722    3.9711    4.2120 C   0  0  0  1  0  0  0  0  0  0  0  0
   -5.6281    4.3664    3.6700 N   0  0  0  1  0  0  0  0  0  0  0  0
   -6.1454    3.5995    2.6996 C   0  0  0  1  0  0  0  0  0  0  0  0
   -5.5387    2.4419    2.2443 C   0  0  0  1  0  0  0  0  0  0  0  0
    0.3619    3.2895    0.0200 H   0  0  0  1  0  0  0  0  0  0  0  0
    5.3848   -0.0442   -2.1541 H   0  0  0  1  0  0  0  0  0  0  0  0
    2.8977   -3.8104   -3.9249 H   0  0  0  1  0  0  0  0  0  0  0  0
    1.7209   -1.9455   -2.9228 H   0  0  0  1  0  0  0  0  0  0  0  0
    6.5634   -1.9122   -3.1578 H   0  0  0  1  0  0  0  0  0  0  0  0
   -1.3727    0.1787    2.7500 H   0  0  0  1  0  0  0  0  0  0  0  0
   -2.4696   -1.9276    3.1297 H   0  0  0  1  0  0  0  0  0  0  0  0
   -3.1017   -1.9831    1.5014 H   0  0  0  1  0  0  0  0  0  0  0  0
   -4.1834   -0.5496    3.8301 H   0  0  0  1  0  0  0  0  0  0  0  0
   -4.9657   -0.8794    2.3026 H   0  0  0  1  0  0  0  0  0  0  0  0
   -0.8234   -1.7209    0.8055 H   0  0  0  1  0  0  0  0  0  0  0  0
    7.0720   -3.2023   -4.9394 H   0  0  0  1  0  0  0  0  0  0  0  0
    7.1763   -4.9318   -4.7150 H   0  0  0  1  0  0  0  0  0  0  0  0
    7.2120   -3.8670   -3.3297 H   0  0  0  1  0  0  0  0  0  0  0  0
   -2.2901    1.6988    1.0467 H   0  0  0  1  0  0  0  0  0  0  0  0
   -3.2100    0.3975    0.3293 H   0  0  0  1  0  0  0  0  0  0  0  0
   -2.9044    2.5591    4.2737 H   0  0  0  1  0  0  0  0  0  0  0  0
   -4.0565    4.5534    4.9668 H   0  0  0  1  0  0  0  0  0  0  0  0
   -7.0464    3.8885    2.2681 H   0  0  0  1  0  0  0  0  0  0  0  0
   -5.9740    1.8784    1.4863 H   0  0  0  1  0  0  0  0  0  0  0  0
  1  3  4  0  0  0  0
  1 14  4  0  0  0  0
  1 21  1  0  0  0  0
  2 14  4  0  0  0  0
  2 15  4  0  0  0  0
  2 30  1  0  0  0  0
  3 16  4  0  0  0  0
  4  5  4  0  0  0  0
  4  7  4  0  0  0  0
  4 17  1  0  0  0  0
  5  9  4  0  0  0  0
  5 31  1  0  0  0  0
  6  7  4  0  0  0  0
  6  8  4  0  0  0  0
  6 32  1  0  0  0  0
  7 33  1  0  0  0  0
  8  9  4  0  0  0  0
  8 20  1  0  0  0  0
  9 34  1  0  0  0  0
 10 11  1  0  0  0  0
 10 21  1  0  0  0  0
 10 24  1  0  0  0  0
 10 35  1  0  0  0  0
 11 12  1  0  0  0  0
 11 36  1  0  0  0  0
 11 37  1  0  0  0  0
 12 23  1  0  0  0  0
 12 38  1  0  0  0  0
 12 39  1  0  0  0  0
 13 23  1  0  0  0  0
 13 25  4  0  0  0  0
 13 29  4  0  0  0  0
 15 16  4  0  0  0  0
 15 18  4  0  0  0  0
 16 17  4  0  0  0  0
 17 19  4  0  0  0  0
 18 19  4  0  0  0  0
 20 22  1  0  0  0  0
 21 40  1  0  0  0  0
 22 41  1  0  0  0  0
 22 42  1  0  0  0  0
 22 43  1  0  0  0  0
 23 24  1  0  0  0  0
 24 44  1  0  0  0  0
 24 45  1  0  0  0  0
 25 26  4  0  0  0  0
 25 46  1  0  0  0  0
 26 27  4  0  0  0  0
 26 47  1  0  0  0  0
 27 28  4  0  0  0  0
 28 29  4  0  0  0  0
 28 48  1  0  0  0  0
 29 49  1  0  0  0  0
M  END
> <ConfClashScore>
0 

> <ConfOneFourInteractionScore>
-0.987833 

> <ConfScore>
0.107433 

> <ConfScorePBest>
0.00214046 

> <ConfTolerance>
0.427229 

> <HETNAM>
     OWQ A 303  OWQ                                                       

> <pdb_OW>
Q_303 -16.5129 3.80749 7.62812 0.15963 1.39178 -0.28144 -3.20151 0 0 0 -1.30514 0 0 0 0 0 0 0 0 -8.31393

$$$$
6yky_lig_1.pdb
 OpenBabel04162415593D

 49 53  0  0  0  0  0  0  0  0999 V2000
    3.4901   -0.7103   -0.6243 C   0  0  0  1  0  0  0  0  0  0  0  0
    4.1483   -1.5308   -2.6744 C   0  0  0  1  0  0  0  0  0  0  0  0
    2.2112   -0.8526   -0.8982 N   0  0  0  1  0  0  0  0  0  0  0  0
   -0.7201   -1.4470   -2.1856 C   0  0  0  1  0  0  0  0  0  0  0  0
   -1.0482   -0.3716   -1.3819 C   0  0  0  1  0  0  0  0  0  0  0  0
   -2.9412   -2.3141   -1.9361 C   0  0  0  1  0  0  0  0  0  0  0  0
   -1.6671   -2.4211   -2.4610 C   0  0  0  1  0  0  0  0  0  0  0  0
   -3.2705   -1.2355   -1.1300 C   0  0  0  1  0  0  0  0  0  0  0  0
   -2.3261   -0.2644   -0.8555 C   0  0  0  1  0  0  0  0  0  0  0  0
    2.9423    0.2982    1.6081 C   0  0  0  1  0  0  0  0  0  0  0  0
    1.8983   -0.7422    1.9842 C   0  0  0  1  0  0  0  0  0  0  0  0
    0.7497    0.0777    2.5754 C   0  0  0  1  0  0  0  0  0  0  0  0
   -0.0520    2.4616    2.0437 C   0  0  0  1  0  0  0  0  0  0  0  0
    4.4387   -1.0383   -1.4840 N   0  0  0  1  0  0  0  0  0  0  0  0
    2.8028   -1.7034   -3.0186 C   0  0  0  1  0  0  0  0  0  0  0  0
    1.8243   -1.3401   -2.0706 C   0  0  0  1  0  0  0  0  0  0  0  0
    0.6163   -1.6062   -2.6536 N   0  0  0  1  0  0  0  0  0  0  0  0
    2.1611   -2.1651   -4.1140 N   0  0  0  1  0  0  0  0  0  0  0  0
    0.8876   -2.1204   -3.9305 N   0  0  0  1  0  0  0  0  0  0  0  0
   -4.5339   -1.0222   -0.6917 O   0  0  0  1  0  0  0  0  0  0  0  0
    3.8465   -0.2131    0.5737 N   0  0  0  1  0  0  0  0  0  0  0  0
   -5.5059   -2.0423   -0.9697 C   0  0  0  1  0  0  0  0  0  0  0  0
    0.8894    1.3804    1.9058 N   0  0  0  1  0  0  0  0  0  0  0  0
    2.1034    1.4480    1.0795 C   0  0  0  1  0  0  0  0  0  0  0  0
   -1.1671    2.2616    2.8362 C   0  0  0  1  0  0  0  0  0  0  0  0
   -2.0750    3.2936    2.9788 C   0  0  0  1  0  0  0  0  0  0  0  0
   -1.9348    4.4829    2.3854 N   0  0  0  1  0  0  0  0  0  0  0  0
   -0.8512    4.6616    1.6165 C   0  0  0  1  0  0  0  0  0  0  0  0
    0.1092    3.6844    1.4218 C   0  0  0  1  0  0  0  0  0  0  0  0
    4.9038   -1.7852   -3.3423 H   0  0  0  1  0  0  0  0  0  0  0  0
   -0.3365    0.3571   -1.1720 H   0  0  0  1  0  0  0  0  0  0  0  0
   -3.6529   -3.0428   -2.1460 H   0  0  0  1  0  0  0  0  0  0  0  0
   -1.4189   -3.2324   -3.0625 H   0  0  0  1  0  0  0  0  0  0  0  0
   -2.5743    0.5469   -0.2540 H   0  0  0  1  0  0  0  0  0  0  0  0
    3.5112    0.5986    2.4631 H   0  0  0  1  0  0  0  0  0  0  0  0
    1.5731   -1.2832    1.1203 H   0  0  0  1  0  0  0  0  0  0  0  0
    2.2882   -1.4266    2.7085 H   0  0  0  1  0  0  0  0  0  0  0  0
   -0.1962   -0.3695    2.3514 H   0  0  0  1  0  0  0  0  0  0  0  0
    0.8554    0.1777    3.6355 H   0  0  0  1  0  0  0  0  0  0  0  0
    4.8054   -0.1904    0.7749 H   0  0  0  1  0  0  0  0  0  0  0  0
   -5.2197   -2.9507   -0.4819 H   0  0  0  1  0  0  0  0  0  0  0  0
   -5.5586   -2.2062   -2.0258 H   0  0  0  1  0  0  0  0  0  0  0  0
   -6.4634   -1.7302   -0.6084 H   0  0  0  1  0  0  0  0  0  0  0  0
    1.8716    1.3102    0.0441 H   0  0  0  1  0  0  0  0  0  0  0  0
    2.6065    2.3831    1.2116 H   0  0  0  1  0  0  0  0  0  0  0  0
   -1.3197    1.3516    3.3161 H   0  0  0  1  0  0  0  0  0  0  0  0
   -2.9101    3.1368    3.5784 H   0  0  0  1  0  0  0  0  0  0  0  0
   -0.7264    5.5792    1.1431 H   0  0  0  1  0  0  0  0  0  0  0  0
    0.9366    3.8672    0.8188 H   0  0  0  1  0  0  0  0  0  0  0  0
  1  3  4  0  0  0  0
  1 14  4  0  0  0  0
  1 21  1  0  0  0  0
  2 14  4  0  0  0  0
  2 15  4  0  0  0  0
  2 30  1  0  0  0  0
  3 16  4  0  0  0  0
  4  5  4  0  0  0  0
  4  7  4  0  0  0  0
  4 17  1  0  0  0  0
  5  9  4  0  0  0  0
  5 31  1  0  0  0  0
  6  7  4  0  0  0  0
  6  8  4  0  0  0  0
  6 32  1  0  0  0  0
  7 33  1  0  0  0  0
  8  9  4  0  0  0  0
  8 20  1  0  0  0  0
  9 34  1  0  0  0  0
 10 11  1  0  0  0  0
 10 21  1  0  0  0  0
 10 24  1  0  0  0  0
 10 35  1  0  0  0  0
 11 12  1  0  0  0  0
 11 36  1  0  0  0  0
 11 37  1  0  0  0  0
 12 23  1  0  0  0  0
 12 38  1  0  0  0  0
 12 39  1  0  0  0  0
 13 23  1  0  0  0  0
 13 25  4  0  0  0  0
 13 29  4  0  0  0  0
 15 16  4  0  0  0  0
 15 18  4  0  0  0  0
 16 17  4  0  0  0  0
 17 19  4  0  0  0  0
 18 19  4  0  0  0  0
 20 22  1  0  0  0  0
 21 40  1  0  0  0  0
 22 41  1  0  0  0  0
 22 42  1  0  0  0  0
 22 43  1  0  0  0  0
 23 24  1  0  0  0  0
 24 44  1  0  0  0  0
 24 45  1  0  0  0  0
 25 26  4  0  0  0  0
 25 46  1  0  0  0  0
 26 27  4  0  0  0  0
 26 47  1  0  0  0  0
 27 28  4  0  0  0  0
 28 29  4  0  0  0  0
 28 48  1  0  0  0  0
 29 49  1  0  0  0  0
M  END
> <ConfClashScore>
0 

> <ConfOneFourInteractionScore>
-0.983503 

> <ConfScore>
0.107658 

> <ConfScorePBest>
0.00212713 

> <ConfTolerance>
0.514626 

> <HETNAM>
     OWQ A 303  OWQ                                                       

> <pdb_OW>
Q_303 -16.5129 3.80749 7.62812 0.15963 1.39178 -0.28144 -3.20151 0 0 0 -1.30514 0 0 0 0 0 0 0 0 -8.31393

$$$$
6yky_lig_1.pdb
 OpenBabel04162415593D

 49 53  0  0  0  0  0  0  0  0999 V2000
    0.4045   -0.5010    0.9400 C   0  0  0  1  0  0  0  0  0  0  0  0
    0.9429   -2.1981    2.4028 C   0  0  0  1  0  0  0  0  0  0  0  0
    1.1890   -0.9710   -0.0058 N   0  0  0  1  0  0  0  0  0  0  0  0
    3.2710   -2.6314   -1.8797 C   0  0  0  1  0  0  0  0  0  0  0  0
    3.9624   -1.4818   -2.2123 C   0  0  0  1  0  0  0  0  0  0  0  0
    3.3824   -3.3610   -4.1606 C   0  0  0  1  0  0  0  0  0  0  0  0
    2.9782   -3.5712   -2.8557 C   0  0  0  1  0  0  0  0  0  0  0  0
    4.0760   -2.2081   -4.4944 C   0  0  0  1  0  0  0  0  0  0  0  0
    4.3678   -1.2712   -3.5210 C   0  0  0  1  0  0  0  0  0  0  0  0
   -1.2869    1.1393    1.6476 C   0  0  0  1  0  0  0  0  0  0  0  0
   -2.2649    0.0335    2.0755 C   0  0  0  1  0  0  0  0  0  0  0  0
   -3.4806    0.8533    2.5345 C   0  0  0  1  0  0  0  0  0  0  0  0
   -3.7882    3.4615    2.6157 C   0  0  0  1  0  0  0  0  0  0  0  0
    0.2796   -1.0929    2.1150 N   0  0  0  1  0  0  0  0  0  0  0  0
    1.7923   -2.7421    1.4326 C   0  0  0  1  0  0  0  0  0  0  0  0
    1.8948   -2.0774    0.1934 C   0  0  0  1  0  0  0  0  0  0  0  0
    2.7755   -2.8079   -0.5555 N   0  0  0  1  0  0  0  0  0  0  0  0
    2.5981   -3.8254    1.3849 N   0  0  0  1  0  0  0  0  0  0  0  0
    3.1832   -3.8893    0.2399 N   0  0  0  1  0  0  0  0  0  0  0  0
    4.5171   -1.8917   -5.7350 O   0  0  0  1  0  0  0  0  0  0  0  0
   -0.3063    0.6385    0.7006 N   0  0  0  1  0  0  0  0  0  0  0  0
    4.3317   -2.8727   -6.7673 C   0  0  0  1  0  0  0  0  0  0  0  0
   -3.2040    2.2513    2.0868 N   0  0  0  1  0  0  0  0  0  0  0  0
   -2.2156    2.1493    0.9972 C   0  0  0  1  0  0  0  0  0  0  0  0
   -3.2889    4.1167    3.7261 C   0  0  0  1  0  0  0  0  0  0  0  0
   -3.9156    5.2716    4.1540 C   0  0  0  1  0  0  0  0  0  0  0  0
   -4.9882    5.7925    3.5503 N   0  0  0  1  0  0  0  0  0  0  0  0
   -5.4642    5.1446    2.4775 C   0  0  0  1  0  0  0  0  0  0  0  0
   -4.8967    3.9849    1.9793 C   0  0  0  1  0  0  0  0  0  0  0  0
    0.8363   -2.6546    3.3311 H   0  0  0  1  0  0  0  0  0  0  0  0
    4.1786   -0.7750   -1.4807 H   0  0  0  1  0  0  0  0  0  0  0  0
    3.1663   -4.0679   -4.8921 H   0  0  0  1  0  0  0  0  0  0  0  0
    2.4544   -4.4342   -2.6061 H   0  0  0  1  0  0  0  0  0  0  0  0
    4.8916   -0.4081   -3.7705 H   0  0  0  1  0  0  0  0  0  0  0  0
   -0.7842    1.5616    2.4925 H   0  0  0  1  0  0  0  0  0  0  0  0
   -2.5135   -0.6062    1.2546 H   0  0  0  1  0  0  0  0  0  0  0  0
   -1.8648   -0.5523    2.8764 H   0  0  0  1  0  0  0  0  0  0  0  0
   -4.3755    0.4840    2.0788 H   0  0  0  1  0  0  0  0  0  0  0  0
   -3.5792    0.8133    3.5992 H   0  0  0  1  0  0  0  0  0  0  0  0
   -0.1513    1.1318   -0.1319 H   0  0  0  1  0  0  0  0  0  0  0  0
    3.2861   -3.0538   -6.9043 H   0  0  0  1  0  0  0  0  0  0  0  0
    4.8172   -3.7835   -6.4849 H   0  0  0  1  0  0  0  0  0  0  0  0
    4.7538   -2.5118   -7.6819 H   0  0  0  1  0  0  0  0  0  0  0  0
   -2.6478    1.7777    0.0917 H   0  0  0  1  0  0  0  0  0  0  0  0
   -1.7282    3.0820    0.8038 H   0  0  0  1  0  0  0  0  0  0  0  0
   -2.4575    3.7473    4.2299 H   0  0  0  1  0  0  0  0  0  0  0  0
   -3.5330    5.7604    4.9885 H   0  0  0  1  0  0  0  0  0  0  0  0
   -6.3007    5.5324    1.9963 H   0  0  0  1  0  0  0  0  0  0  0  0
   -5.2973    3.5164    1.1416 H   0  0  0  1  0  0  0  0  0  0  0  0
  1  3  4  0  0  0  0
  1 14  4  0  0  0  0
  1 21  1  0  0  0  0
  2 14  4  0  0  0  0
  2 15  4  0  0  0  0
  2 30  1  0  0  0  0
  3 16  4  0  0  0  0
  4  5  4  0  0  0  0
  4  7  4  0  0  0  0
  4 17  1  0  0  0  0
  5  9  4  0  0  0  0
  5 31  1  0  0  0  0
  6  7  4  0  0  0  0
  6  8  4  0  0  0  0
  6 32  1  0  0  0  0
  7 33  1  0  0  0  0
  8  9  4  0  0  0  0
  8 20  1  0  0  0  0
  9 34  1  0  0  0  0
 10 11  1  0  0  0  0
 10 21  1  0  0  0  0
 10 24  1  0  0  0  0
 10 35  1  0  0  0  0
 11 12  1  0  0  0  0
 11 36  1  0  0  0  0
 11 37  1  0  0  0  0
 12 23  1  0  0  0  0
 12 38  1  0  0  0  0
 12 39  1  0  0  0  0
 13 23  1  0  0  0  0
 13 25  4  0  0  0  0
 13 29  4  0  0  0  0
 15 16  4  0  0  0  0
 15 18  4  0  0  0  0
 16 17  4  0  0  0  0
 17 19  4  0  0  0  0
 18 19  4  0  0  0  0
 20 22  1  0  0  0  0
 21 40  1  0  0  0  0
 22 41  1  0  0  0  0
 22 42  1  0  0  0  0
 22 43  1  0  0  0  0
 23 24  1  0  0  0  0
 24 44  1  0  0  0  0
 24 45  1  0  0  0  0
 25 26  4  0  0  0  0
 25 46  1  0  0  0  0
 26 27  4  0  0  0  0
 26 47  1  0  0  0  0
 27 28  4  0  0  0  0
 28 29  4  0  0  0  0
 28 48  1  0  0  0  0
 29 49  1  0  0  0  0
M  END
> <ConfClashScore>
0 

> <ConfOneFourInteractionScore>
-0.987833 

> <ConfScore>
0.10784 

> <ConfScorePBest>
0.0021138 

> <ConfTolerance>
0.542093 

> <HETNAM>
     OWQ A 303  OWQ                                                       

> <pdb_OW>
Q_303 -16.5129 3.80749 7.62812 0.15963 1.39178 -0.28144 -3.20151 0 0 0 -1.30514 0 0 0 0 0 0 0 0 -8.31393

$$$$
6yky_lig_1.pdb
 OpenBabel04162415593D

 49 53  0  0  0  0  0  0  0  0999 V2000
    3.4509   -1.0478   -0.6597 C   0  0  0  1  0  0  0  0  0  0  0  0
    3.8655   -1.7050   -2.8290 C   0  0  0  1  0  0  0  0  0  0  0  0
    2.1501   -0.9946   -0.8491 N   0  0  0  1  0  0  0  0  0  0  0  0
   -0.9081   -1.0614   -1.9655 C   0  0  0  1  0  0  0  0  0  0  0  0
   -1.0300   -0.9438   -0.5938 C   0  0  0  1  0  0  0  0  0  0  0  0
   -3.2828   -0.8291   -2.1987 C   0  0  0  1  0  0  0  0  0  0  0  0
   -2.0363   -1.0066   -2.7690 C   0  0  0  1  0  0  0  0  0  0  0  0
   -3.4052   -0.7112   -0.8229 C   0  0  0  1  0  0  0  0  0  0  0  0
   -2.2801   -0.7658   -0.0220 C   0  0  0  1  0  0  0  0  0  0  0  0
    3.1903   -0.2105    1.6452 C   0  0  0  1  0  0  0  0  0  0  0  0
    2.1315   -1.2207    2.0604 C   0  0  0  1  0  0  0  0  0  0  0  0
    1.0681   -0.3532    2.7098 C   0  0  0  1  0  0  0  0  0  0  0  0
    0.1307    1.8481    1.9136 C   0  0  0  1  0  0  0  0  0  0  0  0
    4.2922   -1.3928   -1.6188 N   0  0  0  1  0  0  0  0  0  0  0  0
    2.4904   -1.6651   -3.0861 C   0  0  0  1  0  0  0  0  0  0  0  0
    1.6297   -1.2916   -2.0336 C   0  0  0  1  0  0  0  0  0  0  0  0
    0.3634   -1.3340   -2.5479 N   0  0  0  1  0  0  0  0  0  0  0  0
    1.7264   -1.9133   -4.1723 N   0  0  0  1  0  0  0  0  0  0  0  0
    0.4841   -1.7288   -3.8888 N   0  0  0  1  0  0  0  0  0  0  0  0
   -4.5694   -0.5400   -0.1528 O   0  0  0  1  0  0  0  0  0  0  0  0
    4.0220   -0.7441    0.5626 N   0  0  0  1  0  0  0  0  0  0  0  0
   -5.7371   -0.2378   -0.9324 C   0  0  0  1  0  0  0  0  0  0  0  0
    1.1321    0.8908    1.9289 N   0  0  0  1  0  0  0  0  0  0  0  0
    2.3852    0.9989    1.1654 C   0  0  0  1  0  0  0  0  0  0  0  0
   -0.9890    1.7806    2.7219 C   0  0  0  1  0  0  0  0  0  0  0  0
   -1.9318    2.7873    2.6368 C   0  0  0  1  0  0  0  0  0  0  0  0
   -1.8213    3.8294    1.8074 N   0  0  0  1  0  0  0  0  0  0  0  0
   -0.7328    3.8799    1.0264 C   0  0  0  1  0  0  0  0  0  0  0  0
    0.2615    2.9176    1.0494 C   0  0  0  1  0  0  0  0  0  0  0  0
    4.5375   -1.9749   -3.5754 H   0  0  0  1  0  0  0  0  0  0  0  0
   -0.1839   -0.9889    0.0093 H   0  0  0  1  0  0  0  0  0  0  0  0
   -4.1288   -0.7840   -2.8018 H   0  0  0  1  0  0  0  0  0  0  0  0
   -1.9449   -1.0991   -3.8008 H   0  0  0  1  0  0  0  0  0  0  0  0
   -2.3715   -0.6733    1.0099 H   0  0  0  1  0  0  0  0  0  0  0  0
    3.8110    0.0522    2.4762 H   0  0  0  1  0  0  0  0  0  0  0  0
    1.7392   -1.7379    1.2099 H   0  0  0  1  0  0  0  0  0  0  0  0
    2.5283   -1.9289    2.7575 H   0  0  0  1  0  0  0  0  0  0  0  0
    0.1020   -0.8065    2.6317 H   0  0  0  1  0  0  0  0  0  0  0  0
    1.2956   -0.1725    3.7395 H   0  0  0  1  0  0  0  0  0  0  0  0
    4.9813   -0.8855    0.7047 H   0  0  0  1  0  0  0  0  0  0  0  0
   -5.6847   -0.7533   -1.8686 H   0  0  0  1  0  0  0  0  0  0  0  0
   -5.7852    0.8165   -1.1083 H   0  0  0  1  0  0  0  0  0  0  0  0
   -6.6113   -0.5516   -0.4012 H   0  0  0  1  0  0  0  0  0  0  0  0
    2.8942    1.9128    1.3907 H   0  0  0  1  0  0  0  0  0  0  0  0
    2.1995    0.9435    0.1131 H   0  0  0  1  0  0  0  0  0  0  0  0
   -1.1192    0.9871    3.3815 H   0  0  0  1  0  0  0  0  0  0  0  0
   -2.7702    2.7312    3.2496 H   0  0  0  1  0  0  0  0  0  0  0  0
   -0.6307    4.6812    0.3714 H   0  0  0  1  0  0  0  0  0  0  0  0
    1.0914    2.9981    0.4278 H   0  0  0  1  0  0  0  0  0  0  0  0
  1  3  4  0  0  0  0
  1 14  4  0  0  0  0
  1 21  1  0  0  0  0
  2 14  4  0  0  0  0
  2 15  4  0  0  0  0
  2 30  1  0  0  0  0
  3 16  4  0  0  0  0
  4  5  4  0  0  0  0
  4  7  4  0  0  0  0
  4 17  1  0  0  0  0
  5  9  4  0  0  0  0
  5 31  1  0  0  0  0
  6  7  4  0  0  0  0
  6  8  4  0  0  0  0
  6 32  1  0  0  0  0
  7 33  1  0  0  0  0
  8  9  4  0  0  0  0
  8 20  1  0  0  0  0
  9 34  1  0  0  0  0
 10 11  1  0  0  0  0
 10 21  1  0  0  0  0
 10 24  1  0  0  0  0
 10 35  1  0  0  0  0
 11 12  1  0  0  0  0
 11 36  1  0  0  0  0
 11 37  1  0  0  0  0
 12 23  1  0  0  0  0
 12 38  1  0  0  0  0
 12 39  1  0  0  0  0
 13 23  1  0  0  0  0
 13 25  4  0  0  0  0
 13 29  4  0  0  0  0
 15 16  4  0  0  0  0
 15 18  4  0  0  0  0
 16 17  4  0  0  0  0
 17 19  4  0  0  0  0
 18 19  4  0  0  0  0
 20 22  1  0  0  0  0
 21 40  1  0  0  0  0
 22 41  1  0  0  0  0
 22 42  1  0  0  0  0
 22 43  1  0  0  0  0
 23 24  1  0  0  0  0
 24 44  1  0  0  0  0
 24 45  1  0  0  0  0
 25 26  4  0  0  0  0
 25 46  1  0  0  0  0
 26 27  4  0  0  0  0
 26 47  1  0  0  0  0
 27 28  4  0  0  0  0
 28 29  4  0  0  0  0
 28 48  1  0  0  0  0
 29 49  1  0  0  0  0
M  END
> <ConfClashScore>
0 

> <ConfOneFourInteractionScore>
-0.983503 

> <ConfScore>
0.108413 

> <ConfScorePBest>
0.00210048 

> <ConfTolerance>
0.607694 

> <HETNAM>
     OWQ A 303  OWQ                                                       

> <pdb_OW>
Q_303 -16.5129 3.80749 7.62812 0.15963 1.39178 -0.28144 -3.20151 0 0 0 -1.30514 0 0 0 0 0 0 0 0 -8.31393

$$$$
6yky_lig_1.pdb
 OpenBabel04162415593D

 49 53  0  0  0  0  0  0  0  0999 V2000
    3.4610   -1.2268   -0.4958 C   0  0  0  1  0  0  0  0  0  0  0  0
    3.9887   -1.9365   -2.6235 C   0  0  0  1  0  0  0  0  0  0  0  0
    2.1756   -1.1468   -0.7644 N   0  0  0  1  0  0  0  0  0  0  0  0
   -0.8108   -1.1638   -2.0622 C   0  0  0  1  0  0  0  0  0  0  0  0
   -1.5287   -0.1791   -2.7142 C   0  0  0  1  0  0  0  0  0  0  0  0
   -2.5438   -1.3401   -0.4152 C   0  0  0  1  0  0  0  0  0  0  0  0
   -1.3177   -1.7434   -0.9096 C   0  0  0  1  0  0  0  0  0  0  0  0
   -3.2640   -0.3524   -1.0689 C   0  0  0  1  0  0  0  0  0  0  0  0
   -2.7584    0.2252   -2.2182 C   0  0  0  1  0  0  0  0  0  0  0  0
    3.0209   -0.4099    1.7974 C   0  0  0  1  0  0  0  0  0  0  0  0
    1.9598   -1.4406    2.1518 C   0  0  0  1  0  0  0  0  0  0  0  0
    0.8637   -0.5994    2.7811 C   0  0  0  1  0  0  0  0  0  0  0  0
   -0.0828    1.6206    1.9995 C   0  0  0  1  0  0  0  0  0  0  0  0
    4.3496   -1.6104   -1.3957 N   0  0  0  1  0  0  0  0  0  0  0  0
    2.6329   -1.8694   -2.9641 C   0  0  0  1  0  0  0  0  0  0  0  0
    1.7201   -1.4550   -1.9725 C   0  0  0  1  0  0  0  0  0  0  0  0
    0.4863   -1.4778   -2.5616 N   0  0  0  1  0  0  0  0  0  0  0  0
    1.9296   -2.1211   -4.0896 N   0  0  0  1  0  0  0  0  0  0  0  0
    0.6775   -1.9018   -3.8852 N   0  0  0  1  0  0  0  0  0  0  0  0
   -4.4157    0.1104   -0.5273 O   0  0  0  1  0  0  0  0  0  0  0  0
    3.8893   -0.9057    0.7438 N   0  0  0  1  0  0  0  0  0  0  0  0
   -5.0923    1.1660   -1.2275 C   0  0  0  1  0  0  0  0  0  0  0  0
    0.9412    0.6622    2.0304 N   0  0  0  1  0  0  0  0  0  0  0  0
    2.2195    0.8011    1.3154 C   0  0  0  1  0  0  0  0  0  0  0  0
   -1.0468    1.4483    1.0235 C   0  0  0  1  0  0  0  0  0  0  0  0
   -2.0837    2.3585    0.9455 C   0  0  0  1  0  0  0  0  0  0  0  0
   -2.2051    3.4062    1.7663 N   0  0  0  1  0  0  0  0  0  0  0  0
   -1.2611    3.5635    2.7050 C   0  0  0  1  0  0  0  0  0  0  0  0
   -0.1915    2.6984    2.8564 C   0  0  0  1  0  0  0  0  0  0  0  0
    4.6974   -2.2369   -3.3229 H   0  0  0  1  0  0  0  0  0  0  0  0
   -1.1465    0.2585   -3.5767 H   0  0  0  1  0  0  0  0  0  0  0  0
   -2.9261   -1.7777    0.4474 H   0  0  0  1  0  0  0  0  0  0  0  0
   -0.7756   -2.4815   -0.4168 H   0  0  0  1  0  0  0  0  0  0  0  0
   -3.3005    0.9634   -2.7110 H   0  0  0  1  0  0  0  0  0  0  0  0
    3.6083   -0.1591    2.6559 H   0  0  0  1  0  0  0  0  0  0  0  0
    1.6044   -1.9430    1.2766 H   0  0  0  1  0  0  0  0  0  0  0  0
    2.3396   -2.1598    2.8471 H   0  0  0  1  0  0  0  0  0  0  0  0
   -0.0936   -1.0614    2.6582 H   0  0  0  1  0  0  0  0  0  0  0  0
    1.0520   -0.4392    3.8222 H   0  0  0  1  0  0  0  0  0  0  0  0
    4.8425   -1.0135    0.9445 H   0  0  0  1  0  0  0  0  0  0  0  0
   -4.6036    2.0969   -1.0289 H   0  0  0  1  0  0  0  0  0  0  0  0
   -6.1084    1.2192   -0.8964 H   0  0  0  1  0  0  0  0  0  0  0  0
   -5.0691    0.9685   -2.2788 H   0  0  0  1  0  0  0  0  0  0  0  0
    2.0725    0.7671    0.2561 H   0  0  0  1  0  0  0  0  0  0  0  0
    2.7094    1.7151    1.5788 H   0  0  0  1  0  0  0  0  0  0  0  0
   -0.9926    0.6488    0.3606 H   0  0  0  1  0  0  0  0  0  0  0  0
   -2.8065    2.2211    0.2104 H   0  0  0  1  0  0  0  0  0  0  0  0
   -1.3361    4.3752    3.3509 H   0  0  0  1  0  0  0  0  0  0  0  0
    0.5169    2.8568    3.6012 H   0  0  0  1  0  0  0  0  0  0  0  0
  1  3  4  0  0  0  0
  1 14  4  0  0  0  0
  1 21  1  0  0  0  0
  2 14  4  0  0  0  0
  2 15  4  0  0  0  0
  2 30  1  0  0  0  0
  3 16  4  0  0  0  0
  4  5  4  0  0  0  0
  4  7  4  0  0  0  0
  4 17  1  0  0  0  0
  5  9  4  0  0  0  0
  5 31  1  0  0  0  0
  6  7  4  0  0  0  0
  6  8  4  0  0  0  0
  6 32  1  0  0  0  0
  7 33  1  0  0  0  0
  8  9  4  0  0  0  0
  8 20  1  0  0  0  0
  9 34  1  0  0  0  0
 10 11  1  0  0  0  0
 10 21  1  0  0  0  0
 10 24  1  0  0  0  0
 10 35  1  0  0  0  0
 11 12  1  0  0  0  0
 11 36  1  0  0  0  0
 11 37  1  0  0  0  0
 12 23  1  0  0  0  0
 12 38  1  0  0  0  0
 12 39  1  0  0  0  0
 13 23  1  0  0  0  0
 13 25  4  0  0  0  0
 13 29  4  0  0  0  0
 15 16  4  0  0  0  0
 15 18  4  0  0  0  0
 16 17  4  0  0  0  0
 17 19  4  0  0  0  0
 18 19  4  0  0  0  0
 20 22  1  0  0  0  0
 21 40  1  0  0  0  0
 22 41  1  0  0  0  0
 22 42  1  0  0  0  0
 22 43  1  0  0  0  0
 23 24  1  0  0  0  0
 24 44  1  0  0  0  0
 24 45  1  0  0  0  0
 25 26  4  0  0  0  0
 25 46  1  0  0  0  0
 26 27  4  0  0  0  0
 26 47  1  0  0  0  0
 27 28  4  0  0  0  0
 28 29  4  0  0  0  0
 28 48  1  0  0  0  0
 29 49  1  0  0  0  0
M  END
> <ConfClashScore>
0 

> <ConfOneFourInteractionScore>
-0.983503 

> <ConfScore>
0.108949 

> <ConfScorePBest>
0.00208715 

> <ConfTolerance>
0.720684 

> <HETNAM>
     OWQ A 303  OWQ                                                       

> <pdb_OW>
Q_303 -16.5129 3.80749 7.62812 0.15963 1.39178 -0.28144 -3.20151 0 0 0 -1.30514 0 0 0 0 0 0 0 0 -8.31393

$$$$
6yky_lig_1.pdb
 OpenBabel04162415593D

 49 53  0  0  0  0  0  0  0  0999 V2000
    1.6128   -0.7264   -2.6543 C   0  0  0  1  0  0  0  0  0  0  0  0
    3.5486   -1.7920   -3.3076 C   0  0  0  1  0  0  0  0  0  0  0  0
    1.7656   -1.0688   -1.3932 N   0  0  0  1  0  0  0  0  0  0  0  0
    2.7430   -2.1199    1.4943 C   0  0  0  1  0  0  0  0  0  0  0  0
    3.4633   -2.5724    2.5836 C   0  0  0  1  0  0  0  0  0  0  0  0
    0.9440   -1.4834    2.9454 C   0  0  0  1  0  0  0  0  0  0  0  0
    1.4804   -1.5770    1.6751 C   0  0  0  1  0  0  0  0  0  0  0  0
    1.6663   -1.9372    4.0381 C   0  0  0  1  0  0  0  0  0  0  0  0
    2.9252   -2.4785    3.8576 C   0  0  0  1  0  0  0  0  0  0  0  0
   -0.4427    0.5137   -2.0574 C   0  0  0  1  0  0  0  0  0  0  0  0
   -1.4340   -0.5837   -1.6385 C   0  0  0  1  0  0  0  0  0  0  0  0
   -2.6418    0.2468   -1.1780 C   0  0  0  1  0  0  0  0  0  0  0  0
   -2.9074    2.8291   -1.0952 C   0  0  0  1  0  0  0  0  0  0  0  0
    2.4767   -1.0749   -3.5918 N   0  0  0  1  0  0  0  0  0  0  0  0
    3.7607   -2.1839   -1.9810 C   0  0  0  1  0  0  0  0  0  0  0  0
    2.8134   -1.7899   -1.0138 C   0  0  0  1  0  0  0  0  0  0  0  0
    3.2554   -2.2973    0.1767 N   0  0  0  1  0  0  0  0  0  0  0  0
    4.7178   -2.8989   -1.3502 N   0  0  0  1  0  0  0  0  0  0  0  0
    4.4501   -2.9814   -0.0935 N   0  0  0  1  0  0  0  0  0  0  0  0
    1.1816   -1.7645    5.2908 O   0  0  0  1  0  0  0  0  0  0  0  0
    0.5351    0.0074   -3.0048 N   0  0  0  1  0  0  0  0  0  0  0  0
   -0.1809   -1.3271    5.4126 C   0  0  0  1  0  0  0  0  0  0  0  0
   -2.3487    1.6442   -1.6169 N   0  0  0  1  0  0  0  0  0  0  0  0
   -1.3584    1.5375   -2.7044 C   0  0  0  1  0  0  0  0  0  0  0  0
   -3.9795    2.7798   -0.2235 C   0  0  0  1  0  0  0  0  0  0  0  0
   -4.5530    3.9662    0.1924 C   0  0  0  1  0  0  0  0  0  0  0  0
   -4.1268    5.1683   -0.2071 N   0  0  0  1  0  0  0  0  0  0  0  0
   -3.0894    5.2012   -1.0556 C   0  0  0  1  0  0  0  0  0  0  0  0
   -2.4537    4.0628   -1.5196 C   0  0  0  1  0  0  0  0  0  0  0  0
    4.2211   -2.0601   -4.0542 H   0  0  0  1  0  0  0  0  0  0  0  0
    4.4089   -2.9834    2.4475 H   0  0  0  1  0  0  0  0  0  0  0  0
   -0.0016   -1.0724    3.0816 H   0  0  0  1  0  0  0  0  0  0  0  0
    0.9368   -1.2402    0.8549 H   0  0  0  1  0  0  0  0  0  0  0  0
    3.4688   -2.8153    4.6778 H   0  0  0  1  0  0  0  0  0  0  0  0
    0.0623    0.9256   -1.2087 H   0  0  0  1  0  0  0  0  0  0  0  0
   -1.6874   -1.2159   -2.4638 H   0  0  0  1  0  0  0  0  0  0  0  0
   -1.0425   -1.1785   -0.8399 H   0  0  0  1  0  0  0  0  0  0  0  0
   -2.7438    0.2018   -0.1138 H   0  0  0  1  0  0  0  0  0  0  0  0
   -3.5395   -0.1100   -1.6382 H   0  0  0  1  0  0  0  0  0  0  0  0
    0.4047    0.2105   -3.9547 H   0  0  0  1  0  0  0  0  0  0  0  0
   -0.3387   -0.9181    6.3887 H   0  0  0  1  0  0  0  0  0  0  0  0
   -0.8370   -2.1592    5.2645 H   0  0  0  1  0  0  0  0  0  0  0  0
   -0.3820   -0.5780    4.6756 H   0  0  0  1  0  0  0  0  0  0  0  0
   -0.8602    2.4659   -2.8911 H   0  0  0  1  0  0  0  0  0  0  0  0
   -1.7923    1.1759   -3.6132 H   0  0  0  1  0  0  0  0  0  0  0  0
   -4.3473    1.8670    0.1127 H   0  0  0  1  0  0  0  0  0  0  0  0
   -5.3575    3.9214    0.8501 H   0  0  0  1  0  0  0  0  0  0  0  0
   -2.7456    6.1272   -1.3810 H   0  0  0  1  0  0  0  0  0  0  0  0
   -1.6497    4.1348   -2.1753 H   0  0  0  1  0  0  0  0  0  0  0  0
  1  3  4  0  0  0  0
  1 14  4  0  0  0  0
  1 21  1  0  0  0  0
  2 14  4  0  0  0  0
  2 15  4  0  0  0  0
  2 30  1  0  0  0  0
  3 16  4  0  0  0  0
  4  5  4  0  0  0  0
  4  7  4  0  0  0  0
  4 17  1  0  0  0  0
  5  9  4  0  0  0  0
  5 31  1  0  0  0  0
  6  7  4  0  0  0  0
  6  8  4  0  0  0  0
  6 32  1  0  0  0  0
  7 33  1  0  0  0  0
  8  9  4  0  0  0  0
  8 20  1  0  0  0  0
  9 34  1  0  0  0  0
 10 11  1  0  0  0  0
 10 21  1  0  0  0  0
 10 24  1  0  0  0  0
 10 35  1  0  0  0  0
 11 12  1  0  0  0  0
 11 36  1  0  0  0  0
 11 37  1  0  0  0  0
 12 23  1  0  0  0  0
 12 38  1  0  0  0  0
 12 39  1  0  0  0  0
 13 23  1  0  0  0  0
 13 25  4  0  0  0  0
 13 29  4  0  0  0  0
 15 16  4  0  0  0  0
 15 18  4  0  0  0  0
 16 17  4  0  0  0  0
 17 19  4  0  0  0  0
 18 19  4  0  0  0  0
 20 22  1  0  0  0  0
 21 40  1  0  0  0  0
 22 41  1  0  0  0  0
 22 42  1  0  0  0  0
 22 43  1  0  0  0  0
 23 24  1  0  0  0  0
 24 44  1  0  0  0  0
 24 45  1  0  0  0  0
 25 26  4  0  0  0  0
 25 46  1  0  0  0  0
 26 27  4  0  0  0  0
 26 47  1  0  0  0  0
 27 28  4  0  0  0  0
 28 29  4  0  0  0  0
 28 48  1  0  0  0  0
 29 49  1  0  0  0  0
M  END
> <ConfClashScore>
0 

> <ConfOneFourInteractionScore>
-0.986948 

> <ConfScore>
0.110605 

> <ConfScorePBest>
0.00207382 

> <ConfTolerance>
0.606134 

> <HETNAM>
     OWQ A 303  OWQ                                                       

> <pdb_OW>
Q_303 -16.5129 3.80749 7.62812 0.15963 1.39178 -0.28144 -3.20151 0 0 0 -1.30514 0 0 0 0 0 0 0 0 -8.31393

$$$$
6yky_lig_1.pdb
 OpenBabel04162415593D

 49 53  0  0  0  0  0  0  0  0999 V2000
    1.3552   -1.0792   -2.7321 C   0  0  0  1  0  0  0  0  0  0  0  0
    3.3657   -2.0652   -3.2753 C   0  0  0  1  0  0  0  0  0  0  0  0
    1.6479   -1.0225   -1.4507 N   0  0  0  1  0  0  0  0  0  0  0  0
    3.0102   -1.1970    1.5392 C   0  0  0  1  0  0  0  0  0  0  0  0
    3.7604   -0.2839    2.2558 C   0  0  0  1  0  0  0  0  0  0  0  0
    1.5890   -1.5259    3.4417 C   0  0  0  1  0  0  0  0  0  0  0  0
    1.9245   -1.8210    2.1338 C   0  0  0  1  0  0  0  0  0  0  0  0
    2.3413   -0.6100    4.1606 C   0  0  0  1  0  0  0  0  0  0  0  0
    3.4238    0.0120    3.5675 C   0  0  0  1  0  0  0  0  0  0  0  0
   -0.8378   -0.0886   -2.2205 C   0  0  0  1  0  0  0  0  0  0  0  0
   -1.8262   -1.1876   -1.7988 C   0  0  0  1  0  0  0  0  0  0  0  0
   -3.0425   -0.3596   -1.3565 C   0  0  0  1  0  0  0  0  0  0  0  0
   -3.3254    2.2255   -1.2999 C   0  0  0  1  0  0  0  0  0  0  0  0
    2.1864   -1.5854   -3.6262 N   0  0  0  1  0  0  0  0  0  0  0  0
    3.7289   -2.0300   -1.9242 C   0  0  0  1  0  0  0  0  0  0  0  0
    2.8111   -1.4811   -1.0052 C   0  0  0  1  0  0  0  0  0  0  0  0
    3.4071   -1.5695    0.2224 N   0  0  0  1  0  0  0  0  0  0  0  0
    4.8203   -2.4202   -1.2304 N   0  0  0  1  0  0  0  0  0  0  0  0
    4.6615   -2.1647    0.0215 N   0  0  0  1  0  0  0  0  0  0  0  0
    2.0707   -0.2823    5.4390 O   0  0  0  1  0  0  0  0  0  0  0  0
    0.1505   -0.5984   -3.1546 N   0  0  0  1  0  0  0  0  0  0  0  0
    0.8715   -0.8807    5.9836 C   0  0  0  1  0  0  0  0  0  0  0  0
   -2.7538    1.0350   -1.8068 N   0  0  0  1  0  0  0  0  0  0  0  0
   -1.7541    0.9234   -2.8851 C   0  0  0  1  0  0  0  0  0  0  0  0
   -4.4903    2.7349   -1.8431 C   0  0  0  1  0  0  0  0  0  0  0  0
   -5.0167    3.8983   -1.3150 C   0  0  0  1  0  0  0  0  0  0  0  0
   -4.4554    4.5652   -0.3018 N   0  0  0  1  0  0  0  0  0  0  0  0
   -3.3240    4.0623    0.2124 C   0  0  0  1  0  0  0  0  0  0  0  0
   -2.7307    2.9017   -0.2526 C   0  0  0  1  0  0  0  0  0  0  0  0
    4.0111   -2.4611   -3.9882 H   0  0  0  1  0  0  0  0  0  0  0  0
    4.5773    0.1812    1.8109 H   0  0  0  1  0  0  0  0  0  0  0  0
    0.7721   -1.9909    3.8866 H   0  0  0  1  0  0  0  0  0  0  0  0
    1.3625   -2.5111    1.5958 H   0  0  0  1  0  0  0  0  0  0  0  0
    3.9859    0.7022    4.1055 H   0  0  0  1  0  0  0  0  0  0  0  0
   -0.3422    0.3345   -1.3718 H   0  0  0  1  0  0  0  0  0  0  0  0
   -1.4379   -1.7722   -0.9912 H   0  0  0  1  0  0  0  0  0  0  0  0
   -2.0691   -1.8294   -2.6198 H   0  0  0  1  0  0  0  0  0  0  0  0
   -3.1530   -0.3947   -0.2928 H   0  0  0  1  0  0  0  0  0  0  0  0
   -3.9342   -0.7263   -1.8205 H   0  0  0  1  0  0  0  0  0  0  0  0
   -0.0534   -0.5970   -4.1132 H   0  0  0  1  0  0  0  0  0  0  0  0
    0.1407   -0.9846    5.2089 H   0  0  0  1  0  0  0  0  0  0  0  0
    0.4819   -0.2555    6.7595 H   0  0  0  1  0  0  0  0  0  0  0  0
    1.1049   -1.8447    6.3850 H   0  0  0  1  0  0  0  0  0  0  0  0
   -1.2597    1.8528   -3.0769 H   0  0  0  1  0  0  0  0  0  0  0  0
   -2.1783    0.5503   -3.7938 H   0  0  0  1  0  0  0  0  0  0  0  0
   -4.9615    2.2516   -2.6343 H   0  0  0  1  0  0  0  0  0  0  0  0
   -5.8944    4.2743   -1.7270 H   0  0  0  1  0  0  0  0  0  0  0  0
   -2.8701    4.5691    0.9990 H   0  0  0  1  0  0  0  0  0  0  0  0
   -1.8538    2.5455    0.1783 H   0  0  0  1  0  0  0  0  0  0  0  0
  1  3  4  0  0  0  0
  1 14  4  0  0  0  0
  1 21  1  0  0  0  0
  2 14  4  0  0  0  0
  2 15  4  0  0  0  0
  2 30  1  0  0  0  0
  3 16  4  0  0  0  0
  4  5  4  0  0  0  0
  4  7  4  0  0  0  0
  4 17  1  0  0  0  0
  5  9  4  0  0  0  0
  5 31  1  0  0  0  0
  6  7  4  0  0  0  0
  6  8  4  0  0  0  0
  6 32  1  0  0  0  0
  7 33  1  0  0  0  0
  8  9  4  0  0  0  0
  8 20  1  0  0  0  0
  9 34  1  0  0  0  0
 10 11  1  0  0  0  0
 10 21  1  0  0  0  0
 10 24  1  0  0  0  0
 10 35  1  0  0  0  0
 11 12  1  0  0  0  0
 11 36  1  0  0  0  0
 11 37  1  0  0  0  0
 12 23  1  0  0  0  0
 12 38  1  0  0  0  0
 12 39  1  0  0  0  0
 13 23  1  0  0  0  0
 13 25  4  0  0  0  0
 13 29  4  0  0  0  0
 15 16  4  0  0  0  0
 15 18  4  0  0  0  0
 16 17  4  0  0  0  0
 17 19  4  0  0  0  0
 18 19  4  0  0  0  0
 20 22  1  0  0  0  0
 21 40  1  0  0  0  0
 22 41  1  0  0  0  0
 22 42  1  0  0  0  0
 22 43  1  0  0  0  0
 23 24  1  0  0  0  0
 24 44  1  0  0  0  0
 24 45  1  0  0  0  0
 25 26  4  0  0  0  0
 25 46  1  0  0  0  0
 26 27  4  0  0  0  0
 26 47  1  0  0  0  0
 27 28  4  0  0  0  0
 28 29  4  0  0  0  0
 28 48  1  0  0  0  0
 29 49  1  0  0  0  0
M  END
> <ConfClashScore>
0 

> <ConfOneFourInteractionScore>
-0.986948 

> <ConfScore>
0.111699 

> <ConfScorePBest>
0.00206049 

> <ConfTolerance>
0.670379 

> <HETNAM>
     OWQ A 303  OWQ                                                       

> <pdb_OW>
Q_303 -16.5129 3.80749 7.62812 0.15963 1.39178 -0.28144 -3.20151 0 0 0 -1.30514 0 0 0 0 0 0 0 0 -8.31393

$$$$
6yky_lig_1.pdb
 OpenBabel04162415593D

 49 53  0  0  0  0  0  0  0  0999 V2000
    0.4763    0.3915    0.4927 C   0  0  0  1  0  0  0  0  0  0  0  0
    1.9603    2.1162    0.8572 C   0  0  0  1  0  0  0  0  0  0  0  0
    1.3018   -0.2437   -0.3111 N   0  0  0  1  0  0  0  0  0  0  0  0
    3.7678   -1.2787   -2.1686 C   0  0  0  1  0  0  0  0  0  0  0  0
    2.8660   -1.5806   -3.1714 C   0  0  0  1  0  0  0  0  0  0  0  0
    4.9734   -3.2960   -2.6422 C   0  0  0  1  0  0  0  0  0  0  0  0
    4.8216   -2.1389   -1.9017 C   0  0  0  1  0  0  0  0  0  0  0  0
    4.0690   -3.5990   -3.6481 C   0  0  0  1  0  0  0  0  0  0  0  0
    3.0184   -2.7411   -3.9140 C   0  0  0  1  0  0  0  0  0  0  0  0
   -1.5707    0.4572    1.8556 C   0  0  0  1  0  0  0  0  0  0  0  0
   -2.5932   -0.5451    2.3360 C   0  0  0  1  0  0  0  0  0  0  0  0
   -3.6774    0.3029    2.9703 C   0  0  0  1  0  0  0  0  0  0  0  0
   -4.5734    2.5480    2.2550 C   0  0  0  1  0  0  0  0  0  0  0  0
    0.7899    1.5407    1.0650 N   0  0  0  1  0  0  0  0  0  0  0  0
    2.8775    1.4836    0.0104 C   0  0  0  1  0  0  0  0  0  0  0  0
    2.5007    0.2592   -0.5787 C   0  0  0  1  0  0  0  0  0  0  0  0
    3.5626   -0.1338   -1.3455 N   0  0  0  1  0  0  0  0  0  0  0  0
    4.1260    1.7762   -0.4147 N   0  0  0  1  0  0  0  0  0  0  0  0
    4.5502    0.8526   -1.2051 N   0  0  0  1  0  0  0  0  0  0  0  0
    4.1618   -4.7744   -4.2998 O   0  0  0  1  0  0  0  0  0  0  0  0
   -0.7618   -0.1005    0.7862 N   0  0  0  1  0  0  0  0  0  0  0  0
    5.4354   -5.4478   -4.1691 C   0  0  0  1  0  0  0  0  0  0  0  0
   -3.6157    1.5547    2.1937 N   0  0  0  1  0  0  0  0  0  0  0  0
   -2.4169    1.6226    1.3470 C   0  0  0  1  0  0  0  0  0  0  0  0
   -4.4573    3.6824    1.4732 C   0  0  0  1  0  0  0  0  0  0  0  0
   -5.4832    4.6082    1.4887 C   0  0  0  1  0  0  0  0  0  0  0  0
   -6.5889    4.4674    2.2261 N   0  0  0  1  0  0  0  0  0  0  0  0
   -6.6863    3.3650    2.9826 C   0  0  0  1  0  0  0  0  0  0  0  0
   -5.7089    2.3860    3.0245 C   0  0  0  1  0  0  0  0  0  0  0  0
    2.1954    3.0207    1.3134 H   0  0  0  1  0  0  0  0  0  0  0  0
    2.0732   -0.9372   -3.3689 H   0  0  0  1  0  0  0  0  0  0  0  0
    5.7663   -3.9394   -2.4448 H   0  0  0  1  0  0  0  0  0  0  0  0
    5.4978   -1.9136   -1.1444 H   0  0  0  1  0  0  0  0  0  0  0  0
    2.3421   -2.9664   -4.6713 H   0  0  0  1  0  0  0  0  0  0  0  0
   -0.9358    0.7689    2.6585 H   0  0  0  1  0  0  0  0  0  0  0  0
   -2.1630   -1.2106    3.0550 H   0  0  0  1  0  0  0  0  0  0  0  0
   -2.9848   -1.1099    1.5159 H   0  0  0  1  0  0  0  0  0  0  0  0
   -3.4700    0.4814    4.0047 H   0  0  0  1  0  0  0  0  0  0  0  0
   -4.6358   -0.1629    2.8734 H   0  0  0  1  0  0  0  0  0  0  0  0
   -1.1143   -0.8497    0.2620 H   0  0  0  1  0  0  0  0  0  0  0  0
    5.3685   -6.1933   -3.4045 H   0  0  0  1  0  0  0  0  0  0  0  0
    6.1899   -4.7357   -3.9075 H   0  0  0  1  0  0  0  0  0  0  0  0
    5.6899   -5.9125   -5.0988 H   0  0  0  1  0  0  0  0  0  0  0  0
   -1.9065    2.5539    1.4773 H   0  0  0  1  0  0  0  0  0  0  0  0
   -2.6675    1.4939    0.3148 H   0  0  0  1  0  0  0  0  0  0  0  0
   -3.6138    3.8362    0.8846 H   0  0  0  1  0  0  0  0  0  0  0  0
   -5.3900    5.4578    0.8962 H   0  0  0  1  0  0  0  0  0  0  0  0
   -7.5377    3.2393    3.5665 H   0  0  0  1  0  0  0  0  0  0  0  0
   -5.8273    1.5444    3.6238 H   0  0  0  1  0  0  0  0  0  0  0  0
  1  3  4  0  0  0  0
  1 14  4  0  0  0  0
  1 21  1  0  0  0  0
  2 14  4  0  0  0  0
  2 15  4  0  0  0  0
  2 30  1  0  0  0  0
  3 16  4  0  0  0  0
  4  5  4  0  0  0  0
  4  7  4  0  0  0  0
  4 17  1  0  0  0  0
  5  9  4  0  0  0  0
  5 31  1  0  0  0  0
  6  7  4  0  0  0  0
  6  8  4  0  0  0  0
  6 32  1  0  0  0  0
  7 33  1  0  0  0  0
  8  9  4  0  0  0  0
  8 20  1  0  0  0  0
  9 34  1  0  0  0  0
 10 11  1  0  0  0  0
 10 21  1  0  0  0  0
 10 24  1  0  0  0  0
 10 35  1  0  0  0  0
 11 12  1  0  0  0  0
 11 36  1  0  0  0  0
 11 37  1  0  0  0  0
 12 23  1  0  0  0  0
 12 38  1  0  0  0  0
 12 39  1  0  0  0  0
 13 23  1  0  0  0  0
 13 25  4  0  0  0  0
 13 29  4  0  0  0  0
 15 16  4  0  0  0  0
 15 18  4  0  0  0  0
 16 17  4  0  0  0  0
 17 19  4  0  0  0  0
 18 19  4  0  0  0  0
 20 22  1  0  0  0  0
 21 40  1  0  0  0  0
 22 41  1  0  0  0  0
 22 42  1  0  0  0  0
 22 43  1  0  0  0  0
 23 24  1  0  0  0  0
 24 44  1  0  0  0  0
 24 45  1  0  0  0  0
 25 26  4  0  0  0  0
 25 46  1  0  0  0  0
 26 27  4  0  0  0  0
 26 47  1  0  0  0  0
 27 28  4  0  0  0  0
 28 29  4  0  0  0  0
 28 48  1  0  0  0  0
 29 49  1  0  0  0  0
M  END
> <ConfClashScore>
0 

> <ConfOneFourInteractionScore>
-0.984874 

> <ConfScore>
0.111948 

> <ConfScorePBest>
0.00204716 

> <ConfTolerance>
0.527581 

> <HETNAM>
     OWQ A 303  OWQ                                                       

> <pdb_OW>
Q_303 -16.5129 3.80749 7.62812 0.15963 1.39178 -0.28144 -3.20151 0 0 0 -1.30514 0 0 0 0 0 0 0 0 -8.31393

$$$$
6yky_lig_1.pdb
 OpenBabel04162415593D

 49 53  0  0  0  0  0  0  0  0999 V2000
    0.4504   -0.6932   -2.3356 C   0  0  0  1  0  0  0  0  0  0  0  0
    1.9268   -1.6618   -3.8159 C   0  0  0  1  0  0  0  0  0  0  0  0
    1.2169   -0.9445   -1.2963 N   0  0  0  1  0  0  0  0  0  0  0  0
    3.5848   -1.7720    0.7865 C   0  0  0  1  0  0  0  0  0  0  0  0
    2.8222   -0.8481    1.4758 C   0  0  0  1  0  0  0  0  0  0  0  0
    4.8697   -2.1918    2.7664 C   0  0  0  1  0  0  0  0  0  0  0  0
    4.6118   -2.4429    1.4320 C   0  0  0  1  0  0  0  0  0  0  0  0
    4.1050   -1.2652    3.4579 C   0  0  0  1  0  0  0  0  0  0  0  0
    3.0810   -0.5963    2.8141 C   0  0  0  1  0  0  0  0  0  0  0  0
   -1.0477    0.3173   -0.6993 C   0  0  0  1  0  0  0  0  0  0  0  0
   -2.0437   -0.6448   -0.1201 C   0  0  0  1  0  0  0  0  0  0  0  0
   -3.2003    0.1999    0.3485 C   0  0  0  1  0  0  0  0  0  0  0  0
   -4.1841    2.0437   -1.1353 C   0  0  0  1  0  0  0  0  0  0  0  0
    0.7894   -1.0394   -3.5651 N   0  0  0  1  0  0  0  0  0  0  0  0
    2.7811   -1.9542   -2.7466 C   0  0  0  1  0  0  0  0  0  0  0  0
    2.3791   -1.5665   -1.4519 C   0  0  0  1  0  0  0  0  0  0  0  0
    3.3796   -1.9667   -0.6100 N   0  0  0  1  0  0  0  0  0  0  0  0
    3.9833   -2.5607   -2.6384 N   0  0  0  1  0  0  0  0  0  0  0  0
    4.3567   -2.5825   -1.4064 N   0  0  0  1  0  0  0  0  0  0  0  0
    4.2943   -1.0856    4.7702 O   0  0  0  1  0  0  0  0  0  0  0  0
   -0.7434   -0.0415   -2.0842 N   0  0  0  1  0  0  0  0  0  0  0  0
    3.5587   -0.0628    5.5224 C   0  0  0  1  0  0  0  0  0  0  0  0
   -3.1340    1.3773   -0.5377 N   0  0  0  1  0  0  0  0  0  0  0  0
   -1.6951    1.6833   -0.6424 C   0  0  0  1  0  0  0  0  0  0  0  0
   -4.1005    2.4527   -2.4534 C   0  0  0  1  0  0  0  0  0  0  0  0
   -5.1770    3.1136   -3.0138 C   0  0  0  1  0  0  0  0  0  0  0  0
   -6.3023    3.3840   -2.3454 N   0  0  0  1  0  0  0  0  0  0  0  0
   -6.3680    2.9856   -1.0671 C   0  0  0  1  0  0  0  0  0  0  0  0
   -5.3393    2.3153   -0.4285 C   0  0  0  1  0  0  0  0  0  0  0  0
    2.1825   -1.9291   -4.7879 H   0  0  0  1  0  0  0  0  0  0  0  0
    2.0543   -0.3419    0.9904 H   0  0  0  1  0  0  0  0  0  0  0  0
    5.6377   -2.6981    3.2518 H   0  0  0  1  0  0  0  0  0  0  0  0
    5.1882   -3.1352    0.9122 H   0  0  0  1  0  0  0  0  0  0  0  0
    2.5046    0.0959    3.3338 H   0  0  0  1  0  0  0  0  0  0  0  0
   -0.1468    0.3100   -0.1222 H   0  0  0  1  0  0  0  0  0  0  0  0
   -2.3678   -1.3404   -0.8658 H   0  0  0  1  0  0  0  0  0  0  0  0
   -1.6134   -1.1773    0.7022 H   0  0  0  1  0  0  0  0  0  0  0  0
   -4.1283   -0.3191    0.2289 H   0  0  0  1  0  0  0  0  0  0  0  0
   -3.0789    0.4830    1.3732 H   0  0  0  1  0  0  0  0  0  0  0  0
   -1.3653    0.1729   -2.8105 H   0  0  0  1  0  0  0  0  0  0  0  0
    2.5234   -0.0979    5.2544 H   0  0  0  1  0  0  0  0  0  0  0  0
    3.9544    0.9038    5.2903 H   0  0  0  1  0  0  0  0  0  0  0  0
    3.6619   -0.2486    6.5711 H   0  0  0  1  0  0  0  0  0  0  0  0
   -1.4867    2.2426   -1.5304 H   0  0  0  1  0  0  0  0  0  0  0  0
   -1.3574    2.2313    0.2123 H   0  0  0  1  0  0  0  0  0  0  0  0
   -3.2436    2.2664   -3.0126 H   0  0  0  1  0  0  0  0  0  0  0  0
   -5.1079    3.4161   -4.0065 H   0  0  0  1  0  0  0  0  0  0  0  0
   -7.2342    3.1903   -0.5290 H   0  0  0  1  0  0  0  0  0  0  0  0
   -5.4343    2.0216    0.5646 H   0  0  0  1  0  0  0  0  0  0  0  0
  1  3  4  0  0  0  0
  1 14  4  0  0  0  0
  1 21  1  0  0  0  0
  2 14  4  0  0  0  0
  2 15  4  0  0  0  0
  2 30  1  0  0  0  0
  3 16  4  0  0  0  0
  4  5  4  0  0  0  0
  4  7  4  0  0  0  0
  4 17  1  0  0  0  0
  5  9  4  0  0  0  0
  5 31  1  0  0  0  0
  6  7  4  0  0  0  0
  6  8  4  0  0  0  0
  6 32  1  0  0  0  0
  7 33  1  0  0  0  0
  8  9  4  0  0  0  0
  8 20  1  0  0  0  0
  9 34  1  0  0  0  0
 10 11  1  0  0  0  0
 10 21  1  0  0  0  0
 10 24  1  0  0  0  0
 10 35  1  0  0  0  0
 11 12  1  0  0  0  0
 11 36  1  0  0  0  0
 11 37  1  0  0  0  0
 12 23  1  0  0  0  0
 12 38  1  0  0  0  0
 12 39  1  0  0  0  0
 13 23  1  0  0  0  0
 13 25  4  0  0  0  0
 13 29  4  0  0  0  0
 15 16  4  0  0  0  0
 15 18  4  0  0  0  0
 16 17  4  0  0  0  0
 17 19  4  0  0  0  0
 18 19  4  0  0  0  0
 20 22  1  0  0  0  0
 21 40  1  0  0  0  0
 22 41  1  0  0  0  0
 22 42  1  0  0  0  0
 22 43  1  0  0  0  0
 23 24  1  0  0  0  0
 24 44  1  0  0  0  0
 24 45  1  0  0  0  0
 25 26  4  0  0  0  0
 25 46  1  0  0  0  0
 26 27  4  0  0  0  0
 26 47  1  0  0  0  0
 27 28  4  0  0  0  0
 28 29  4  0  0  0  0
 28 48  1  0  0  0  0
 29 49  1  0  0  0  0
M  END
> <ConfClashScore>
0 

> <ConfOneFourInteractionScore>
-0.986948 

> <ConfScore>
0.111993 

> <ConfScorePBest>
0.00203384 

> <ConfTolerance>
1.15008 

> <HETNAM>
     OWQ A 303  OWQ                                                       

> <pdb_OW>
Q_303 -16.5129 3.80749 7.62812 0.15963 1.39178 -0.28144 -3.20151 0 0 0 -1.30514 0 0 0 0 0 0 0 0 -8.31393

$$$$
6yky_lig_1.pdb
 OpenBabel04162415593D

 49 53  0  0  0  0  0  0  0  0999 V2000
   -0.2516   -0.4508    0.4501 C   0  0  0  1  0  0  0  0  0  0  0  0
   -1.9522   -1.0659   -0.9779 C   0  0  0  1  0  0  0  0  0  0  0  0
    0.6872   -0.8121   -0.3978 N   0  0  0  1  0  0  0  0  0  0  0  0
    2.4727   -1.8818   -2.9020 C   0  0  0  1  0  0  0  0  0  0  0  0
    3.3536   -1.0517   -2.2348 C   0  0  0  1  0  0  0  0  0  0  0  0
    4.2891   -2.7885   -4.1770 C   0  0  0  1  0  0  0  0  0  0  0  0
    2.9406   -2.7496   -3.8764 C   0  0  0  1  0  0  0  0  0  0  0  0
    5.1728   -1.9560   -3.5079 C   0  0  0  1  0  0  0  0  0  0  0  0
    4.7060   -1.0908   -2.5364 C   0  0  0  1  0  0  0  0  0  0  0  0
   -0.6546    0.5795    2.6627 C   0  0  0  1  0  0  0  0  0  0  0  0
   -1.7019   -0.4422    3.0788 C   0  0  0  1  0  0  0  0  0  0  0  0
   -2.8216    0.3996    3.6941 C   0  0  0  1  0  0  0  0  0  0  0  0
   -3.5950    2.7778    3.1597 C   0  0  0  1  0  0  0  0  0  0  0  0
   -1.5385   -0.5714    0.1747 N   0  0  0  1  0  0  0  0  0  0  0  0
   -0.9956   -1.4664   -1.9176 C   0  0  0  1  0  0  0  0  0  0  0  0
    0.3659   -1.3197   -1.5815 C   0  0  0  1  0  0  0  0  0  0  0  0
    1.0725   -1.7798   -2.6580 N   0  0  0  1  0  0  0  0  0  0  0  0
   -1.0568   -1.9982   -3.1580 N   0  0  0  1  0  0  0  0  0  0  0  0
    0.1317   -2.1914   -3.6138 N   0  0  0  1  0  0  0  0  0  0  0  0
    6.4761   -1.9248   -3.8744 O   0  0  0  1  0  0  0  0  0  0  0  0
    0.2046    0.0503    1.6179 N   0  0  0  1  0  0  0  0  0  0  0  0
    6.8716   -2.7717   -4.9647 C   0  0  0  1  0  0  0  0  0  0  0  0
   -2.6829    1.6936    3.0077 N   0  0  0  1  0  0  0  0  0  0  0  0
   -1.4921    1.7360    2.1467 C   0  0  0  1  0  0  0  0  0  0  0  0
   -3.4314    3.9389    2.4272 C   0  0  0  1  0  0  0  0  0  0  0  0
   -4.3898    4.9293    2.5284 C   0  0  0  1  0  0  0  0  0  0  0  0
   -5.4734    4.8267    3.3041 N   0  0  0  1  0  0  0  0  0  0  0  0
   -5.6171    3.6974    4.0121 C   0  0  0  1  0  0  0  0  0  0  0  0
   -4.7085    2.6544    3.9676 C   0  0  0  1  0  0  0  0  0  0  0  0
   -2.9678   -1.1558   -1.1830 H   0  0  0  1  0  0  0  0  0  0  0  0
    3.0018   -0.3978   -1.5066 H   0  0  0  1  0  0  0  0  0  0  0  0
    4.6409   -3.4424   -4.9052 H   0  0  0  1  0  0  0  0  0  0  0  0
    2.2771   -3.3713   -4.3812 H   0  0  0  1  0  0  0  0  0  0  0  0
    5.3695   -0.4691   -2.0316 H   0  0  0  1  0  0  0  0  0  0  0  0
   -0.0574    0.8800    3.4982 H   0  0  0  1  0  0  0  0  0  0  0  0
   -1.3011   -1.1251    3.7985 H   0  0  0  1  0  0  0  0  0  0  0  0
   -2.0591   -0.9869    2.2299 H   0  0  0  1  0  0  0  0  0  0  0  0
   -3.7796   -0.0363    3.5015 H   0  0  0  1  0  0  0  0  0  0  0  0
   -2.6844    0.5083    4.7496 H   0  0  0  1  0  0  0  0  0  0  0  0
    1.1728    0.0574    1.7696 H   0  0  0  1  0  0  0  0  0  0  0  0
    6.6639   -2.2804   -5.8923 H   0  0  0  1  0  0  0  0  0  0  0  0
    6.3258   -3.6909   -4.9182 H   0  0  0  1  0  0  0  0  0  0  0  0
    7.9199   -2.9750   -4.8960 H   0  0  0  1  0  0  0  0  0  0  0  0
   -0.9725    2.6650    2.2550 H   0  0  0  1  0  0  0  0  0  0  0  0
   -1.7553    1.5915    1.1196 H   0  0  0  1  0  0  0  0  0  0  0  0
   -2.6026    4.0647    1.8116 H   0  0  0  1  0  0  0  0  0  0  0  0
   -4.2614    5.7988    1.9726 H   0  0  0  1  0  0  0  0  0  0  0  0
   -6.4519    3.6004    4.6246 H   0  0  0  1  0  0  0  0  0  0  0  0
   -4.8612    1.7942    4.5317 H   0  0  0  1  0  0  0  0  0  0  0  0
  1  3  4  0  0  0  0
  1 14  4  0  0  0  0
  1 21  1  0  0  0  0
  2 14  4  0  0  0  0
  2 15  4  0  0  0  0
  2 30  1  0  0  0  0
  3 16  4  0  0  0  0
  4  5  4  0  0  0  0
  4  7  4  0  0  0  0
  4 17  1  0  0  0  0
  5  9  4  0  0  0  0
  5 31  1  0  0  0  0
  6  7  4  0  0  0  0
  6  8  4  0  0  0  0
  6 32  1  0  0  0  0
  7 33  1  0  0  0  0
  8  9  4  0  0  0  0
  8 20  1  0  0  0  0
  9 34  1  0  0  0  0
 10 11  1  0  0  0  0
 10 21  1  0  0  0  0
 10 24  1  0  0  0  0
 10 35  1  0  0  0  0
 11 12  1  0  0  0  0
 11 36  1  0  0  0  0
 11 37  1  0  0  0  0
 12 23  1  0  0  0  0
 12 38  1  0  0  0  0
 12 39  1  0  0  0  0
 13 23  1  0  0  0  0
 13 25  4  0  0  0  0
 13 29  4  0  0  0  0
 15 16  4  0  0  0  0
 15 18  4  0  0  0  0
 16 17  4  0  0  0  0
 17 19  4  0  0  0  0
 18 19  4  0  0  0  0
 20 22  1  0  0  0  0
 21 40  1  0  0  0  0
 22 41  1  0  0  0  0
 22 42  1  0  0  0  0
 22 43  1  0  0  0  0
 23 24  1  0  0  0  0
 24 44  1  0  0  0  0
 24 45  1  0  0  0  0
 25 26  4  0  0  0  0
 25 46  1  0  0  0  0
 26 27  4  0  0  0  0
 26 47  1  0  0  0  0
 27 28  4  0  0  0  0
 28 29  4  0  0  0  0
 28 48  1  0  0  0  0
 29 49  1  0  0  0  0
M  END
> <ConfClashScore>
0 

> <ConfOneFourInteractionScore>
-0.983503 

> <ConfScore>
0.113706 

> <ConfScorePBest>
0.00202051 

> <ConfTolerance>
0.499035 

> <HETNAM>
     OWQ A 303  OWQ                                                       

> <pdb_OW>
Q_303 -16.5129 3.80749 7.62812 0.15963 1.39178 -0.28144 -3.20151 0 0 0 -1.30514 0 0 0 0 0 0 0 0 -8.31393

$$$$
6yky_lig_1.pdb
 OpenBabel04162415593D

 49 53  0  0  0  0  0  0  0  0999 V2000
    0.2810   -0.4702    0.9752 C   0  0  0  1  0  0  0  0  0  0  0  0
    1.4401   -1.6433    2.5845 C   0  0  0  1  0  0  0  0  0  0  0  0
    1.0902   -0.8537    0.0113 N   0  0  0  1  0  0  0  0  0  0  0  0
    3.4031   -2.2483   -1.8677 C   0  0  0  1  0  0  0  0  0  0  0  0
    4.4505   -3.0160   -2.3410 C   0  0  0  1  0  0  0  0  0  0  0  0
    3.0224   -1.4011   -4.0779 C   0  0  0  1  0  0  0  0  0  0  0  0
    2.6897   -1.4376   -2.7369 C   0  0  0  1  0  0  0  0  0  0  0  0
    4.0729   -2.1710   -4.5527 C   0  0  0  1  0  0  0  0  0  0  0  0
    4.7841   -2.9792   -3.6859 C   0  0  0  1  0  0  0  0  0  0  0  0
   -1.7335    0.8549    1.5564 C   0  0  0  1  0  0  0  0  0  0  0  0
   -2.7221   -0.2439    1.9779 C   0  0  0  1  0  0  0  0  0  0  0  0
   -3.9381    0.5843    2.4209 C   0  0  0  1  0  0  0  0  0  0  0  0
   -4.2155    3.1597    2.4743 C   0  0  0  1  0  0  0  0  0  0  0  0
    0.4451   -0.8506    2.2301 N   0  0  0  1  0  0  0  0  0  0  0  0
    2.3317   -2.0817    1.5988 C   0  0  0  1  0  0  0  0  0  0  0  0
    2.1185   -1.6511    0.2732 C   0  0  0  1  0  0  0  0  0  0  0  0
    3.1161   -2.2156   -0.4724 N   0  0  0  1  0  0  0  0  0  0  0  0
    3.4267   -2.8729    1.6020 N   0  0  0  1  0  0  0  0  0  0  0  0
    3.9045   -2.9690    0.4103 N   0  0  0  1  0  0  0  0  0  0  0  0
    4.4022   -2.1312   -5.8656 O   0  0  0  1  0  0  0  0  0  0  0  0
   -0.7455    0.3450    0.6216 N   0  0  0  1  0  0  0  0  0  0  0  0
    5.4295   -3.0301   -6.3120 C   0  0  0  1  0  0  0  0  0  0  0  0
   -3.6491    1.9790    1.9710 N   0  0  0  1  0  0  0  0  0  0  0  0
   -2.6497    1.8674    0.8924 C   0  0  0  1  0  0  0  0  0  0  0  0
   -5.2736    3.2213    3.3621 C   0  0  0  1  0  0  0  0  0  0  0  0
   -5.7238    4.4609    3.7746 C   0  0  0  1  0  0  0  0  0  0  0  0
   -5.1902    5.6129    3.3570 N   0  0  0  1  0  0  0  0  0  0  0  0
   -4.1678    5.5385    2.4930 C   0  0  0  1  0  0  0  0  0  0  0  0
   -3.6518    4.3402    2.0311 C   0  0  0  1  0  0  0  0  0  0  0  0
    1.5587   -1.9357    3.5755 H   0  0  0  1  0  0  0  0  0  0  0  0
    4.9882   -3.6211   -1.6881 H   0  0  0  1  0  0  0  0  0  0  0  0
    2.4847   -0.7960   -4.7307 H   0  0  0  1  0  0  0  0  0  0  0  0
    1.9042   -0.8570   -2.3799 H   0  0  0  1  0  0  0  0  0  0  0  0
    5.5696   -3.5599   -4.0428 H   0  0  0  1  0  0  0  0  0  0  0  0
   -1.2376    1.2776    2.4050 H   0  0  0  1  0  0  0  0  0  0  0  0
   -2.3338   -0.8289    2.7853 H   0  0  0  1  0  0  0  0  0  0  0  0
   -2.9655   -0.8853    1.1568 H   0  0  0  1  0  0  0  0  0  0  0  0
   -4.0483    0.5488    3.4846 H   0  0  0  1  0  0  0  0  0  0  0  0
   -4.8301    0.2181    1.9571 H   0  0  0  1  0  0  0  0  0  0  0  0
   -0.8246    0.6048   -0.3200 H   0  0  0  1  0  0  0  0  0  0  0  0
    5.6897   -2.8006   -7.3242 H   0  0  0  1  0  0  0  0  0  0  0  0
    5.0714   -4.0368   -6.2555 H   0  0  0  1  0  0  0  0  0  0  0  0
    6.2926   -2.9225   -5.6889 H   0  0  0  1  0  0  0  0  0  0  0  0
   -2.1550    2.7967    0.7007 H   0  0  0  1  0  0  0  0  0  0  0  0
   -3.0743    1.4948   -0.0163 H   0  0  0  1  0  0  0  0  0  0  0  0
   -5.7223    2.3510    3.7127 H   0  0  0  1  0  0  0  0  0  0  0  0
   -6.5185    4.4994    4.4444 H   0  0  0  1  0  0  0  0  0  0  0  0
   -3.7416    6.4243    2.1535 H   0  0  0  1  0  0  0  0  0  0  0  0
   -2.8549    4.3289    1.3630 H   0  0  0  1  0  0  0  0  0  0  0  0
  1  3  4  0  0  0  0
  1 14  4  0  0  0  0
  1 21  1  0  0  0  0
  2 14  4  0  0  0  0
  2 15  4  0  0  0  0
  2 30  1  0  0  0  0
  3 16  4  0  0  0  0
  4  5  4  0  0  0  0
  4  7  4  0  0  0  0
  4 17  1  0  0  0  0
  5  9  4  0  0  0  0
  5 31  1  0  0  0  0
  6  7  4  0  0  0  0
  6  8  4  0  0  0  0
  6 32  1  0  0  0  0
  7 33  1  0  0  0  0
  8  9  4  0  0  0  0
  8 20  1  0  0  0  0
  9 34  1  0  0  0  0
 10 11  1  0  0  0  0
 10 21  1  0  0  0  0
 10 24  1  0  0  0  0
 10 35  1  0  0  0  0
 11 12  1  0  0  0  0
 11 36  1  0  0  0  0
 11 37  1  0  0  0  0
 12 23  1  0  0  0  0
 12 38  1  0  0  0  0
 12 39  1  0  0  0  0
 13 23  1  0  0  0  0
 13 25  4  0  0  0  0
 13 29  4  0  0  0  0
 15 16  4  0  0  0  0
 15 18  4  0  0  0  0
 16 17  4  0  0  0  0
 17 19  4  0  0  0  0
 18 19  4  0  0  0  0
 20 22  1  0  0  0  0
 21 40  1  0  0  0  0
 22 41  1  0  0  0  0
 22 42  1  0  0  0  0
 22 43  1  0  0  0  0
 23 24  1  0  0  0  0
 24 44  1  0  0  0  0
 24 45  1  0  0  0  0
 25 26  4  0  0  0  0
 25 46  1  0  0  0  0
 26 27  4  0  0  0  0
 26 47  1  0  0  0  0
 27 28  4  0  0  0  0
 28 29  4  0  0  0  0
 28 48  1  0  0  0  0
 29 49  1  0  0  0  0
M  END
> <ConfClashScore>
0 

> <ConfOneFourInteractionScore>
-0.986948 

> <ConfScore>
0.11683 

> <ConfScorePBest>
0.00200718 

> <ConfTolerance>
0.560577 

> <HETNAM>
     OWQ A 303  OWQ                                                       

> <pdb_OW>
Q_303 -16.5129 3.80749 7.62812 0.15963 1.39178 -0.28144 -3.20151 0 0 0 -1.30514 0 0 0 0 0 0 0 0 -8.31393

$$$$
6yky_lig_1.pdb
 OpenBabel04162415593D

 49 53  0  0  0  0  0  0  0  0999 V2000
    1.2029   -2.7196   -1.4755 C   0  0  0  1  0  0  0  0  0  0  0  0
    2.6181   -2.6472   -3.2925 C   0  0  0  1  0  0  0  0  0  0  0  0
    1.5504   -1.5183   -1.0670 N   0  0  0  1  0  0  0  0  0  0  0  0
    2.7634    1.4820   -0.6711 C   0  0  0  1  0  0  0  0  0  0  0  0
    2.3833    1.1928    0.6258 C   0  0  0  1  0  0  0  0  0  0  0  0
    2.4865    3.8226   -0.2327 C   0  0  0  1  0  0  0  0  0  0  0  0
    2.8125    2.7987   -1.1019 C   0  0  0  1  0  0  0  0  0  0  0  0
    2.1053    3.5327    1.0682 C   0  0  0  1  0  0  0  0  0  0  0  0
    2.0564    2.2199    1.4975 C   0  0  0  1  0  0  0  0  0  0  0  0
   -0.3744   -2.8905    0.4168 C   0  0  0  1  0  0  0  0  0  0  0  0
   -1.3889   -3.9120    0.9773 C   0  0  0  1  0  0  0  0  0  0  0  0
   -2.6173   -3.1467    1.4004 C   0  0  0  1  0  0  0  0  0  0  0  0
   -3.3062   -0.7690    0.7205 C   0  0  0  1  0  0  0  0  0  0  0  0
    1.7184   -3.2757   -2.5579 N   0  0  0  1  0  0  0  0  0  0  0  0
    3.0245   -1.3656   -2.9038 C   0  0  0  1  0  0  0  0  0  0  0  0
    2.4482   -0.8113   -1.7424 C   0  0  0  1  0  0  0  0  0  0  0  0
    3.0126    0.4254   -1.5939 N   0  0  0  1  0  0  0  0  0  0  0  0
    3.8960   -0.4611   -3.4010 N   0  0  0  1  0  0  0  0  0  0  0  0
    3.9103    0.5912   -2.6593 N   0  0  0  1  0  0  0  0  0  0  0  0
    1.6904    4.5295    1.8856 O   0  0  0  1  0  0  0  0  0  0  0  0
    0.2900   -3.4079   -0.7668 N   0  0  0  1  0  0  0  0  0  0  0  0
    2.0053    5.8791    1.4904 C   0  0  0  1  0  0  0  0  0  0  0  0
   -2.3853   -1.7930    0.6942 N   0  0  0  1  0  0  0  0  0  0  0  0
   -1.2518   -1.7022    0.0754 C   0  0  0  1  0  0  0  0  0  0  0  0
   -3.2471    0.2072    1.6978 C   0  0  0  1  0  0  0  0  0  0  0  0
   -4.1886    1.2187    1.6848 C   0  0  0  1  0  0  0  0  0  0  0  0
   -5.1628    1.3041    0.7737 N   0  0  0  1  0  0  0  0  0  0  0  0
   -5.2108    0.3486   -0.1654 C   0  0  0  1  0  0  0  0  0  0  0  0
   -4.3068   -0.6974   -0.2290 C   0  0  0  1  0  0  0  0  0  0  0  0
    3.0165   -3.0954   -4.1422 H   0  0  0  1  0  0  0  0  0  0  0  0
    2.3426    0.2047    0.9478 H   0  0  0  1  0  0  0  0  0  0  0  0
    2.5272    4.8107   -0.5546 H   0  0  0  1  0  0  0  0  0  0  0  0
    3.0946    3.0160   -2.0790 H   0  0  0  1  0  0  0  0  0  0  0  0
    1.7743    2.0025    2.4746 H   0  0  0  1  0  0  0  0  0  0  0  0
    0.3577   -2.6306    1.1525 H   0  0  0  1  0  0  0  0  0  0  0  0
   -1.6451   -4.6245    0.2212 H   0  0  0  1  0  0  0  0  0  0  0  0
   -0.9676   -4.4205    1.8192 H   0  0  0  1  0  0  0  0  0  0  0  0
   -2.6608   -3.0319    2.4633 H   0  0  0  1  0  0  0  0  0  0  0  0
   -3.5125   -3.6204    1.0553 H   0  0  0  1  0  0  0  0  0  0  0  0
    0.0595   -4.3120   -1.0668 H   0  0  0  1  0  0  0  0  0  0  0  0
    3.0625    5.9745    1.3560 H   0  0  0  1  0  0  0  0  0  0  0  0
    1.6800    6.5582    2.2507 H   0  0  0  1  0  0  0  0  0  0  0  0
    1.5071    6.1067    0.5712 H   0  0  0  1  0  0  0  0  0  0  0  0
   -1.4257   -1.6827   -0.9802 H   0  0  0  1  0  0  0  0  0  0  0  0
   -0.7578   -0.8009    0.3728 H   0  0  0  1  0  0  0  0  0  0  0  0
   -2.5081    0.1807    2.4291 H   0  0  0  1  0  0  0  0  0  0  0  0
   -4.1364    1.9508    2.4215 H   0  0  0  1  0  0  0  0  0  0  0  0
   -5.9640    0.3957   -0.8809 H   0  0  0  1  0  0  0  0  0  0  0  0
   -4.3795   -1.4158   -0.9774 H   0  0  0  1  0  0  0  0  0  0  0  0
  1  3  4  0  0  0  0
  1 14  4  0  0  0  0
  1 21  1  0  0  0  0
  2 14  4  0  0  0  0
  2 15  4  0  0  0  0
  2 30  1  0  0  0  0
  3 16  4  0  0  0  0
  4  5  4  0  0  0  0
  4  7  4  0  0  0  0
  4 17  1  0  0  0  0
  5  9  4  0  0  0  0
  5 31  1  0  0  0  0
  6  7  4  0  0  0  0
  6  8  4  0  0  0  0
  6 32  1  0  0  0  0
  7 33  1  0  0  0  0
  8  9  4  0  0  0  0
  8 20  1  0  0  0  0
  9 34  1  0  0  0  0
 10 11  1  0  0  0  0
 10 21  1  0  0  0  0
 10 24  1  0  0  0  0
 10 35  1  0  0  0  0
 11 12  1  0  0  0  0
 11 36  1  0  0  0  0
 11 37  1  0  0  0  0
 12 23  1  0  0  0  0
 12 38  1  0  0  0  0
 12 39  1  0  0  0  0
 13 23  1  0  0  0  0
 13 25  4  0  0  0  0
 13 29  4  0  0  0  0
 15 16  4  0  0  0  0
 15 18  4  0  0  0  0
 16 17  4  0  0  0  0
 17 19  4  0  0  0  0
 18 19  4  0  0  0  0
 20 22  1  0  0  0  0
 21 40  1  0  0  0  0
 22 41  1  0  0  0  0
 22 42  1  0  0  0  0
 22 43  1  0  0  0  0
 23 24  1  0  0  0  0
 24 44  1  0  0  0  0
 24 45  1  0  0  0  0
 25 26  4  0  0  0  0
 25 46  1  0  0  0  0
 26 27  4  0  0  0  0
 26 47  1  0  0  0  0
 27 28  4  0  0  0  0
 28 29  4  0  0  0  0
 28 48  1  0  0  0  0
 29 49  1  0  0  0  0
M  END
> <ConfClashScore>
0 

> <ConfOneFourInteractionScore>
-0.984874 

> <ConfScore>
0.117289 

> <ConfScorePBest>
0.00199385 

> <ConfTolerance>
0.693703 

> <HETNAM>
     OWQ A 303  OWQ                                                       

> <pdb_OW>
Q_303 -16.5129 3.80749 7.62812 0.15963 1.39178 -0.28144 -3.20151 0 0 0 -1.30514 0 0 0 0 0 0 0 0 -8.31393

$$$$
6yky_lig_1.pdb
 OpenBabel04162415593D

 49 53  0  0  0  0  0  0  0  0999 V2000
    1.6038   -2.6861   -1.5432 C   0  0  0  1  0  0  0  0  0  0  0  0
    3.5369   -2.6125   -2.7951 C   0  0  0  1  0  0  0  0  0  0  0  0
    1.7805   -1.4720   -1.0684 N   0  0  0  1  0  0  0  0  0  0  0  0
    2.7529    1.5580   -0.3587 C   0  0  0  1  0  0  0  0  0  0  0  0
    1.3827    1.7288   -0.3002 C   0  0  0  1  0  0  0  0  0  0  0  0
    3.0595    3.5599    0.9241 C   0  0  0  1  0  0  0  0  0  0  0  0
    3.5927    2.4762    0.2520 C   0  0  0  1  0  0  0  0  0  0  0  0
    1.6852    3.7314    0.9829 C   0  0  0  1  0  0  0  0  0  0  0  0
    0.8480    2.8156    0.3739 C   0  0  0  1  0  0  0  0  0  0  0  0
   -0.4848   -2.8754   -0.2395 C   0  0  0  1  0  0  0  0  0  0  0  0
   -1.4525   -3.9865    0.1981 C   0  0  0  1  0  0  0  0  0  0  0  0
   -2.6877   -3.1757    0.6195 C   0  0  0  1  0  0  0  0  0  0  0  0
   -3.0147   -0.6146    0.6191 C   0  0  0  1  0  0  0  0  0  0  0  0
    2.4546   -3.2479   -2.3842 N   0  0  0  1  0  0  0  0  0  0  0  0
    3.7745   -1.3172   -2.3214 C   0  0  0  1  0  0  0  0  0  0  0  0
    2.8404   -0.7572   -1.4258 C   0  0  0  1  0  0  0  0  0  0  0  0
    3.3069    0.4928   -1.1260 N   0  0  0  1  0  0  0  0  0  0  0  0
    4.7482   -0.4028   -2.5233 N   0  0  0  1  0  0  0  0  0  0  0  0
    4.5026    0.6606   -1.8404 N   0  0  0  1  0  0  0  0  0  0  0  0
    1.2805    4.8303    1.6629 O   0  0  0  1  0  0  0  0  0  0  0  0
    0.5184   -3.3821   -1.1597 N   0  0  0  1  0  0  0  0  0  0  0  0
   -0.1336    5.0669    1.7456 C   0  0  0  1  0  0  0  0  0  0  0  0
   -2.4255   -1.7840    0.1445 N   0  0  0  1  0  0  0  0  0  0  0  0
   -1.4184   -1.8950   -0.9270 C   0  0  0  1  0  0  0  0  0  0  0  0
   -4.2123   -0.0870    0.1728 C   0  0  0  1  0  0  0  0  0  0  0  0
   -4.6764    1.0833    0.7425 C   0  0  0  1  0  0  0  0  0  0  0  0
   -4.0245    1.7401    1.7069 N   0  0  0  1  0  0  0  0  0  0  0  0
   -2.8626    1.2197    2.1269 C   0  0  0  1  0  0  0  0  0  0  0  0
   -2.3266    0.0510    1.6147 C   0  0  0  1  0  0  0  0  0  0  0  0
    4.1990   -3.0652   -3.4571 H   0  0  0  1  0  0  0  0  0  0  0  0
    0.7528    1.0420   -0.7618 H   0  0  0  1  0  0  0  0  0  0  0  0
    3.6895    4.2467    1.3857 H   0  0  0  1  0  0  0  0  0  0  0  0
    4.6239    2.3498    0.2045 H   0  0  0  1  0  0  0  0  0  0  0  0
   -0.1832    2.9420    0.4214 H   0  0  0  1  0  0  0  0  0  0  0  0
   -0.0022   -2.4264    0.6033 H   0  0  0  1  0  0  0  0  0  0  0  0
   -1.0562   -4.5479    1.0183 H   0  0  0  1  0  0  0  0  0  0  0  0
   -1.6782   -4.6483   -0.6118 H   0  0  0  1  0  0  0  0  0  0  0  0
   -2.8026   -3.1934    1.6831 H   0  0  0  1  0  0  0  0  0  0  0  0
   -3.5695   -3.5692    0.1584 H   0  0  0  1  0  0  0  0  0  0  0  0
    0.3973   -4.2843   -1.5227 H   0  0  0  1  0  0  0  0  0  0  0  0
   -0.5210    4.6098    2.6322 H   0  0  0  1  0  0  0  0  0  0  0  0
   -0.6161    4.6466    0.8880 H   0  0  0  1  0  0  0  0  0  0  0  0
   -0.3174    6.1205    1.7783 H   0  0  0  1  0  0  0  0  0  0  0  0
   -1.8305   -2.2936   -1.8305 H   0  0  0  1  0  0  0  0  0  0  0  0
   -0.9423   -0.9594   -1.1339 H   0  0  0  1  0  0  0  0  0  0  0  0
   -4.7536   -0.5620   -0.5775 H   0  0  0  1  0  0  0  0  0  0  0  0
   -5.5791    1.4729    0.4036 H   0  0  0  1  0  0  0  0  0  0  0  0
   -2.3386    1.7184    2.8741 H   0  0  0  1  0  0  0  0  0  0  0  0
   -1.4229   -0.3189    1.9725 H   0  0  0  1  0  0  0  0  0  0  0  0
  1  3  4  0  0  0  0
  1 14  4  0  0  0  0
  1 21  1  0  0  0  0
  2 14  4  0  0  0  0
  2 15  4  0  0  0  0
  2 30  1  0  0  0  0
  3 16  4  0  0  0  0
  4  5  4  0  0  0  0
  4  7  4  0  0  0  0
  4 17  1  0  0  0  0
  5  9  4  0  0  0  0
  5 31  1  0  0  0  0
  6  7  4  0  0  0  0
  6  8  4  0  0  0  0
  6 32  1  0  0  0  0
  7 33  1  0  0  0  0
  8  9  4  0  0  0  0
  8 20  1  0  0  0  0
  9 34  1  0  0  0  0
 10 11  1  0  0  0  0
 10 21  1  0  0  0  0
 10 24  1  0  0  0  0
 10 35  1  0  0  0  0
 11 12  1  0  0  0  0
 11 36  1  0  0  0  0
 11 37  1  0  0  0  0
 12 23  1  0  0  0  0
 12 38  1  0  0  0  0
 12 39  1  0  0  0  0
 13 23  1  0  0  0  0
 13 25  4  0  0  0  0
 13 29  4  0  0  0  0
 15 16  4  0  0  0  0
 15 18  4  0  0  0  0
 16 17  4  0  0  0  0
 17 19  4  0  0  0  0
 18 19  4  0  0  0  0
 20 22  1  0  0  0  0
 21 40  1  0  0  0  0
 22 41  1  0  0  0  0
 22 42  1  0  0  0  0
 22 43  1  0  0  0  0
 23 24  1  0  0  0  0
 24 44  1  0  0  0  0
 24 45  1  0  0  0  0
 25 26  4  0  0  0  0
 25 46  1  0  0  0  0
 26 27  4  0  0  0  0
 26 47  1  0  0  0  0
 27 28  4  0  0  0  0
 28 29  4  0  0  0  0
 28 48  1  0  0  0  0
 29 49  1  0  0  0  0
M  END
> <ConfClashScore>
0 

> <ConfOneFourInteractionScore>
-0.986948 

> <ConfScore>
0.12243 

> <ConfScorePBest>
0.00198052 

> <ConfTolerance>
0.499018 

> <HETNAM>
     OWQ A 303  OWQ                                                       

> <pdb_OW>
Q_303 -16.5129 3.80749 7.62812 0.15963 1.39178 -0.28144 -3.20151 0 0 0 -1.30514 0 0 0 0 0 0 0 0 -8.31393

$$$$
6yky_lig_1.pdb
 OpenBabel04162415593D

 49 53  0  0  0  0  0  0  0  0999 V2000
    0.6377   -0.5647    1.0125 C   0  0  0  1  0  0  0  0  0  0  0  0
    1.7535   -1.8746    2.5450 C   0  0  0  1  0  0  0  0  0  0  0  0
    1.3268   -1.0402   -0.0023 N   0  0  0  1  0  0  0  0  0  0  0  0
    3.3099   -2.5600   -2.0282 C   0  0  0  1  0  0  0  0  0  0  0  0
    3.2398   -3.7377   -2.7481 C   0  0  0  1  0  0  0  0  0  0  0  0
    3.8817   -1.3686   -4.0284 C   0  0  0  1  0  0  0  0  0  0  0  0
    3.6339   -1.3741   -2.6686 C   0  0  0  1  0  0  0  0  0  0  0  0
    3.8114   -2.5497   -4.7506 C   0  0  0  1  0  0  0  0  0  0  0  0
    3.4883   -3.7320   -4.1118 C   0  0  0  1  0  0  0  0  0  0  0  0
   -1.1964    0.8962    1.8839 C   0  0  0  1  0  0  0  0  0  0  0  0
   -2.2606   -0.1432    2.3327 C   0  0  0  1  0  0  0  0  0  0  0  0
   -3.4940    0.6404    2.8286 C   0  0  0  1  0  0  0  0  0  0  0  0
   -4.0661    3.1359    2.5521 C   0  0  0  1  0  0  0  0  0  0  0  0
    0.8399   -0.9661    2.2553 N   0  0  0  1  0  0  0  0  0  0  0  0
    2.5160   -2.4147    1.5032 C   0  0  0  1  0  0  0  0  0  0  0  0
    2.2665   -1.9572    0.1930 C   0  0  0  1  0  0  0  0  0  0  0  0
    3.1352   -2.6360   -0.6161 N   0  0  0  1  0  0  0  0  0  0  0  0
    3.5048   -3.3327    1.4357 N   0  0  0  1  0  0  0  0  0  0  0  0
    3.8849   -3.4821    0.2147 N   0  0  0  1  0  0  0  0  0  0  0  0
    4.0377   -2.6684   -6.0805 O   0  0  0  1  0  0  0  0  0  0  0  0
   -0.3149    0.3596    0.8460 N   0  0  0  1  0  0  0  0  0  0  0  0
    4.4182   -1.4792   -6.7901 C   0  0  0  1  0  0  0  0  0  0  0  0
   -3.2741    1.9977    2.2540 N   0  0  0  1  0  0  0  0  0  0  0  0
   -2.1239    1.9977    1.3353 C   0  0  0  1  0  0  0  0  0  0  0  0
   -4.4866    4.0301    1.5849 C   0  0  0  1  0  0  0  0  0  0  0  0
   -5.3391    5.0538    1.9519 C   0  0  0  1  0  0  0  0  0  0  0  0
   -5.7806    5.2304    3.2010 N   0  0  0  1  0  0  0  0  0  0  0  0
   -5.3615    4.3587    4.1293 C   0  0  0  1  0  0  0  0  0  0  0  0
   -4.5115    3.3032    3.8487 C   0  0  0  1  0  0  0  0  0  0  0  0
    1.9032   -2.1824    3.5271 H   0  0  0  1  0  0  0  0  0  0  0  0
    3.0007   -4.6281   -2.2668 H   0  0  0  1  0  0  0  0  0  0  0  0
    4.1208   -0.4783   -4.5097 H   0  0  0  1  0  0  0  0  0  0  0  0
    3.6906   -0.4887   -2.1261 H   0  0  0  1  0  0  0  0  0  0  0  0
    3.4317   -4.6175   -4.6543 H   0  0  0  1  0  0  0  0  0  0  0  0
   -0.6083    1.2446    2.7071 H   0  0  0  1  0  0  0  0  0  0  0  0
   -1.8696   -0.7477    3.1242 H   0  0  0  1  0  0  0  0  0  0  0  0
   -2.5322   -0.7675    1.5072 H   0  0  0  1  0  0  0  0  0  0  0  0
   -4.4000    0.2074    2.4589 H   0  0  0  1  0  0  0  0  0  0  0  0
   -3.5248    0.6746    3.8976 H   0  0  0  1  0  0  0  0  0  0  0  0
   -0.4343    0.7123   -0.0605 H   0  0  0  1  0  0  0  0  0  0  0  0
    4.7641   -1.7420   -7.7679 H   0  0  0  1  0  0  0  0  0  0  0  0
    5.2009   -0.9811   -6.2570 H   0  0  0  1  0  0  0  0  0  0  0  0
    3.5730   -0.8284   -6.8739 H   0  0  0  1  0  0  0  0  0  0  0  0
   -2.4359    1.7679    0.3379 H   0  0  0  1  0  0  0  0  0  0  0  0
   -1.6311    2.9475    1.3455 H   0  0  0  1  0  0  0  0  0  0  0  0
   -4.1673    3.9339    0.5998 H   0  0  0  1  0  0  0  0  0  0  0  0
   -5.6532    5.7211    1.2186 H   0  0  0  1  0  0  0  0  0  0  0  0
   -5.6912    4.4817    5.1080 H   0  0  0  1  0  0  0  0  0  0  0  0
   -4.2139    2.6484    4.5999 H   0  0  0  1  0  0  0  0  0  0  0  0
  1  3  4  0  0  0  0
  1 14  4  0  0  0  0
  1 21  1  0  0  0  0
  2 14  4  0  0  0  0
  2 15  4  0  0  0  0
  2 30  1  0  0  0  0
  3 16  4  0  0  0  0
  4  5  4  0  0  0  0
  4  7  4  0  0  0  0
  4 17  1  0  0  0  0
  5  9  4  0  0  0  0
  5 31  1  0  0  0  0
  6  7  4  0  0  0  0
  6  8  4  0  0  0  0
  6 32  1  0  0  0  0
  7 33  1  0  0  0  0
  8  9  4  0  0  0  0
  8 20  1  0  0  0  0
  9 34  1  0  0  0  0
 10 11  1  0  0  0  0
 10 21  1  0  0  0  0
 10 24  1  0  0  0  0
 10 35  1  0  0  0  0
 11 12  1  0  0  0  0
 11 36  1  0  0  0  0
 11 37  1  0  0  0  0
 12 23  1  0  0  0  0
 12 38  1  0  0  0  0
 12 39  1  0  0  0  0
 13 23  1  0  0  0  0
 13 25  4  0  0  0  0
 13 29  4  0  0  0  0
 15 16  4  0  0  0  0
 15 18  4  0  0  0  0
 16 17  4  0  0  0  0
 17 19  4  0  0  0  0
 18 19  4  0  0  0  0
 20 22  1  0  0  0  0
 21 40  1  0  0  0  0
 22 41  1  0  0  0  0
 22 42  1  0  0  0  0
 22 43  1  0  0  0  0
 23 24  1  0  0  0  0
 24 44  1  0  0  0  0
 24 45  1  0  0  0  0
 25 26  4  0  0  0  0
 25 46  1  0  0  0  0
 26 27  4  0  0  0  0
 26 47  1  0  0  0  0
 27 28  4  0  0  0  0
 28 29  4  0  0  0  0
 28 48  1  0  0  0  0
 29 49  1  0  0  0  0
M  END
> <ConfClashScore>
0 

> <ConfOneFourInteractionScore>
-0.986948 

> <ConfScore>
0.122893 

> <ConfScorePBest>
0.00196719 

> <ConfTolerance>
0.619741 

> <HETNAM>
     OWQ A 303  OWQ                                                       

> <pdb_OW>
Q_303 -16.5129 3.80749 7.62812 0.15963 1.39178 -0.28144 -3.20151 0 0 0 -1.30514 0 0 0 0 0 0 0 0 -8.31393

$$$$
6yky_lig_1.pdb
 OpenBabel04162415593D

 49 53  0  0  0  0  0  0  0  0999 V2000
   -0.2578   -0.4803    0.2200 C   0  0  0  1  0  0  0  0  0  0  0  0
   -2.0091   -0.8641   -1.2275 C   0  0  0  1  0  0  0  0  0  0  0  0
    0.6387   -0.9258   -0.6336 N   0  0  0  1  0  0  0  0  0  0  0  0
    2.2939   -2.1483   -3.2011 C   0  0  0  1  0  0  0  0  0  0  0  0
    3.2706   -1.2444   -2.8281 C   0  0  0  1  0  0  0  0  0  0  0  0
    3.9524   -3.4949   -4.2889 C   0  0  0  1  0  0  0  0  0  0  0  0
    2.6348   -3.2739   -3.9348 C   0  0  0  1  0  0  0  0  0  0  0  0
    4.9322   -2.5883   -3.9149 C   0  0  0  1  0  0  0  0  0  0  0  0
    4.5920   -1.4661   -3.1833 C   0  0  0  1  0  0  0  0  0  0  0  0
   -0.6952    0.5065    2.4862 C   0  0  0  1  0  0  0  0  0  0  0  0
   -1.7674   -0.5153    2.9558 C   0  0  0  1  0  0  0  0  0  0  0  0
   -2.9741    0.2883    3.4841 C   0  0  0  1  0  0  0  0  0  0  0  0
   -3.4967    2.7803    3.2275 C   0  0  0  1  0  0  0  0  0  0  0  0
   -1.5485   -0.4472   -0.0621 N   0  0  0  1  0  0  0  0  0  0  0  0
   -1.0988   -1.3485   -2.1738 C   0  0  0  1  0  0  0  0  0  0  0  0
    0.2686   -1.3655   -1.8301 C   0  0  0  1  0  0  0  0  0  0  0  0
    0.9245   -1.8775   -2.9153 N   0  0  0  1  0  0  0  0  0  0  0  0
   -1.2130   -1.8405   -3.4267 N   0  0  0  1  0  0  0  0  0  0  0  0
   -0.0515   -2.1567   -3.8836 N   0  0  0  1  0  0  0  0  0  0  0  0
    6.2341   -2.8478   -4.1823 O   0  0  0  1  0  0  0  0  0  0  0  0
    0.1527   -0.0422    1.4238 N   0  0  0  1  0  0  0  0  0  0  0  0
    7.1933   -1.8472   -3.8064 C   0  0  0  1  0  0  0  0  0  0  0  0
   -2.7429    1.6441    2.9101 N   0  0  0  1  0  0  0  0  0  0  0  0
   -1.6150    1.6273    1.9643 C   0  0  0  1  0  0  0  0  0  0  0  0
   -3.5536    3.2478    4.5275 C   0  0  0  1  0  0  0  0  0  0  0  0
   -4.3065    4.3750    4.7961 C   0  0  0  1  0  0  0  0  0  0  0  0
   -4.9905    5.0418    3.8613 N   0  0  0  1  0  0  0  0  0  0  0  0
   -4.9298    4.5750    2.6060 C   0  0  0  1  0  0  0  0  0  0  0  0
   -4.1979    3.4563    2.2482 C   0  0  0  1  0  0  0  0  0  0  0  0
   -3.0271   -0.8332   -1.4377 H   0  0  0  1  0  0  0  0  0  0  0  0
    3.0141   -0.3979   -2.2811 H   0  0  0  1  0  0  0  0  0  0  0  0
    4.2089   -4.3414   -4.8359 H   0  0  0  1  0  0  0  0  0  0  0  0
    1.8992   -3.9520   -4.2189 H   0  0  0  1  0  0  0  0  0  0  0  0
    5.3275   -0.7880   -2.8992 H   0  0  0  1  0  0  0  0  0  0  0  0
   -0.0814    0.8402    3.2965 H   0  0  0  1  0  0  0  0  0  0  0  0
   -2.0699   -1.1308    2.1344 H   0  0  0  1  0  0  0  0  0  0  0  0
   -1.3689   -1.1306    3.7353 H   0  0  0  1  0  0  0  0  0  0  0  0
   -3.8963   -0.1263    3.1343 H   0  0  0  1  0  0  0  0  0  0  0  0
   -2.9788    0.3182    4.5537 H   0  0  0  1  0  0  0  0  0  0  0  0
    1.1136   -0.0951    1.6088 H   0  0  0  1  0  0  0  0  0  0  0  0
    8.1825   -2.2275   -3.9538 H   0  0  0  1  0  0  0  0  0  0  0  0
    7.0587   -1.5939   -2.7756 H   0  0  0  1  0  0  0  0  0  0  0  0
    7.0533   -0.9748   -4.4099 H   0  0  0  1  0  0  0  0  0  0  0  0
   -1.1047    2.5678    1.9667 H   0  0  0  1  0  0  0  0  0  0  0  0
   -1.9547    1.4078    0.9737 H   0  0  0  1  0  0  0  0  0  0  0  0
   -3.0396    2.7602    5.2888 H   0  0  0  1  0  0  0  0  0  0  0  0
   -4.3427    4.7223    5.7757 H   0  0  0  1  0  0  0  0  0  0  0  0
   -5.4585    5.0781    1.8651 H   0  0  0  1  0  0  0  0  0  0  0  0
   -4.1764    3.1307    1.2607 H   0  0  0  1  0  0  0  0  0  0  0  0
  1  3  4  0  0  0  0
  1 14  4  0  0  0  0
  1 21  1  0  0  0  0
  2 14  4  0  0  0  0
  2 15  4  0  0  0  0
  2 30  1  0  0  0  0
  3 16  4  0  0  0  0
  4  5  4  0  0  0  0
  4  7  4  0  0  0  0
  4 17  1  0  0  0  0
  5  9  4  0  0  0  0
  5 31  1  0  0  0  0
  6  7  4  0  0  0  0
  6  8  4  0  0  0  0
  6 32  1  0  0  0  0
  7 33  1  0  0  0  0
  8  9  4  0  0  0  0
  8 20  1  0  0  0  0
  9 34  1  0  0  0  0
 10 11  1  0  0  0  0
 10 21  1  0  0  0  0
 10 24  1  0  0  0  0
 10 35  1  0  0  0  0
 11 12  1  0  0  0  0
 11 36  1  0  0  0  0
 11 37  1  0  0  0  0
 12 23  1  0  0  0  0
 12 38  1  0  0  0  0
 12 39  1  0  0  0  0
 13 23  1  0  0  0  0
 13 25  4  0  0  0  0
 13 29  4  0  0  0  0
 15 16  4  0  0  0  0
 15 18  4  0  0  0  0
 16 17  4  0  0  0  0
 17 19  4  0  0  0  0
 18 19  4  0  0  0  0
 20 22  1  0  0  0  0
 21 40  1  0  0  0  0
 22 41  1  0  0  0  0
 22 42  1  0  0  0  0
 22 43  1  0  0  0  0
 23 24  1  0  0  0  0
 24 44  1  0  0  0  0
 24 45  1  0  0  0  0
 25 26  4  0  0  0  0
 25 46  1  0  0  0  0
 26 27  4  0  0  0  0
 26 47  1  0  0  0  0
 27 28  4  0  0  0  0
 28 29  4  0  0  0  0
 28 48  1  0  0  0  0
 29 49  1  0  0  0  0
M  END
> <ConfClashScore>
0 

> <ConfOneFourInteractionScore>
-0.983503 

> <ConfScore>
0.125161 

> <ConfScorePBest>
0.00195387 

> <ConfTolerance>
0.448259 

> <HETNAM>
     OWQ A 303  OWQ                                                       

> <pdb_OW>
Q_303 -16.5129 3.80749 7.62812 0.15963 1.39178 -0.28144 -3.20151 0 0 0 -1.30514 0 0 0 0 0 0 0 0 -8.31393

$$$$
6yky_lig_1.pdb
 OpenBabel04162415593D

 49 53  0  0  0  0  0  0  0  0999 V2000
    0.0306   -0.2999    0.7501 C   0  0  0  1  0  0  0  0  0  0  0  0
   -2.0066   -0.4612   -0.3144 C   0  0  0  1  0  0  0  0  0  0  0  0
    0.6948   -0.7251   -0.3030 N   0  0  0  1  0  0  0  0  0  0  0  0
    1.6855   -1.8264   -3.2410 C   0  0  0  1  0  0  0  0  0  0  0  0
    1.8160   -1.8660   -4.6163 C   0  0  0  1  0  0  0  0  0  0  0  0
    3.9442   -2.5936   -3.0023 C   0  0  0  1  0  0  0  0  0  0  0  0
    2.7502   -2.1933   -2.4327 C   0  0  0  1  0  0  0  0  0  0  0  0
    4.0753   -2.6334   -4.3817 C   0  0  0  1  0  0  0  0  0  0  0  0
    3.0135   -2.2675   -5.1874 C   0  0  0  1  0  0  0  0  0  0  0  0
    0.1034    0.5647    3.0667 C   0  0  0  1  0  0  0  0  0  0  0  0
   -0.9022   -0.4312    3.6860 C   0  0  0  1  0  0  0  0  0  0  0  0
   -2.1038    0.3594    4.1387 C   0  0  0  1  0  0  0  0  0  0  0  0
   -2.7925    2.7379    3.4358 C   0  0  0  1  0  0  0  0  0  0  0  0
   -1.2844   -0.1690    0.7520 N   0  0  0  1  0  0  0  0  0  0  0  0
   -1.3511   -0.9182   -1.4634 C   0  0  0  1  0  0  0  0  0  0  0  0
    0.0527   -1.0427   -1.4205 C   0  0  0  1  0  0  0  0  0  0  0  0
    0.4292   -1.5009   -2.6526 N   0  0  0  1  0  0  0  0  0  0  0  0
   -1.7591   -1.2981   -2.6940 N   0  0  0  1  0  0  0  0  0  0  0  0
   -0.7446   -1.6425   -3.4079 N   0  0  0  1  0  0  0  0  0  0  0  0
    5.2808   -3.0438   -4.8213 O   0  0  0  1  0  0  0  0  0  0  0  0
    0.7160    0.0143    1.8702 N   0  0  0  1  0  0  0  0  0  0  0  0
    5.4701   -2.9636   -6.2531 C   0  0  0  1  0  0  0  0  0  0  0  0
   -1.8812    1.6951    3.3962 N   0  0  0  1  0  0  0  0  0  0  0  0
   -0.7708    1.7577    2.7337 C   0  0  0  1  0  0  0  0  0  0  0  0
   -2.6123    3.7980    2.5666 C   0  0  0  1  0  0  0  0  0  0  0  0
   -3.5175    4.8418    2.5947 C   0  0  0  1  0  0  0  0  0  0  0  0
   -4.5643    4.8845    3.4246 N   0  0  0  1  0  0  0  0  0  0  0  0
   -4.7244    3.8522    4.2648 C   0  0  0  1  0  0  0  0  0  0  0  0
   -3.8685    2.7653    4.3013 C   0  0  0  1  0  0  0  0  0  0  0  0
   -3.0410   -0.3540   -0.3007 H   0  0  0  1  0  0  0  0  0  0  0  0
    1.0159   -1.5945   -5.2226 H   0  0  0  1  0  0  0  0  0  0  0  0
    4.7444   -2.8651   -2.3959 H   0  0  0  1  0  0  0  0  0  0  0  0
    2.6506   -2.1673   -1.3978 H   0  0  0  1  0  0  0  0  0  0  0  0
    3.1131   -2.2934   -6.2223 H   0  0  0  1  0  0  0  0  0  0  0  0
    0.8661    0.8295    3.7689 H   0  0  0  1  0  0  0  0  0  0  0  0
   -0.4561   -0.9281    4.5220 H   0  0  0  1  0  0  0  0  0  0  0  0
   -1.1959   -1.1554    2.9551 H   0  0  0  1  0  0  0  0  0  0  0  0
   -3.0174   -0.1090    3.8373 H   0  0  0  1  0  0  0  0  0  0  0  0
   -2.1058    0.4964    5.1999 H   0  0  0  1  0  0  0  0  0  0  0  0
    1.6841   -0.1380    1.8762 H   0  0  0  1  0  0  0  0  0  0  0  0
    6.3749   -3.4672   -6.5225 H   0  0  0  1  0  0  0  0  0  0  0  0
    5.5326   -1.9367   -6.5474 H   0  0  0  1  0  0  0  0  0  0  0  0
    4.6429   -3.4274   -6.7486 H   0  0  0  1  0  0  0  0  0  0  0  0
   -0.2543    2.6581    2.9934 H   0  0  0  1  0  0  0  0  0  0  0  0
   -0.9841    1.7581    1.6852 H   0  0  0  1  0  0  0  0  0  0  0  0
   -1.8106    3.8097    1.9043 H   0  0  0  1  0  0  0  0  0  0  0  0
   -3.3771    5.6346    1.9364 H   0  0  0  1  0  0  0  0  0  0  0  0
   -5.5310    3.8690    4.9210 H   0  0  0  1  0  0  0  0  0  0  0  0
   -4.0323    1.9839    4.9679 H   0  0  0  1  0  0  0  0  0  0  0  0
  1  3  4  0  0  0  0
  1 14  4  0  0  0  0
  1 21  1  0  0  0  0
  2 14  4  0  0  0  0
  2 15  4  0  0  0  0
  2 30  1  0  0  0  0
  3 16  4  0  0  0  0
  4  5  4  0  0  0  0
  4  7  4  0  0  0  0
  4 17  1  0  0  0  0
  5  9  4  0  0  0  0
  5 31  1  0  0  0  0
  6  7  4  0  0  0  0
  6  8  4  0  0  0  0
  6 32  1  0  0  0  0
  7 33  1  0  0  0  0
  8  9  4  0  0  0  0
  8 20  1  0  0  0  0
  9 34  1  0  0  0  0
 10 11  1  0  0  0  0
 10 21  1  0  0  0  0
 10 24  1  0  0  0  0
 10 35  1  0  0  0  0
 11 12  1  0  0  0  0
 11 36  1  0  0  0  0
 11 37  1  0  0  0  0
 12 23  1  0  0  0  0
 12 38  1  0  0  0  0
 12 39  1  0  0  0  0
 13 23  1  0  0  0  0
 13 25  4  0  0  0  0
 13 29  4  0  0  0  0
 15 16  4  0  0  0  0
 15 18  4  0  0  0  0
 16 17  4  0  0  0  0
 17 19  4  0  0  0  0
 18 19  4  0  0  0  0
 20 22  1  0  0  0  0
 21 40  1  0  0  0  0
 22 41  1  0  0  0  0
 22 42  1  0  0  0  0
 22 43  1  0  0  0  0
 23 24  1  0  0  0  0
 24 44  1  0  0  0  0
 24 45  1  0  0  0  0
 25 26  4  0  0  0  0
 25 46  1  0  0  0  0
 26 27  4  0  0  0  0
 26 47  1  0  0  0  0
 27 28  4  0  0  0  0
 28 29  4  0  0  0  0
 28 48  1  0  0  0  0
 29 49  1  0  0  0  0
M  END
> <ConfClashScore>
0 

> <ConfOneFourInteractionScore>
-0.983503 

> <ConfScore>
0.126153 

> <ConfScorePBest>
0.00194054 

> <ConfTolerance>
0.487765 

> <HETNAM>
     OWQ A 303  OWQ                                                       

> <pdb_OW>
Q_303 -16.5129 3.80749 7.62812 0.15963 1.39178 -0.28144 -3.20151 0 0 0 -1.30514 0 0 0 0 0 0 0 0 -8.31393

$$$$
6yky_lig_1.pdb
 OpenBabel04162415593D

 49 53  0  0  0  0  0  0  0  0999 V2000
    0.9957   -1.5597   -2.4147 C   0  0  0  1  0  0  0  0  0  0  0  0
    3.0454   -2.0996   -3.3185 C   0  0  0  1  0  0  0  0  0  0  0  0
    1.5264   -1.1151   -1.2960 N   0  0  0  1  0  0  0  0  0  0  0  0
    3.4887   -0.1902    1.1779 C   0  0  0  1  0  0  0  0  0  0  0  0
    4.5773    0.1503    1.9584 C   0  0  0  1  0  0  0  0  0  0  0  0
    2.0134    0.4101    2.9696 C   0  0  0  1  0  0  0  0  0  0  0  0
    2.2049   -0.0626    1.6851 C   0  0  0  1  0  0  0  0  0  0  0  0
    3.1051    0.7517    3.7526 C   0  0  0  1  0  0  0  0  0  0  0  0
    4.3850    0.6244    3.2467 C   0  0  0  1  0  0  0  0  0  0  0  0
   -1.2282   -1.0281   -1.5070 C   0  0  0  1  0  0  0  0  0  0  0  0
   -2.2894   -2.0586   -1.1525 C   0  0  0  1  0  0  0  0  0  0  0  0
   -3.3854   -1.2173   -0.5230 C   0  0  0  1  0  0  0  0  0  0  0  0
   -4.3489    1.0194   -1.3046 C   0  0  0  1  0  0  0  0  0  0  0  0
    1.7288   -2.0404   -3.4036 N   0  0  0  1  0  0  0  0  0  0  0  0
    3.6630   -1.6397   -2.1499 C   0  0  0  1  0  0  0  0  0  0  0  0
    2.8420   -1.1352   -1.1206 C   0  0  0  1  0  0  0  0  0  0  0  0
    3.6868   -0.7617   -0.1122 N   0  0  0  1  0  0  0  0  0  0  0  0
    4.9447   -1.5531   -1.7318 N   0  0  0  1  0  0  0  0  0  0  0  0
    4.9893   -1.0458   -0.5493 N   0  0  0  1  0  0  0  0  0  0  0  0
    2.7947    1.1968    4.9934 O   0  0  0  1  0  0  0  0  0  0  0  0
   -0.3602   -1.5238   -2.5606 N   0  0  0  1  0  0  0  0  0  0  0  0
    3.8878    1.5236    5.8657 C   0  0  0  1  0  0  0  0  0  0  0  0
   -3.3077    0.0445   -1.2735 N   0  0  0  1  0  0  0  0  0  0  0  0
   -2.0294    0.1831   -1.9887 C   0  0  0  1  0  0  0  0  0  0  0  0
   -5.6213    0.7485   -1.7728 C   0  0  0  1  0  0  0  0  0  0  0  0
   -6.5637    1.7591   -1.7589 C   0  0  0  1  0  0  0  0  0  0  0  0
   -6.3099    2.9947   -1.3171 N   0  0  0  1  0  0  0  0  0  0  0  0
   -5.0709    3.2445   -0.8702 C   0  0  0  1  0  0  0  0  0  0  0  0
   -4.0680    2.2911   -0.8448 C   0  0  0  1  0  0  0  0  0  0  0  0
    3.6115   -2.4801   -4.1036 H   0  0  0  1  0  0  0  0  0  0  0  0
    5.5406    0.0508    1.5792 H   0  0  0  1  0  0  0  0  0  0  0  0
    1.0501    0.5096    3.3488 H   0  0  0  1  0  0  0  0  0  0  0  0
    1.3860   -0.3227    1.0991 H   0  0  0  1  0  0  0  0  0  0  0  0
    5.2039    0.8844    3.8327 H   0  0  0  1  0  0  0  0  0  0  0  0
   -0.6406   -0.7775   -0.6485 H   0  0  0  1  0  0  0  0  0  0  0  0
   -2.6451   -2.5608   -2.0278 H   0  0  0  1  0  0  0  0  0  0  0  0
   -1.9098   -2.7780   -0.4574 H   0  0  0  1  0  0  0  0  0  0  0  0
   -4.3427   -1.6791   -0.6458 H   0  0  0  1  0  0  0  0  0  0  0  0
   -3.1969   -1.0573    0.5181 H   0  0  0  1  0  0  0  0  0  0  0  0
   -0.7588   -1.8408   -3.3979 H   0  0  0  1  0  0  0  0  0  0  0  0
    4.6750    1.9744    5.2984 H   0  0  0  1  0  0  0  0  0  0  0  0
    4.2504    0.6316    6.3323 H   0  0  0  1  0  0  0  0  0  0  0  0
    3.5522    2.2083    6.6164 H   0  0  0  1  0  0  0  0  0  0  0  0
   -2.1766    0.1493   -3.0480 H   0  0  0  1  0  0  0  0  0  0  0  0
   -1.5392    1.0970   -1.7252 H   0  0  0  1  0  0  0  0  0  0  0  0
   -5.8646   -0.1979   -2.1286 H   0  0  0  1  0  0  0  0  0  0  0  0
   -7.5194    1.5474   -2.1103 H   0  0  0  1  0  0  0  0  0  0  0  0
   -4.8528    4.2013   -0.5257 H   0  0  0  1  0  0  0  0  0  0  0  0
   -3.1208    2.5278   -0.4863 H   0  0  0  1  0  0  0  0  0  0  0  0
  1  3  4  0  0  0  0
  1 14  4  0  0  0  0
  1 21  1  0  0  0  0
  2 14  4  0  0  0  0
  2 15  4  0  0  0  0
  2 30  1  0  0  0  0
  3 16  4  0  0  0  0
  4  5  4  0  0  0  0
  4  7  4  0  0  0  0
  4 17  1  0  0  0  0
  5  9  4  0  0  0  0
  5 31  1  0  0  0  0
  6  7  4  0  0  0  0
  6  8  4  0  0  0  0
  6 32  1  0  0  0  0
  7 33  1  0  0  0  0
  8  9  4  0  0  0  0
  8 20  1  0  0  0  0
  9 34  1  0  0  0  0
 10 11  1  0  0  0  0
 10 21  1  0  0  0  0
 10 24  1  0  0  0  0
 10 35  1  0  0  0  0
 11 12  1  0  0  0  0
 11 36  1  0  0  0  0
 11 37  1  0  0  0  0
 12 23  1  0  0  0  0
 12 38  1  0  0  0  0
 12 39  1  0  0  0  0
 13 23  1  0  0  0  0
 13 25  4  0  0  0  0
 13 29  4  0  0  0  0
 15 16  4  0  0  0  0
 15 18  4  0  0  0  0
 16 17  4  0  0  0  0
 17 19  4  0  0  0  0
 18 19  4  0  0  0  0
 20 22  1  0  0  0  0
 21 40  1  0  0  0  0
 22 41  1  0  0  0  0
 22 42  1  0  0  0  0
 22 43  1  0  0  0  0
 23 24  1  0  0  0  0
 24 44  1  0  0  0  0
 24 45  1  0  0  0  0
 25 26  4  0  0  0  0
 25 46  1  0  0  0  0
 26 27  4  0  0  0  0
 26 47  1  0  0  0  0
 27 28  4  0  0  0  0
 28 29  4  0  0  0  0
 28 48  1  0  0  0  0
 29 49  1  0  0  0  0
M  END
> <ConfClashScore>
0 

> <ConfOneFourInteractionScore>
-0.986948 

> <ConfScore>
0.127071 

> <ConfScorePBest>
0.00192721 

> <ConfTolerance>
0.961009 

> <HETNAM>
     OWQ A 303  OWQ                                                       

> <pdb_OW>
Q_303 -16.5129 3.80749 7.62812 0.15963 1.39178 -0.28144 -3.20151 0 0 0 -1.30514 0 0 0 0 0 0 0 0 -8.31393

$$$$
6yky_lig_1.pdb
 OpenBabel04162415593D

 49 53  0  0  0  0  0  0  0  0999 V2000
   -0.0020    0.1778    0.1082 C   0  0  0  1  0  0  0  0  0  0  0  0
    0.5682    2.3888   -0.2012 C   0  0  0  1  0  0  0  0  0  0  0  0
    1.0033   -0.2574   -0.6204 N   0  0  0  1  0  0  0  0  0  0  0  0
    3.6345   -0.6569   -2.4966 C   0  0  0  1  0  0  0  0  0  0  0  0
    3.5844   -1.8631   -1.8238 C   0  0  0  1  0  0  0  0  0  0  0  0
    5.1441   -1.6097   -4.0969 C   0  0  0  1  0  0  0  0  0  0  0  0
    4.4175   -0.5291   -3.6333 C   0  0  0  1  0  0  0  0  0  0  0  0
    5.0939   -2.8196   -3.4221 C   0  0  0  1  0  0  0  0  0  0  0  0
    4.3131   -2.9467   -2.2888 C   0  0  0  1  0  0  0  0  0  0  0  0
   -1.8692   -0.1833    1.6669 C   0  0  0  1  0  0  0  0  0  0  0  0
   -2.8645   -1.2776    2.0843 C   0  0  0  1  0  0  0  0  0  0  0  0
   -4.0634   -0.4430    2.5605 C   0  0  0  1  0  0  0  0  0  0  0  0
   -4.2997    2.1148    2.6547 C   0  0  0  1  0  0  0  0  0  0  0  0
   -0.2202    1.4644    0.3166 N   0  0  0  1  0  0  0  0  0  0  0  0
    1.6537    1.9817   -0.9852 C   0  0  0  1  0  0  0  0  0  0  0  0
    1.8484    0.5990   -1.1811 C   0  0  0  1  0  0  0  0  0  0  0  0
    2.9586    0.4819   -1.9708 N   0  0  0  1  0  0  0  0  0  0  0  0
    2.6334    2.6321   -1.6502 N   0  0  0  1  0  0  0  0  0  0  0  0
    3.4078    1.7848   -2.2334 N   0  0  0  1  0  0  0  0  0  0  0  0
    5.8412   -3.7909   -3.9592 O   0  0  0  1  0  0  0  0  0  0  0  0
   -0.8985   -0.6899    0.7048 N   0  0  0  1  0  0  0  0  0  0  0  0
    5.7850   -5.1706   -3.4629 C   0  0  0  1  0  0  0  0  0  0  0  0
   -3.7644    0.9559    2.1308 N   0  0  0  1  0  0  0  0  0  0  0  0
   -2.7830    0.8517    1.0350 C   0  0  0  1  0  0  0  0  0  0  0  0
   -5.1971    2.1223    3.7066 C   0  0  0  1  0  0  0  0  0  0  0  0
   -5.6748    3.3356    4.1641 C   0  0  0  1  0  0  0  0  0  0  0  0
   -5.3164    4.5114    3.6396 N   0  0  0  1  0  0  0  0  0  0  0  0
   -4.4491    4.4892    2.6176 C   0  0  0  1  0  0  0  0  0  0  0  0
   -3.9185    3.3207    2.0994 C   0  0  0  1  0  0  0  0  0  0  0  0
    0.3861    3.3983   -0.0300 H   0  0  0  1  0  0  0  0  0  0  0  0
    3.0001   -1.9577   -0.9687 H   0  0  0  1  0  0  0  0  0  0  0  0
    5.7284   -1.5151   -4.9520 H   0  0  0  1  0  0  0  0  0  0  0  0
    4.4583    0.3797   -4.1373 H   0  0  0  1  0  0  0  0  0  0  0  0
    4.2723   -3.8555   -1.7848 H   0  0  0  1  0  0  0  0  0  0  0  0
   -1.3552    0.2184    2.5151 H   0  0  0  1  0  0  0  0  0  0  0  0
   -3.1281   -1.9014    1.2559 H   0  0  0  1  0  0  0  0  0  0  0  0
   -2.4710   -1.8814    2.8751 H   0  0  0  1  0  0  0  0  0  0  0  0
   -4.9668   -0.7903    2.1041 H   0  0  0  1  0  0  0  0  0  0  0  0
   -4.1578   -0.4961    3.6250 H   0  0  0  1  0  0  0  0  0  0  0  0
   -0.8811   -1.6439    0.4810 H   0  0  0  1  0  0  0  0  0  0  0  0
    4.7864   -5.5435   -3.5568 H   0  0  0  1  0  0  0  0  0  0  0  0
    6.0780   -5.1915   -2.4341 H   0  0  0  1  0  0  0  0  0  0  0  0
    6.4494   -5.7829   -4.0361 H   0  0  0  1  0  0  0  0  0  0  0  0
   -2.2801    1.7783    0.8522 H   0  0  0  1  0  0  0  0  0  0  0  0
   -3.2259    0.5003    0.1266 H   0  0  0  1  0  0  0  0  0  0  0  0
   -5.5068    1.2315    4.1451 H   0  0  0  1  0  0  0  0  0  0  0  0
   -6.3475    3.3336    4.9572 H   0  0  0  1  0  0  0  0  0  0  0  0
   -4.1610    5.3940    2.1934 H   0  0  0  1  0  0  0  0  0  0  0  0
   -3.2456    3.3500    1.3071 H   0  0  0  1  0  0  0  0  0  0  0  0
  1  3  4  0  0  0  0
  1 14  4  0  0  0  0
  1 21  1  0  0  0  0
  2 14  4  0  0  0  0
  2 15  4  0  0  0  0
  2 30  1  0  0  0  0
  3 16  4  0  0  0  0
  4  5  4  0  0  0  0
  4  7  4  0  0  0  0
  4 17  1  0  0  0  0
  5  9  4  0  0  0  0
  5 31  1  0  0  0  0
  6  7  4  0  0  0  0
  6  8  4  0  0  0  0
  6 32  1  0  0  0  0
  7 33  1  0  0  0  0
  8  9  4  0  0  0  0
  8 20  1  0  0  0  0
  9 34  1  0  0  0  0
 10 11  1  0  0  0  0
 10 21  1  0  0  0  0
 10 24  1  0  0  0  0
 10 35  1  0  0  0  0
 11 12  1  0  0  0  0
 11 36  1  0  0  0  0
 11 37  1  0  0  0  0
 12 23  1  0  0  0  0
 12 38  1  0  0  0  0
 12 39  1  0  0  0  0
 13 23  1  0  0  0  0
 13 25  4  0  0  0  0
 13 29  4  0  0  0  0
 15 16  4  0  0  0  0
 15 18  4  0  0  0  0
 16 17  4  0  0  0  0
 17 19  4  0  0  0  0
 18 19  4  0  0  0  0
 20 22  1  0  0  0  0
 21 40  1  0  0  0  0
 22 41  1  0  0  0  0
 22 42  1  0  0  0  0
 22 43  1  0  0  0  0
 23 24  1  0  0  0  0
 24 44  1  0  0  0  0
 24 45  1  0  0  0  0
 25 26  4  0  0  0  0
 25 46  1  0  0  0  0
 26 27  4  0  0  0  0
 26 47  1  0  0  0  0
 27 28  4  0  0  0  0
 28 29  4  0  0  0  0
 28 48  1  0  0  0  0
 29 49  1  0  0  0  0
M  END
> <ConfClashScore>
0.000174363 

> <ConfOneFourInteractionScore>
-0.981795 

> <ConfScore>
0.127747 

> <ConfScorePBest>
0.00191388 

> <ConfTolerance>
0.435281 

> <HETNAM>
     OWQ A 303  OWQ                                                       

> <pdb_OW>
Q_303 -16.5129 3.80749 7.62812 0.15963 1.39178 -0.28144 -3.20151 0 0 0 -1.30514 0 0 0 0 0 0 0 0 -8.31393

$$$$
6yky_lig_1.pdb
 OpenBabel04162415593D

 49 53  0  0  0  0  0  0  0  0999 V2000
   -0.2681   -0.1221    0.0871 C   0  0  0  1  0  0  0  0  0  0  0  0
   -1.7522   -0.2897   -1.6675 C   0  0  0  1  0  0  0  0  0  0  0  0
    0.7211   -0.6426   -0.6067 N   0  0  0  1  0  0  0  0  0  0  0  0
    2.6902   -1.9813   -2.8776 C   0  0  0  1  0  0  0  0  0  0  0  0
    3.6470   -1.0664   -2.4806 C   0  0  0  1  0  0  0  0  0  0  0  0
    4.4181   -3.5264   -3.4894 C   0  0  0  1  0  0  0  0  0  0  0  0
    3.0762   -3.2121   -3.3852 C   0  0  0  1  0  0  0  0  0  0  0  0
    5.3779   -2.6088   -3.0913 C   0  0  0  1  0  0  0  0  0  0  0  0
    4.9927   -1.3817   -2.5851 C   0  0  0  1  0  0  0  0  0  0  0  0
   -0.9266    0.7830    2.4015 C   0  0  0  1  0  0  0  0  0  0  0  0
   -1.9911   -0.2561    2.8501 C   0  0  0  1  0  0  0  0  0  0  0  0
   -3.2239    0.5278    3.3469 C   0  0  0  1  0  0  0  0  0  0  0  0
   -3.7721    2.9910    3.0635 C   0  0  0  1  0  0  0  0  0  0  0  0
   -1.4748    0.0527   -0.4226 N   0  0  0  1  0  0  0  0  0  0  0  0
   -0.7363   -0.8484   -2.4515 C   0  0  0  1  0  0  0  0  0  0  0  0
    0.5356   -1.0166   -1.8667 C   0  0  0  1  0  0  0  0  0  0  0  0
    1.3257   -1.5731   -2.8342 N   0  0  0  1  0  0  0  0  0  0  0  0
   -0.6663   -1.3004   -3.7226 N   0  0  0  1  0  0  0  0  0  0  0  0
    0.5218   -1.7282   -3.9735 N   0  0  0  1  0  0  0  0  0  0  0  0
    6.6745   -2.9764   -3.2243 O   0  0  0  1  0  0  0  0  0  0  0  0
   -0.0446    0.2459    1.3615 N   0  0  0  1  0  0  0  0  0  0  0  0
    6.9496   -4.1311   -4.0325 C   0  0  0  1  0  0  0  0  0  0  0  0
   -3.0035    1.8854    2.7730 N   0  0  0  1  0  0  0  0  0  0  0  0
   -1.8537    1.8853    1.8538 C   0  0  0  1  0  0  0  0  0  0  0  0
   -4.7662    3.4594    2.2245 C   0  0  0  1  0  0  0  0  0  0  0  0
   -5.4866    4.5753    2.6059 C   0  0  0  1  0  0  0  0  0  0  0  0
   -5.2714    5.2337    3.7489 N   0  0  0  1  0  0  0  0  0  0  0  0
   -4.3016    4.7711    4.5507 C   0  0  0  1  0  0  0  0  0  0  0  0
   -3.5349    3.6592    4.2488 C   0  0  0  1  0  0  0  0  0  0  0  0
   -2.7058   -0.1472   -2.0573 H   0  0  0  1  0  0  0  0  0  0  0  0
    3.3573   -0.1415   -2.1035 H   0  0  0  1  0  0  0  0  0  0  0  0
    4.7078   -4.4513   -3.8665 H   0  0  0  1  0  0  0  0  0  0  0  0
    2.3562   -3.8989   -3.6877 H   0  0  0  1  0  0  0  0  0  0  0  0
    5.7127   -0.6949   -2.2827 H   0  0  0  1  0  0  0  0  0  0  0  0
   -0.3379    1.1306    3.2246 H   0  0  0  1  0  0  0  0  0  0  0  0
   -1.6000   -0.8613    3.6411 H   0  0  0  1  0  0  0  0  0  0  0  0
   -2.2633   -0.8798    2.0244 H   0  0  0  1  0  0  0  0  0  0  0  0
   -4.1302    0.0955    2.9774 H   0  0  0  1  0  0  0  0  0  0  0  0
   -3.2542    0.5614    4.4160 H   0  0  0  1  0  0  0  0  0  0  0  0
    0.8853    0.1334    1.6495 H   0  0  0  1  0  0  0  0  0  0  0  0
    6.5435   -3.9866   -5.0119 H   0  0  0  1  0  0  0  0  0  0  0  0
    6.5024   -4.9941   -3.5851 H   0  0  0  1  0  0  0  0  0  0  0  0
    8.0078   -4.2731   -4.1028 H   0  0  0  1  0  0  0  0  0  0  0  0
   -2.1663    1.6563    0.8564 H   0  0  0  1  0  0  0  0  0  0  0  0
   -1.3605    2.8348    1.8643 H   0  0  0  1  0  0  0  0  0  0  0  0
   -4.9681    2.9810    1.3234 H   0  0  0  1  0  0  0  0  0  0  0  0
   -6.2345    4.9205    1.9710 H   0  0  0  1  0  0  0  0  0  0  0  0
   -4.1164    5.2723    5.4430 H   0  0  0  1  0  0  0  0  0  0  0  0
   -2.7942    3.3330    4.9020 H   0  0  0  1  0  0  0  0  0  0  0  0
  1  3  4  0  0  0  0
  1 14  4  0  0  0  0
  1 21  1  0  0  0  0
  2 14  4  0  0  0  0
  2 15  4  0  0  0  0
  2 30  1  0  0  0  0
  3 16  4  0  0  0  0
  4  5  4  0  0  0  0
  4  7  4  0  0  0  0
  4 17  1  0  0  0  0
  5  9  4  0  0  0  0
  5 31  1  0  0  0  0
  6  7  4  0  0  0  0
  6  8  4  0  0  0  0
  6 32  1  0  0  0  0
  7 33  1  0  0  0  0
  8  9  4  0  0  0  0
  8 20  1  0  0  0  0
  9 34  1  0  0  0  0
 10 11  1  0  0  0  0
 10 21  1  0  0  0  0
 10 24  1  0  0  0  0
 10 35  1  0  0  0  0
 11 12  1  0  0  0  0
 11 36  1  0  0  0  0
 11 37  1  0  0  0  0
 12 23  1  0  0  0  0
 12 38  1  0  0  0  0
 12 39  1  0  0  0  0
 13 23  1  0  0  0  0
 13 25  4  0  0  0  0
 13 29  4  0  0  0  0
 15 16  4  0  0  0  0
 15 18  4  0  0  0  0
 16 17  4  0  0  0  0
 17 19  4  0  0  0  0
 18 19  4  0  0  0  0
 20 22  1  0  0  0  0
 21 40  1  0  0  0  0
 22 41  1  0  0  0  0
 22 42  1  0  0  0  0
 22 43  1  0  0  0  0
 23 24  1  0  0  0  0
 24 44  1  0  0  0  0
 24 45  1  0  0  0  0
 25 26  4  0  0  0  0
 25 46  1  0  0  0  0
 26 27  4  0  0  0  0
 26 47  1  0  0  0  0
 27 28  4  0  0  0  0
 28 29  4  0  0  0  0
 28 48  1  0  0  0  0
 29 49  1  0  0  0  0
M  END
> <ConfClashScore>
0 

> <ConfOneFourInteractionScore>
-0.985577 

> <ConfScore>
0.129973 

> <ConfScorePBest>
0.00190055 

> <ConfTolerance>
0.582036 

> <HETNAM>
     OWQ A 303  OWQ                                                       

> <pdb_OW>
Q_303 -16.5129 3.80749 7.62812 0.15963 1.39178 -0.28144 -3.20151 0 0 0 -1.30514 0 0 0 0 0 0 0 0 -8.31393

$$$$
6yky_lig_1.pdb
 OpenBabel04162415593D

 49 53  0  0  0  0  0  0  0  0999 V2000
    0.1615    0.1754    0.5180 C   0  0  0  1  0  0  0  0  0  0  0  0
    0.7672    2.3597    0.1039 C   0  0  0  1  0  0  0  0  0  0  0  0
    1.0019   -0.3017   -0.3747 N   0  0  0  1  0  0  0  0  0  0  0  0
    3.2402   -0.8120   -2.6841 C   0  0  0  1  0  0  0  0  0  0  0  0
    3.1864   -2.0322   -2.0373 C   0  0  0  1  0  0  0  0  0  0  0  0
    4.4656   -1.8168   -4.4829 C   0  0  0  1  0  0  0  0  0  0  0  0
    3.8829   -0.7034   -3.9074 C   0  0  0  1  0  0  0  0  0  0  0  0
    4.4118   -3.0408   -3.8344 C   0  0  0  1  0  0  0  0  0  0  0  0
    3.7708   -3.1487   -2.6146 C   0  0  0  1  0  0  0  0  0  0  0  0
   -1.6010   -0.2421    2.1503 C   0  0  0  1  0  0  0  0  0  0  0  0
   -2.5744   -1.3508    2.5812 C   0  0  0  1  0  0  0  0  0  0  0  0
   -3.7987   -0.5354    3.0251 C   0  0  0  1  0  0  0  0  0  0  0  0
   -4.0987    2.0191    3.0594 C   0  0  0  1  0  0  0  0  0  0  0  0
    0.0417    1.4697    0.7564 N   0  0  0  1  0  0  0  0  0  0  0  0
    1.6780    1.9072   -0.8576 C   0  0  0  1  0  0  0  0  0  0  0  0
    1.7725    0.5179   -1.0792 C   0  0  0  1  0  0  0  0  0  0  0  0
    2.7196    0.3541   -2.0519 N   0  0  0  1  0  0  0  0  0  0  0  0
    2.5532    2.5154   -1.6877 N   0  0  0  1  0  0  0  0  0  0  0  0
    3.1736    1.6365   -2.3949 N   0  0  0  1  0  0  0  0  0  0  0  0
    4.9484   -4.1952   -4.2960 O   0  0  0  1  0  0  0  0  0  0  0  0
   -0.6034   -0.7481    1.2072 N   0  0  0  1  0  0  0  0  0  0  0  0
    5.7993   -4.1081   -5.4497 C   0  0  0  1  0  0  0  0  0  0  0  0
   -3.5285    0.8605    2.5671 N   0  0  0  1  0  0  0  0  0  0  0  0
   -2.5321    0.7559    1.4850 C   0  0  0  1  0  0  0  0  0  0  0  0
   -3.5997    3.2577    2.7009 C   0  0  0  1  0  0  0  0  0  0  0  0
   -4.2024    4.3908    3.2132 C   0  0  0  1  0  0  0  0  0  0  0  0
   -5.2477    4.3548    4.0453 N   0  0  0  1  0  0  0  0  0  0  0  0
   -5.7185    3.1472    4.3879 C   0  0  0  1  0  0  0  0  0  0  0  0
   -5.1782    1.9624    3.9192 C   0  0  0  1  0  0  0  0  0  0  0  0
    0.6638    3.3757    0.3004 H   0  0  0  1  0  0  0  0  0  0  0  0
    2.7076   -2.1127   -1.1176 H   0  0  0  1  0  0  0  0  0  0  0  0
    4.9443   -1.7363   -5.4027 H   0  0  0  1  0  0  0  0  0  0  0  0
    3.9268    0.2157   -4.3921 H   0  0  0  1  0  0  0  0  0  0  0  0
    3.7269   -4.0678   -2.1299 H   0  0  0  1  0  0  0  0  0  0  0  0
   -1.1069    0.1909    2.9949 H   0  0  0  1  0  0  0  0  0  0  0  0
   -2.8131   -1.9992    1.7643 H   0  0  0  1  0  0  0  0  0  0  0  0
   -2.1757   -1.9270    3.3899 H   0  0  0  1  0  0  0  0  0  0  0  0
   -3.9042   -0.5669    4.0894 H   0  0  0  1  0  0  0  0  0  0  0  0
   -4.6879   -0.9148    2.5666 H   0  0  0  1  0  0  0  0  0  0  0  0
   -0.4810   -1.7105    1.0684 H   0  0  0  1  0  0  0  0  0  0  0  0
    5.2340   -3.7488   -6.2841 H   0  0  0  1  0  0  0  0  0  0  0  0
    6.1926   -5.0770   -5.6764 H   0  0  0  1  0  0  0  0  0  0  0  0
    6.6051   -3.4337   -5.2481 H   0  0  0  1  0  0  0  0  0  0  0  0
   -2.9558    0.3735    0.5799 H   0  0  0  1  0  0  0  0  0  0  0  0
   -2.0497    1.6901    1.2868 H   0  0  0  1  0  0  0  0  0  0  0  0
   -2.7860    3.3351    2.0578 H   0  0  0  1  0  0  0  0  0  0  0  0
   -3.8232    5.3190    2.9372 H   0  0  0  1  0  0  0  0  0  0  0  0
   -6.5292    3.0984    5.0375 H   0  0  0  1  0  0  0  0  0  0  0  0
   -5.5775    1.0468    4.2088 H   0  0  0  1  0  0  0  0  0  0  0  0
  1  3  4  0  0  0  0
  1 14  4  0  0  0  0
  1 21  1  0  0  0  0
  2 14  4  0  0  0  0
  2 15  4  0  0  0  0
  2 30  1  0  0  0  0
  3 16  4  0  0  0  0
  4  5  4  0  0  0  0
  4  7  4  0  0  0  0
  4 17  1  0  0  0  0
  5  9  4  0  0  0  0
  5 31  1  0  0  0  0
  6  7  4  0  0  0  0
  6  8  4  0  0  0  0
  6 32  1  0  0  0  0
  7 33  1  0  0  0  0
  8  9  4  0  0  0  0
  8 20  1  0  0  0  0
  9 34  1  0  0  0  0
 10 11  1  0  0  0  0
 10 21  1  0  0  0  0
 10 24  1  0  0  0  0
 10 35  1  0  0  0  0
 11 12  1  0  0  0  0
 11 36  1  0  0  0  0
 11 37  1  0  0  0  0
 12 23  1  0  0  0  0
 12 38  1  0  0  0  0
 12 39  1  0  0  0  0
 13 23  1  0  0  0  0
 13 25  4  0  0  0  0
 13 29  4  0  0  0  0
 15 16  4  0  0  0  0
 15 18  4  0  0  0  0
 16 17  4  0  0  0  0
 17 19  4  0  0  0  0
 18 19  4  0  0  0  0
 20 22  1  0  0  0  0
 21 40  1  0  0  0  0
 22 41  1  0  0  0  0
 22 42  1  0  0  0  0
 22 43  1  0  0  0  0
 23 24  1  0  0  0  0
 24 44  1  0  0  0  0
 24 45  1  0  0  0  0
 25 26  4  0  0  0  0
 25 46  1  0  0  0  0
 26 27  4  0  0  0  0
 26 47  1  0  0  0  0
 27 28  4  0  0  0  0
 28 29  4  0  0  0  0
 28 48  1  0  0  0  0
 29 49  1  0  0  0  0
M  END
> <ConfClashScore>
0 

> <ConfOneFourInteractionScore>
-0.987833 

> <ConfScore>
0.130614 

> <ConfScorePBest>
0.00188723 

> <ConfTolerance>
0.432818 

> <HETNAM>
     OWQ A 303  OWQ                                                       

> <pdb_OW>
Q_303 -16.5129 3.80749 7.62812 0.15963 1.39178 -0.28144 -3.20151 0 0 0 -1.30514 0 0 0 0 0 0 0 0 -8.31393

$$$$
6yky_lig_1.pdb
 OpenBabel04162415593D

 49 53  0  0  0  0  0  0  0  0999 V2000
    1.3964   -2.6283   -1.8037 C   0  0  0  1  0  0  0  0  0  0  0  0
    3.5143   -2.7115   -2.7076 C   0  0  0  1  0  0  0  0  0  0  0  0
    1.5895   -1.4369   -1.2801 N   0  0  0  1  0  0  0  0  0  0  0  0
    2.6994    1.4530   -0.2704 C   0  0  0  1  0  0  0  0  0  0  0  0
    2.0359    2.4868   -0.9038 C   0  0  0  1  0  0  0  0  0  0  0  0
    2.4321    2.5682    1.8348 C   0  0  0  1  0  0  0  0  0  0  0  0
    2.9002    1.4949    1.1005 C   0  0  0  1  0  0  0  0  0  0  0  0
    1.7665    3.6052    1.1998 C   0  0  0  1  0  0  0  0  0  0  0  0
    1.5664    3.5632   -0.1672 C   0  0  0  1  0  0  0  0  0  0  0  0
   -0.7870   -2.7340   -0.6752 C   0  0  0  1  0  0  0  0  0  0  0  0
   -1.7783   -3.8314   -0.2563 C   0  0  0  1  0  0  0  0  0  0  0  0
   -2.9862   -3.0010    0.2040 C   0  0  0  1  0  0  0  0  0  0  0  0
   -3.2538   -0.4150    0.2881 C   0  0  0  1  0  0  0  0  0  0  0  0
    2.3288   -3.2550   -2.4998 N   0  0  0  1  0  0  0  0  0  0  0  0
    3.7741   -1.4445   -2.1730 C   0  0  0  1  0  0  0  0  0  0  0  0
    2.7505   -0.8129   -1.4372 C   0  0  0  1  0  0  0  0  0  0  0  0
    3.2610    0.3906   -1.0361 N   0  0  0  1  0  0  0  0  0  0  0  0
    4.8405   -0.6153   -2.1873 N   0  0  0  1  0  0  0  0  0  0  0  0
    4.5709    0.4606   -1.5335 N   0  0  0  1  0  0  0  0  0  0  0  0
    1.2287    4.6125    1.9277 O   0  0  0  1  0  0  0  0  0  0  0  0
    0.1907   -3.2402   -1.6223 N   0  0  0  1  0  0  0  0  0  0  0  0
    1.4687    4.5996    3.3436 C   0  0  0  1  0  0  0  0  0  0  0  0
   -2.6932   -1.6036   -0.2350 N   0  0  0  1  0  0  0  0  0  0  0  0
   -1.7028   -1.7103   -1.3224 C   0  0  0  1  0  0  0  0  0  0  0  0
   -3.0222    0.8026   -0.3247 C   0  0  0  1  0  0  0  0  0  0  0  0
   -3.5926    1.9386    0.2174 C   0  0  0  1  0  0  0  0  0  0  0  0
   -4.3594    1.9253    1.3120 N   0  0  0  1  0  0  0  0  0  0  0  0
   -4.5720    0.7386    1.8983 C   0  0  0  1  0  0  0  0  0  0  0  0
   -4.0433   -0.4480    1.4210 C   0  0  0  1  0  0  0  0  0  0  0  0
    4.2399   -3.2147   -3.2571 H   0  0  0  1  0  0  0  0  0  0  0  0
    1.8888    2.4572   -1.9329 H   0  0  0  1  0  0  0  0  0  0  0  0
    2.5792    2.5978    2.8640 H   0  0  0  1  0  0  0  0  0  0  0  0
    3.4030    0.7189    1.5764 H   0  0  0  1  0  0  0  0  0  0  0  0
    1.0636    4.3392   -0.6431 H   0  0  0  1  0  0  0  0  0  0  0  0
   -0.2822   -2.3219    0.1735 H   0  0  0  1  0  0  0  0  0  0  0  0
   -2.0315   -4.4637   -1.0815 H   0  0  0  1  0  0  0  0  0  0  0  0
   -1.3868   -4.4261    0.5424 H   0  0  0  1  0  0  0  0  0  0  0  0
   -3.0883   -3.0459    1.2682 H   0  0  0  1  0  0  0  0  0  0  0  0
   -3.8838   -3.3580   -0.2563 H   0  0  0  1  0  0  0  0  0  0  0  0
   -0.0212   -4.0419   -2.1445 H   0  0  0  1  0  0  0  0  0  0  0  0
    2.5149    4.7253    3.5297 H   0  0  0  1  0  0  0  0  0  0  0  0
    1.1438    3.6654    3.7516 H   0  0  0  1  0  0  0  0  0  0  0  0
    0.9262    5.3986    3.8043 H   0  0  0  1  0  0  0  0  0  0  0  0
   -1.2047   -0.7819   -1.5092 H   0  0  0  1  0  0  0  0  0  0  0  0
   -2.1365   -2.0721   -2.2312 H   0  0  0  1  0  0  0  0  0  0  0  0
   -2.4300    0.8624   -1.1775 H   0  0  0  1  0  0  0  0  0  0  0  0
   -3.4161    2.8506   -0.2503 H   0  0  0  1  0  0  0  0  0  0  0  0
   -5.1630    0.7081    2.7535 H   0  0  0  1  0  0  0  0  0  0  0  0
   -4.2367   -1.3474    1.9060 H   0  0  0  1  0  0  0  0  0  0  0  0
  1  3  4  0  0  0  0
  1 14  4  0  0  0  0
  1 21  1  0  0  0  0
  2 14  4  0  0  0  0
  2 15  4  0  0  0  0
  2 30  1  0  0  0  0
  3 16  4  0  0  0  0
  4  5  4  0  0  0  0
  4  7  4  0  0  0  0
  4 17  1  0  0  0  0
  5  9  4  0  0  0  0
  5 31  1  0  0  0  0
  6  7  4  0  0  0  0
  6  8  4  0  0  0  0
  6 32  1  0  0  0  0
  7 33  1  0  0  0  0
  8  9  4  0  0  0  0
  8 20  1  0  0  0  0
  9 34  1  0  0  0  0
 10 11  1  0  0  0  0
 10 21  1  0  0  0  0
 10 24  1  0  0  0  0
 10 35  1  0  0  0  0
 11 12  1  0  0  0  0
 11 36  1  0  0  0  0
 11 37  1  0  0  0  0
 12 23  1  0  0  0  0
 12 38  1  0  0  0  0
 12 39  1  0  0  0  0
 13 23  1  0  0  0  0
 13 25  4  0  0  0  0
 13 29  4  0  0  0  0
 15 16  4  0  0  0  0
 15 18  4  0  0  0  0
 16 17  4  0  0  0  0
 17 19  4  0  0  0  0
 18 19  4  0  0  0  0
 20 22  1  0  0  0  0
 21 40  1  0  0  0  0
 22 41  1  0  0  0  0
 22 42  1  0  0  0  0
 22 43  1  0  0  0  0
 23 24  1  0  0  0  0
 24 44  1  0  0  0  0
 24 45  1  0  0  0  0
 25 26  4  0  0  0  0
 25 46  1  0  0  0  0
 26 27  4  0  0  0  0
 26 47  1  0  0  0  0
 27 28  4  0  0  0  0
 28 29  4  0  0  0  0
 28 48  1  0  0  0  0
 29 49  1  0  0  0  0
M  END
> <ConfClashScore>
0 

> <ConfOneFourInteractionScore>
-0.991755 

> <ConfScore>
0.131157 

> <ConfScorePBest>
0.0018739 

> <ConfTolerance>
0.583425 

> <HETNAM>
     OWQ A 303  OWQ                                                       

> <pdb_OW>
Q_303 -16.5129 3.80749 7.62812 0.15963 1.39178 -0.28144 -3.20151 0 0 0 -1.30514 0 0 0 0 0 0 0 0 -8.31393

$$$$
6yky_lig_1.pdb
 OpenBabel04162415593D

 49 53  0  0  0  0  0  0  0  0999 V2000
    0.5781   -0.0281    0.8189 C   0  0  0  1  0  0  0  0  0  0  0  0
    2.1947    1.4240    1.5854 C   0  0  0  1  0  0  0  0  0  0  0  0
    1.3757   -0.5499   -0.0879 N   0  0  0  1  0  0  0  0  0  0  0  0
    3.7987   -1.3136   -2.1425 C   0  0  0  1  0  0  0  0  0  0  0  0
    3.5659   -0.8420   -3.4206 C   0  0  0  1  0  0  0  0  0  0  0  0
    4.0901   -3.5292   -3.0105 C   0  0  0  1  0  0  0  0  0  0  0  0
    4.0586   -2.6595   -1.9367 C   0  0  0  1  0  0  0  0  0  0  0  0
    3.8566   -3.0564   -4.2926 C   0  0  0  1  0  0  0  0  0  0  0  0
    3.5975   -1.7143   -4.4975 C   0  0  0  1  0  0  0  0  0  0  0  0
   -1.6571    0.0194    1.8670 C   0  0  0  1  0  0  0  0  0  0  0  0
   -2.6504   -1.0759    2.2865 C   0  0  0  1  0  0  0  0  0  0  0  0
   -3.8557   -0.2428    2.7491 C   0  0  0  1  0  0  0  0  0  0  0  0
   -4.1022    2.3126    2.8217 C   0  0  0  1  0  0  0  0  0  0  0  0
    0.9698    0.9332    1.6370 N   0  0  0  1  0  0  0  0  0  0  0  0
    3.0857    0.9052    0.6390 C   0  0  0  1  0  0  0  0  0  0  0  0
    2.6250   -0.1194   -0.2132 C   0  0  0  1  0  0  0  0  0  0  0  0
    3.6781   -0.4369   -1.0257 N   0  0  0  1  0  0  0  0  0  0  0  0
    4.3719    1.1610    0.3148 N   0  0  0  1  0  0  0  0  0  0  0  0
    4.7438    0.3950   -0.6509 N   0  0  0  1  0  0  0  0  0  0  0  0
    3.8823   -3.9094   -5.3440 O   0  0  0  1  0  0  0  0  0  0  0  0
   -0.6819   -0.4885    0.9182 N   0  0  0  1  0  0  0  0  0  0  0  0
    3.6213   -3.3569   -6.6437 C   0  0  0  1  0  0  0  0  0  0  0  0
   -3.5598    1.1541    2.3107 N   0  0  0  1  0  0  0  0  0  0  0  0
   -2.5712    1.0458    1.2218 C   0  0  0  1  0  0  0  0  0  0  0  0
   -4.8393    2.2896    3.9913 C   0  0  0  1  0  0  0  0  0  0  0  0
   -5.3621    3.4755    4.4708 C   0  0  0  1  0  0  0  0  0  0  0  0
   -5.1955    4.6524    3.8597 N   0  0  0  1  0  0  0  0  0  0  0  0
   -4.4825    4.6593    2.7244 C   0  0  0  1  0  0  0  0  0  0  0  0
   -3.9203    3.5198    2.1758 C   0  0  0  1  0  0  0  0  0  0  0  0
    2.4911    2.1805    2.2346 H   0  0  0  1  0  0  0  0  0  0  0  0
    3.3670    0.1671   -3.5745 H   0  0  0  1  0  0  0  0  0  0  0  0
    4.2890   -4.5383   -2.8567 H   0  0  0  1  0  0  0  0  0  0  0  0
    4.2298   -3.0150   -0.9745 H   0  0  0  1  0  0  0  0  0  0  0  0
    3.4263   -1.3588   -5.4597 H   0  0  0  1  0  0  0  0  0  0  0  0
   -1.1500    0.4295    2.7153 H   0  0  0  1  0  0  0  0  0  0  0  0
   -2.2594   -1.6722    3.0842 H   0  0  0  1  0  0  0  0  0  0  0  0
   -2.9064   -1.7070    1.4612 H   0  0  0  1  0  0  0  0  0  0  0  0
   -4.7548   -0.5973    2.2898 H   0  0  0  1  0  0  0  0  0  0  0  0
   -3.9564   -0.2883    3.8134 H   0  0  0  1  0  0  0  0  0  0  0  0
   -0.9582   -1.2094    0.3145 H   0  0  0  1  0  0  0  0  0  0  0  0
    2.6134   -2.9997   -6.6841 H   0  0  0  1  0  0  0  0  0  0  0  0
    3.7613   -4.1135   -7.3873 H   0  0  0  1  0  0  0  0  0  0  0  0
    4.2945   -2.5459   -6.8281 H   0  0  0  1  0  0  0  0  0  0  0  0
   -2.0710    1.9731    1.0351 H   0  0  0  1  0  0  0  0  0  0  0  0
   -3.0071    0.6858    0.3134 H   0  0  0  1  0  0  0  0  0  0  0  0
   -4.9973    1.3967    4.5005 H   0  0  0  1  0  0  0  0  0  0  0  0
   -5.9133    3.4510    5.3524 H   0  0  0  1  0  0  0  0  0  0  0  0
   -4.3451    5.5650    2.2321 H   0  0  0  1  0  0  0  0  0  0  0  0
   -3.3714    3.5716    1.2940 H   0  0  0  1  0  0  0  0  0  0  0  0
  1  3  4  0  0  0  0
  1 14  4  0  0  0  0
  1 21  1  0  0  0  0
  2 14  4  0  0  0  0
  2 15  4  0  0  0  0
  2 30  1  0  0  0  0
  3 16  4  0  0  0  0
  4  5  4  0  0  0  0
  4  7  4  0  0  0  0
  4 17  1  0  0  0  0
  5  9  4  0  0  0  0
  5 31  1  0  0  0  0
  6  7  4  0  0  0  0
  6  8  4  0  0  0  0
  6 32  1  0  0  0  0
  7 33  1  0  0  0  0
  8  9  4  0  0  0  0
  8 20  1  0  0  0  0
  9 34  1  0  0  0  0
 10 11  1  0  0  0  0
 10 21  1  0  0  0  0
 10 24  1  0  0  0  0
 10 35  1  0  0  0  0
 11 12  1  0  0  0  0
 11 36  1  0  0  0  0
 11 37  1  0  0  0  0
 12 23  1  0  0  0  0
 12 38  1  0  0  0  0
 12 39  1  0  0  0  0
 13 23  1  0  0  0  0
 13 25  4  0  0  0  0
 13 29  4  0  0  0  0
 15 16  4  0  0  0  0
 15 18  4  0  0  0  0
 16 17  4  0  0  0  0
 17 19  4  0  0  0  0
 18 19  4  0  0  0  0
 20 22  1  0  0  0  0
 21 40  1  0  0  0  0
 22 41  1  0  0  0  0
 22 42  1  0  0  0  0
 22 43  1  0  0  0  0
 23 24  1  0  0  0  0
 24 44  1  0  0  0  0
 24 45  1  0  0  0  0
 25 26  4  0  0  0  0
 25 46  1  0  0  0  0
 26 27  4  0  0  0  0
 26 47  1  0  0  0  0
 27 28  4  0  0  0  0
 28 29  4  0  0  0  0
 28 48  1  0  0  0  0
 29 49  1  0  0  0  0
M  END
> <ConfClashScore>
0 

> <ConfOneFourInteractionScore>
-0.991755 

> <ConfScore>
0.131157 

> <ConfScorePBest>
0.00186057 

> <ConfTolerance>
0.518133 

> <HETNAM>
     OWQ A 303  OWQ                                                       

> <pdb_OW>
Q_303 -16.5129 3.80749 7.62812 0.15963 1.39178 -0.28144 -3.20151 0 0 0 -1.30514 0 0 0 0 0 0 0 0 -8.31393

$$$$
6yky_lig_1.pdb
 OpenBabel04162415593D

 49 53  0  0  0  0  0  0  0  0999 V2000
    0.1809    0.3072    0.1496 C   0  0  0  1  0  0  0  0  0  0  0  0
    0.9587    2.4637   -0.0830 C   0  0  0  1  0  0  0  0  0  0  0  0
    1.1214   -0.1911   -0.6238 N   0  0  0  1  0  0  0  0  0  0  0  0
    3.6562   -0.7617   -2.5865 C   0  0  0  1  0  0  0  0  0  0  0  0
    3.2879   -1.9815   -2.0513 C   0  0  0  1  0  0  0  0  0  0  0  0
    5.1687   -1.8709   -4.0796 C   0  0  0  1  0  0  0  0  0  0  0  0
    4.5999   -0.7060   -3.6003 C   0  0  0  1  0  0  0  0  0  0  0  0
    4.7993   -3.0945   -3.5429 C   0  0  0  1  0  0  0  0  0  0  0  0
    3.8583   -3.1498   -2.5321 C   0  0  0  1  0  0  0  0  0  0  0  0
   -1.7291   -0.0407    1.6698 C   0  0  0  1  0  0  0  0  0  0  0  0
   -2.7241   -1.1352    2.0871 C   0  0  0  1  0  0  0  0  0  0  0  0
   -3.9236   -0.3010    2.5626 C   0  0  0  1  0  0  0  0  0  0  0  0
   -4.1659    2.2676    2.6609 C   0  0  0  1  0  0  0  0  0  0  0  0
    0.0954    1.5985    0.4173 N   0  0  0  1  0  0  0  0  0  0  0  0
    1.9804    1.9879   -0.9127 C   0  0  0  1  0  0  0  0  0  0  0  0
    2.0334    0.6028   -1.1713 C   0  0  0  1  0  0  0  0  0  0  0  0
    3.1081    0.4132   -1.9954 N   0  0  0  1  0  0  0  0  0  0  0  0
    3.0036    2.5686   -1.5767 N   0  0  0  1  0  0  0  0  0  0  0  0
    3.6771    1.6765   -2.2157 N   0  0  0  1  0  0  0  0  0  0  0  0
    5.2873   -4.2420   -4.0712 O   0  0  0  1  0  0  0  0  0  0  0  0
   -0.7525   -0.5500    0.7030 N   0  0  0  1  0  0  0  0  0  0  0  0
    4.8886   -5.4729   -3.4479 C   0  0  0  1  0  0  0  0  0  0  0  0
   -3.6249    1.0980    2.1326 N   0  0  0  1  0  0  0  0  0  0  0  0
   -2.6430    0.9938    1.0373 C   0  0  0  1  0  0  0  0  0  0  0  0
   -5.3108    2.8221    2.1191 C   0  0  0  1  0  0  0  0  0  0  0  0
   -5.8160    3.9812    2.6766 C   0  0  0  1  0  0  0  0  0  0  0  0
   -5.2525    4.6024    3.7171 N   0  0  0  1  0  0  0  0  0  0  0  0
   -4.1406    4.0563    4.2297 C   0  0  0  1  0  0  0  0  0  0  0  0
   -3.5692    2.8964    3.7362 C   0  0  0  1  0  0  0  0  0  0  0  0
    0.8809    3.4776    0.1351 H   0  0  0  1  0  0  0  0  0  0  0  0
    2.5828   -2.0229   -1.2879 H   0  0  0  1  0  0  0  0  0  0  0  0
    5.8738   -1.8295   -4.8430 H   0  0  0  1  0  0  0  0  0  0  0  0
    4.8800    0.2123   -4.0002 H   0  0  0  1  0  0  0  0  0  0  0  0
    3.5783   -4.0680   -2.1321 H   0  0  0  1  0  0  0  0  0  0  0  0
   -1.2156    0.3614    2.5181 H   0  0  0  1  0  0  0  0  0  0  0  0
   -2.9872   -1.7594    1.2588 H   0  0  0  1  0  0  0  0  0  0  0  0
   -2.3308   -1.7387    2.8783 H   0  0  0  1  0  0  0  0  0  0  0  0
   -4.8266   -0.6488    2.1060 H   0  0  0  1  0  0  0  0  0  0  0  0
   -4.0184   -0.3538    3.6271 H   0  0  0  1  0  0  0  0  0  0  0  0
   -0.7609   -1.4965    0.4491 H   0  0  0  1  0  0  0  0  0  0  0  0
    5.5972   -6.2389   -3.6847 H   0  0  0  1  0  0  0  0  0  0  0  0
    3.9221   -5.7579   -3.8077 H   0  0  0  1  0  0  0  0  0  0  0  0
    4.8497   -5.3389   -2.3871 H   0  0  0  1  0  0  0  0  0  0  0  0
   -2.1404    1.9205    0.8543 H   0  0  0  1  0  0  0  0  0  0  0  0
   -3.0855    0.6420    0.1288 H   0  0  0  1  0  0  0  0  0  0  0  0
   -5.7829    2.3751    1.3073 H   0  0  0  1  0  0  0  0  0  0  0  0
   -6.6788    4.3911    2.2654 H   0  0  0  1  0  0  0  0  0  0  0  0
   -3.6852    4.5273    5.0374 H   0  0  0  1  0  0  0  0  0  0  0  0
   -2.7070    2.5056    4.1669 H   0  0  0  1  0  0  0  0  0  0  0  0
  1  3  4  0  0  0  0
  1 14  4  0  0  0  0
  1 21  1  0  0  0  0
  2 14  4  0  0  0  0
  2 15  4  0  0  0  0
  2 30  1  0  0  0  0
  3 16  4  0  0  0  0
  4  5  4  0  0  0  0
  4  7  4  0  0  0  0
  4 17  1  0  0  0  0
  5  9  4  0  0  0  0
  5 31  1  0  0  0  0
  6  7  4  0  0  0  0
  6  8  4  0  0  0  0
  6 32  1  0  0  0  0
  7 33  1  0  0  0  0
  8  9  4  0  0  0  0
  8 20  1  0  0  0  0
  9 34  1  0  0  0  0
 10 11  1  0  0  0  0
 10 21  1  0  0  0  0
 10 24  1  0  0  0  0
 10 35  1  0  0  0  0
 11 12  1  0  0  0  0
 11 36  1  0  0  0  0
 11 37  1  0  0  0  0
 12 23  1  0  0  0  0
 12 38  1  0  0  0  0
 12 39  1  0  0  0  0
 13 23  1  0  0  0  0
 13 25  4  0  0  0  0
 13 29  4  0  0  0  0
 15 16  4  0  0  0  0
 15 18  4  0  0  0  0
 16 17  4  0  0  0  0
 17 19  4  0  0  0  0
 18 19  4  0  0  0  0
 20 22  1  0  0  0  0
 21 40  1  0  0  0  0
 22 41  1  0  0  0  0
 22 42  1  0  0  0  0
 22 43  1  0  0  0  0
 23 24  1  0  0  0  0
 24 44  1  0  0  0  0
 24 45  1  0  0  0  0
 25 26  4  0  0  0  0
 25 46  1  0  0  0  0
 26 27  4  0  0  0  0
 26 47  1  0  0  0  0
 27 28  4  0  0  0  0
 28 29  4  0  0  0  0
 28 48  1  0  0  0  0
 29 49  1  0  0  0  0
M  END
> <ConfClashScore>
0 

> <ConfOneFourInteractionScore>
-0.984874 

> <ConfScore>
0.131971 

> <ConfScorePBest>
0.00184724 

> <ConfTolerance>
0.37616 

> <HETNAM>
     OWQ A 303  OWQ                                                       

> <pdb_OW>
Q_303 -16.5129 3.80749 7.62812 0.15963 1.39178 -0.28144 -3.20151 0 0 0 -1.30514 0 0 0 0 0 0 0 0 -8.31393

$$$$
6yky_lig_1.pdb
 OpenBabel04162415593D

 49 53  0  0  0  0  0  0  0  0999 V2000
    0.5856    0.4837    0.4662 C   0  0  0  1  0  0  0  0  0  0  0  0
    1.0547    2.5494   -0.4406 C   0  0  0  1  0  0  0  0  0  0  0  0
    1.0902   -0.1618   -0.5631 N   0  0  0  1  0  0  0  0  0  0  0  0
    2.6449   -1.1075   -3.2613 C   0  0  0  1  0  0  0  0  0  0  0  0
    2.8094   -2.1682   -2.3907 C   0  0  0  1  0  0  0  0  0  0  0  0
    3.5346   -2.4339   -5.0491 C   0  0  0  1  0  0  0  0  0  0  0  0
    3.0104   -1.2396   -4.5919 C   0  0  0  1  0  0  0  0  0  0  0  0
    3.6996   -3.4979   -4.1760 C   0  0  0  1  0  0  0  0  0  0  0  0
    3.3351   -3.3660   -2.8494 C   0  0  0  1  0  0  0  0  0  0  0  0
   -0.6129    0.3187    2.6655 C   0  0  0  1  0  0  0  0  0  0  0  0
   -1.6165   -0.7025    3.2458 C   0  0  0  1  0  0  0  0  0  0  0  0
   -2.8578    0.0561    3.6426 C   0  0  0  1  0  0  0  0  0  0  0  0
   -3.6006    2.4333    2.8991 C   0  0  0  1  0  0  0  0  0  0  0  0
    0.5648    1.8034    0.5329 N   0  0  0  1  0  0  0  0  0  0  0  0
    1.6043    1.9146   -1.5602 C   0  0  0  1  0  0  0  0  0  0  0  0
    1.6054    0.5049   -1.5888 C   0  0  0  1  0  0  0  0  0  0  0  0
    2.1895    0.1516   -2.7738 N   0  0  0  1  0  0  0  0  0  0  0  0
    2.1758    2.3485   -2.7048 N   0  0  0  1  0  0  0  0  0  0  0  0
    2.5262    1.3446   -3.4306 N   0  0  0  1  0  0  0  0  0  0  0  0
    4.2205   -4.6321   -4.6833 O   0  0  0  1  0  0  0  0  0  0  0  0
    0.0718   -0.2238    1.4884 N   0  0  0  1  0  0  0  0  0  0  0  0
    4.1899   -5.7716   -3.7927 C   0  0  0  1  0  0  0  0  0  0  0  0
   -2.6403    1.3947    2.9039 N   0  0  0  1  0  0  0  0  0  0  0  0
   -1.5045    1.4857    2.2894 C   0  0  0  1  0  0  0  0  0  0  0  0
   -4.7189    2.2945    3.7002 C   0  0  0  1  0  0  0  0  0  0  0  0
   -5.6616    3.3048    3.7063 C   0  0  0  1  0  0  0  0  0  0  0  0
   -5.5523    4.4164    2.9723 N   0  0  0  1  0  0  0  0  0  0  0  0
   -4.4652    4.5358    2.1970 C   0  0  0  1  0  0  0  0  0  0  0  0
   -3.4710    3.5752    2.1329 C   0  0  0  1  0  0  0  0  0  0  0  0
    1.0326    3.5872   -0.3765 H   0  0  0  1  0  0  0  0  0  0  0  0
    2.5388   -2.0678   -1.3916 H   0  0  0  1  0  0  0  0  0  0  0  0
    3.8051   -2.5344   -6.0483 H   0  0  0  1  0  0  0  0  0  0  0  0
    2.8903   -0.4400   -5.2460 H   0  0  0  1  0  0  0  0  0  0  0  0
    3.4551   -4.1655   -2.1952 H   0  0  0  1  0  0  0  0  0  0  0  0
    0.1112    0.6071    3.3986 H   0  0  0  1  0  0  0  0  0  0  0  0
   -1.1933   -1.1838    4.1026 H   0  0  0  1  0  0  0  0  0  0  0  0
   -1.8583   -1.4372    2.5065 H   0  0  0  1  0  0  0  0  0  0  0  0
   -2.9093    0.1969    4.7020 H   0  0  0  1  0  0  0  0  0  0  0  0
   -3.7443   -0.4386    3.3045 H   0  0  0  1  0  0  0  0  0  0  0  0
    0.1645   -1.1983    1.4415 H   0  0  0  1  0  0  0  0  0  0  0  0
    4.6143   -6.6214   -4.2852 H   0  0  0  1  0  0  0  0  0  0  0  0
    3.1770   -5.9854   -3.5221 H   0  0  0  1  0  0  0  0  0  0  0  0
    4.7559   -5.5508   -2.9119 H   0  0  0  1  0  0  0  0  0  0  0  0
   -1.6724    1.4763    1.2327 H   0  0  0  1  0  0  0  0  0  0  0  0
   -1.0247    2.4010    2.5668 H   0  0  0  1  0  0  0  0  0  0  0  0
   -4.8482    1.4456    4.2870 H   0  0  0  1  0  0  0  0  0  0  0  0
   -6.4990    3.1946    4.3132 H   0  0  0  1  0  0  0  0  0  0  0  0
   -4.3640    5.3920    1.6154 H   0  0  0  1  0  0  0  0  0  0  0  0
   -2.6422    3.7105    1.5194 H   0  0  0  1  0  0  0  0  0  0  0  0
  1  3  4  0  0  0  0
  1 14  4  0  0  0  0
  1 21  1  0  0  0  0
  2 14  4  0  0  0  0
  2 15  4  0  0  0  0
  2 30  1  0  0  0  0
  3 16  4  0  0  0  0
  4  5  4  0  0  0  0
  4  7  4  0  0  0  0
  4 17  1  0  0  0  0
  5  9  4  0  0  0  0
  5 31  1  0  0  0  0
  6  7  4  0  0  0  0
  6  8  4  0  0  0  0
  6 32  1  0  0  0  0
  7 33  1  0  0  0  0
  8  9  4  0  0  0  0
  8 20  1  0  0  0  0
  9 34  1  0  0  0  0
 10 11  1  0  0  0  0
 10 21  1  0  0  0  0
 10 24  1  0  0  0  0
 10 35  1  0  0  0  0
 11 12  1  0  0  0  0
 11 36  1  0  0  0  0
 11 37  1  0  0  0  0
 12 23  1  0  0  0  0
 12 38  1  0  0  0  0
 12 39  1  0  0  0  0
 13 23  1  0  0  0  0
 13 25  4  0  0  0  0
 13 29  4  0  0  0  0
 15 16  4  0  0  0  0
 15 18  4  0  0  0  0
 16 17  4  0  0  0  0
 17 19  4  0  0  0  0
 18 19  4  0  0  0  0
 20 22  1  0  0  0  0
 21 40  1  0  0  0  0
 22 41  1  0  0  0  0
 22 42  1  0  0  0  0
 22 43  1  0  0  0  0
 23 24  1  0  0  0  0
 24 44  1  0  0  0  0
 24 45  1  0  0  0  0
 25 26  4  0  0  0  0
 25 46  1  0  0  0  0
 26 27  4  0  0  0  0
 26 47  1  0  0  0  0
 27 28  4  0  0  0  0
 28 29  4  0  0  0  0
 28 48  1  0  0  0  0
 29 49  1  0  0  0  0
M  END
> <ConfClashScore>
0 

> <ConfOneFourInteractionScore>
-0.982045 

> <ConfScore>
0.132327 

> <ConfScorePBest>
0.00183391 

> <ConfTolerance>
0.699704 

> <HETNAM>
     OWQ A 303  OWQ                                                       

> <pdb_OW>
Q_303 -16.5129 3.80749 7.62812 0.15963 1.39178 -0.28144 -3.20151 0 0 0 -1.30514 0 0 0 0 0 0 0 0 -8.31393

$$$$
6yky_lig_1.pdb
 OpenBabel04162415593D

 49 53  0  0  0  0  0  0  0  0999 V2000
    3.2854   -1.0254   -0.7255 C   0  0  0  1  0  0  0  0  0  0  0  0
    4.0216   -2.2218   -2.5521 C   0  0  0  1  0  0  0  0  0  0  0  0
    2.0215   -1.1340   -1.0743 N   0  0  0  1  0  0  0  0  0  0  0  0
   -0.8496   -1.7593   -2.4777 C   0  0  0  1  0  0  0  0  0  0  0  0
   -1.7254   -1.3602   -3.4695 C   0  0  0  1  0  0  0  0  0  0  0  0
   -2.5411   -1.3699   -0.8241 C   0  0  0  1  0  0  0  0  0  0  0  0
   -1.2571   -1.7616   -1.1527 C   0  0  0  1  0  0  0  0  0  0  0  0
   -3.4198   -0.9697   -1.8188 C   0  0  0  1  0  0  0  0  0  0  0  0
   -3.0132   -0.9674   -3.1398 C   0  0  0  1  0  0  0  0  0  0  0  0
    2.6038    0.1601    1.3413 C   0  0  0  1  0  0  0  0  0  0  0  0
    1.6150   -0.9385    1.7627 C   0  0  0  1  0  0  0  0  0  0  0  0
    0.3994   -0.1101    2.2064 C   0  0  0  1  0  0  0  0  0  0  0  0
    0.1291    2.4526    2.2555 C   0  0  0  1  0  0  0  0  0  0  0  0
    4.2644   -1.5522   -1.4399 N   0  0  0  1  0  0  0  0  0  0  0  0
    2.6940   -2.3681   -2.9702 C   0  0  0  1  0  0  0  0  0  0  0  0
    1.6817   -1.7896   -2.1773 C   0  0  0  1  0  0  0  0  0  0  0  0
    0.5006   -2.0771   -2.8037 N   0  0  0  1  0  0  0  0  0  0  0  0
    2.0974   -2.9697   -4.0224 N   0  0  0  1  0  0  0  0  0  0  0  0
    0.8210   -2.8168   -3.9520 N   0  0  0  1  0  0  0  0  0  0  0  0
   -4.7011   -0.6728   -1.5105 O   0  0  0  1  0  0  0  0  0  0  0  0
    3.5948   -0.3515    0.4028 N   0  0  0  1  0  0  0  0  0  0  0  0
   -5.0904   -0.5669   -0.1322 C   0  0  0  1  0  0  0  0  0  0  0  0
    0.6888    1.2847    1.7570 N   0  0  0  1  0  0  0  0  0  0  0  0
    1.6879    1.1733    0.6781 C   0  0  0  1  0  0  0  0  0  0  0  0
    0.7950    3.2032    3.2067 C   0  0  0  1  0  0  0  0  0  0  0  0
    0.2032    4.3616    3.6731 C   0  0  0  1  0  0  0  0  0  0  0  0
   -0.9885    4.7981    3.2540 N   0  0  0  1  0  0  0  0  0  0  0  0
   -1.6249    4.0583    2.3348 C   0  0  0  1  0  0  0  0  0  0  0  0
   -1.1041    2.8879    1.8111 C   0  0  0  1  0  0  0  0  0  0  0  0
    4.8007   -2.6318   -3.1056 H   0  0  0  1  0  0  0  0  0  0  0  0
   -1.4184   -1.3546   -4.4631 H   0  0  0  1  0  0  0  0  0  0  0  0
   -2.8482   -1.3755    0.1695 H   0  0  0  1  0  0  0  0  0  0  0  0
   -0.5966   -2.0581   -0.4060 H   0  0  0  1  0  0  0  0  0  0  0  0
   -3.6736   -0.6709   -3.8865 H   0  0  0  1  0  0  0  0  0  0  0  0
    3.1002    0.5823    2.1900 H   0  0  0  1  0  0  0  0  0  0  0  0
    2.0033   -1.5240    2.5697 H   0  0  0  1  0  0  0  0  0  0  0  0
    1.3711   -1.5795    0.9414 H   0  0  0  1  0  0  0  0  0  0  0  0
    0.2895   -0.1460    3.2701 H   0  0  0  1  0  0  0  0  0  0  0  0
   -0.4928   -0.4758    1.7426 H   0  0  0  1  0  0  0  0  0  0  0  0
    4.5417   -0.1972    0.6026 H   0  0  0  1  0  0  0  0  0  0  0  0
   -6.1230   -0.2928   -0.0728 H   0  0  0  1  0  0  0  0  0  0  0  0
   -4.4951    0.1802    0.3499 H   0  0  0  1  0  0  0  0  0  0  0  0
   -4.9432   -1.5090    0.3532 H   0  0  0  1  0  0  0  0  0  0  0  0
    2.1827    2.1024    0.4867 H   0  0  0  1  0  0  0  0  0  0  0  0
    1.2628    0.8012   -0.2307 H   0  0  0  1  0  0  0  0  0  0  0  0
    1.7238    2.9017    3.5645 H   0  0  0  1  0  0  0  0  0  0  0  0
    0.7110    4.9224    4.3866 H   0  0  0  1  0  0  0  0  0  0  0  0
   -2.5553    4.3796    1.9989 H   0  0  0  1  0  0  0  0  0  0  0  0
   -1.6312    2.3464    1.0966 H   0  0  0  1  0  0  0  0  0  0  0  0
  1  3  4  0  0  0  0
  1 14  4  0  0  0  0
  1 21  1  0  0  0  0
  2 14  4  0  0  0  0
  2 15  4  0  0  0  0
  2 30  1  0  0  0  0
  3 16  4  0  0  0  0
  4  5  4  0  0  0  0
  4  7  4  0  0  0  0
  4 17  1  0  0  0  0
  5  9  4  0  0  0  0
  5 31  1  0  0  0  0
  6  7  4  0  0  0  0
  6  8  4  0  0  0  0
  6 32  1  0  0  0  0
  7 33  1  0  0  0  0
  8  9  4  0  0  0  0
  8 20  1  0  0  0  0
  9 34  1  0  0  0  0
 10 11  1  0  0  0  0
 10 21  1  0  0  0  0
 10 24  1  0  0  0  0
 10 35  1  0  0  0  0
 11 12  1  0  0  0  0
 11 36  1  0  0  0  0
 11 37  1  0  0  0  0
 12 23  1  0  0  0  0
 12 38  1  0  0  0  0
 12 39  1  0  0  0  0
 13 23  1  0  0  0  0
 13 25  4  0  0  0  0
 13 29  4  0  0  0  0
 15 16  4  0  0  0  0
 15 18  4  0  0  0  0
 16 17  4  0  0  0  0
 17 19  4  0  0  0  0
 18 19  4  0  0  0  0
 20 22  1  0  0  0  0
 21 40  1  0  0  0  0
 22 41  1  0  0  0  0
 22 42  1  0  0  0  0
 22 43  1  0  0  0  0
 23 24  1  0  0  0  0
 24 44  1  0  0  0  0
 24 45  1  0  0  0  0
 25 26  4  0  0  0  0
 25 46  1  0  0  0  0
 26 27  4  0  0  0  0
 26 47  1  0  0  0  0
 27 28  4  0  0  0  0
 28 29  4  0  0  0  0
 28 48  1  0  0  0  0
 29 49  1  0  0  0  0
M  END
> <ConfClashScore>
0 

> <ConfOneFourInteractionScore>
-0.983503 

> <ConfScore>
0.137815 

> <ConfScorePBest>
0.00182058 

> <ConfTolerance>
0.36304 

> <HETNAM>
     OWQ A 303  OWQ                                                       

> <pdb_OW>
Q_303 -16.5129 3.80749 7.62812 0.15963 1.39178 -0.28144 -3.20151 0 0 0 -1.30514 0 0 0 0 0 0 0 0 -8.31393

$$$$
6yky_lig_1.pdb
 OpenBabel04162415593D

 49 53  0  0  0  0  0  0  0  0999 V2000
    3.2189   -0.9799   -1.3062 C   0  0  0  1  0  0  0  0  0  0  0  0
    3.1702   -2.0338   -3.3547 C   0  0  0  1  0  0  0  0  0  0  0  0
    1.9070   -0.9439   -1.2137 N   0  0  0  1  0  0  0  0  0  0  0  0
   -1.3440   -1.2743   -1.5976 C   0  0  0  1  0  0  0  0  0  0  0  0
   -1.4592   -1.9087   -0.3752 C   0  0  0  1  0  0  0  0  0  0  0  0
   -3.5026   -0.2789   -1.2870 C   0  0  0  1  0  0  0  0  0  0  0  0
   -2.3683   -0.4603   -2.0555 C   0  0  0  1  0  0  0  0  0  0  0  0
   -3.6183   -0.9151   -0.0608 C   0  0  0  1  0  0  0  0  0  0  0  0
   -2.5969   -1.7267    0.3955 C   0  0  0  1  0  0  0  0  0  0  0  0
    3.3491    0.1253    0.8878 C   0  0  0  1  0  0  0  0  0  0  0  0
    2.3640   -0.8674    1.5441 C   0  0  0  1  0  0  0  0  0  0  0  0
    1.1509   -0.0837    1.9776 C   0  0  0  1  0  0  0  0  0  0  0  0
    0.4197    2.2561    1.2024 C   0  0  0  1  0  0  0  0  0  0  0  0
    3.8408   -1.5088   -2.3454 N   0  0  0  1  0  0  0  0  0  0  0  0
    1.7715   -2.0224   -3.3085 C   0  0  0  1  0  0  0  0  0  0  0  0
    1.1501   -1.4479   -2.1807 C   0  0  0  1  0  0  0  0  0  0  0  0
   -0.1961   -1.5667   -2.3896 N   0  0  0  1  0  0  0  0  0  0  0  0
    0.7968   -2.4566   -4.1371 N   0  0  0  1  0  0  0  0  0  0  0  0
   -0.3588   -2.2049   -3.6283 N   0  0  0  1  0  0  0  0  0  0  0  0
   -4.7746   -0.6667    0.5989 O   0  0  0  1  0  0  0  0  0  0  0  0
    3.9654   -0.4525   -0.2935 N   0  0  0  1  0  0  0  0  0  0  0  0
   -4.9088   -1.2181    1.9181 C   0  0  0  1  0  0  0  0  0  0  0  0
    1.3466    1.2311    1.1915 N   0  0  0  1  0  0  0  0  0  0  0  0
    2.4526    1.2916    0.5214 C   0  0  0  1  0  0  0  0  0  0  0  0
   -0.8264    2.1392    1.7900 C   0  0  0  1  0  0  0  0  0  0  0  0
   -1.6831    3.2229    1.7525 C   0  0  0  1  0  0  0  0  0  0  0  0
   -1.3720    4.3859    1.1721 N   0  0  0  1  0  0  0  0  0  0  0  0
   -0.1624    4.4837    0.6025 C   0  0  0  1  0  0  0  0  0  0  0  0
    0.7584    3.4505    0.5970 C   0  0  0  1  0  0  0  0  0  0  0  0
    3.6711   -2.4470   -4.1671 H   0  0  0  1  0  0  0  0  0  0  0  0
   -0.6924   -2.5226   -0.0335 H   0  0  0  1  0  0  0  0  0  0  0  0
   -4.2694    0.3350   -1.6286 H   0  0  0  1  0  0  0  0  0  0  0  0
   -2.2832    0.0138   -2.9772 H   0  0  0  1  0  0  0  0  0  0  0  0
   -2.6819   -2.2008    1.3172 H   0  0  0  1  0  0  0  0  0  0  0  0
    4.1104    0.4258    1.5771 H   0  0  0  1  0  0  0  0  0  0  0  0
    2.8228   -1.3294    2.3933 H   0  0  0  1  0  0  0  0  0  0  0  0
    2.0796   -1.6198    0.8385 H   0  0  0  1  0  0  0  0  0  0  0  0
    1.1517    0.0874    3.0339 H   0  0  0  1  0  0  0  0  0  0  0  0
    0.2442   -0.5773    1.6964 H   0  0  0  1  0  0  0  0  0  0  0  0
    4.9427   -0.4639   -0.3649 H   0  0  0  1  0  0  0  0  0  0  0  0
   -5.3950   -0.5082    2.5542 H   0  0  0  1  0  0  0  0  0  0  0  0
   -3.9392   -1.4431    2.3108 H   0  0  0  1  0  0  0  0  0  0  0  0
   -5.4923   -2.1138    1.8723 H   0  0  0  1  0  0  0  0  0  0  0  0
    2.9544    2.2087    0.7493 H   0  0  0  1  0  0  0  0  0  0  0  0
    2.2343    1.2545   -0.5255 H   0  0  0  1  0  0  0  0  0  0  0  0
   -1.1135    1.2526    2.2515 H   0  0  0  1  0  0  0  0  0  0  0  0
   -2.6178    3.1285    2.1987 H   0  0  0  1  0  0  0  0  0  0  0  0
    0.0968    5.3797    0.1424 H   0  0  0  1  0  0  0  0  0  0  0  0
    1.6875    3.5711    0.1457 H   0  0  0  1  0  0  0  0  0  0  0  0
  1  3  4  0  0  0  0
  1 14  4  0  0  0  0
  1 21  1  0  0  0  0
  2 14  4  0  0  0  0
  2 15  4  0  0  0  0
  2 30  1  0  0  0  0
  3 16  4  0  0  0  0
  4  5  4  0  0  0  0
  4  7  4  0  0  0  0
  4 17  1  0  0  0  0
  5  9  4  0  0  0  0
  5 31  1  0  0  0  0
  6  7  4  0  0  0  0
  6  8  4  0  0  0  0
  6 32  1  0  0  0  0
  7 33  1  0  0  0  0
  8  9  4  0  0  0  0
  8 20  1  0  0  0  0
  9 34  1  0  0  0  0
 10 11  1  0  0  0  0
 10 21  1  0  0  0  0
 10 24  1  0  0  0  0
 10 35  1  0  0  0  0
 11 12  1  0  0  0  0
 11 36  1  0  0  0  0
 11 37  1  0  0  0  0
 12 23  1  0  0  0  0
 12 38  1  0  0  0  0
 12 39  1  0  0  0  0
 13 23  1  0  0  0  0
 13 25  4  0  0  0  0
 13 29  4  0  0  0  0
 15 16  4  0  0  0  0
 15 18  4  0  0  0  0
 16 17  4  0  0  0  0
 17 19  4  0  0  0  0
 18 19  4  0  0  0  0
 20 22  1  0  0  0  0
 21 40  1  0  0  0  0
 22 41  1  0  0  0  0
 22 42  1  0  0  0  0
 22 43  1  0  0  0  0
 23 24  1  0  0  0  0
 24 44  1  0  0  0  0
 24 45  1  0  0  0  0
 25 26  4  0  0  0  0
 25 46  1  0  0  0  0
 26 27  4  0  0  0  0
 26 47  1  0  0  0  0
 27 28  4  0  0  0  0
 28 29  4  0  0  0  0
 28 48  1  0  0  0  0
 29 49  1  0  0  0  0
M  END
> <ConfClashScore>
0 

> <ConfOneFourInteractionScore>
-0.983503 

> <ConfScore>
0.142744 

> <ConfScorePBest>
0.00180726 

> <ConfTolerance>
0.780195 

> <HETNAM>
     OWQ A 303  OWQ                                                       

> <pdb_OW>
Q_303 -16.5129 3.80749 7.62812 0.15963 1.39178 -0.28144 -3.20151 0 0 0 -1.30514 0 0 0 0 0 0 0 0 -8.31393

$$$$
6yky_lig_1.pdb
 OpenBabel04162415593D

 49 53  0  0  0  0  0  0  0  0999 V2000
    0.0365    0.2923    0.2065 C   0  0  0  1  0  0  0  0  0  0  0  0
    0.5040    2.4089   -0.5751 C   0  0  0  1  0  0  0  0  0  0  0  0
    0.9764   -0.2635   -0.5274 N   0  0  0  1  0  0  0  0  0  0  0  0
    3.5094   -0.9609   -2.4490 C   0  0  0  1  0  0  0  0  0  0  0  0
    4.5285   -1.3361   -1.5941 C   0  0  0  1  0  0  0  0  0  0  0  0
    4.0555   -2.7859   -3.9046 C   0  0  0  1  0  0  0  0  0  0  0  0
    3.2742   -1.6852   -3.6073 C   0  0  0  1  0  0  0  0  0  0  0  0
    5.0777   -3.1623   -3.0472 C   0  0  0  1  0  0  0  0  0  0  0  0
    5.3120   -2.4400   -1.8923 C   0  0  0  1  0  0  0  0  0  0  0  0
   -1.7180    0.0137    1.9280 C   0  0  0  1  0  0  0  0  0  0  0  0
   -2.6858   -1.0972    2.3656 C   0  0  0  1  0  0  0  0  0  0  0  0
   -3.9208   -0.2863    2.7874 C   0  0  0  1  0  0  0  0  0  0  0  0
   -4.2442    2.2688    2.7851 C   0  0  0  1  0  0  0  0  0  0  0  0
   -0.1992    1.5925    0.1886 N   0  0  0  1  0  0  0  0  0  0  0  0
    1.5171    1.8709   -1.3768 C   0  0  0  1  0  0  0  0  0  0  0  0
    1.7337    0.4786   -1.3260 C   0  0  0  1  0  0  0  0  0  0  0  0
    2.7618    0.2244   -2.1910 N   0  0  0  1  0  0  0  0  0  0  0  0
    2.4041    2.3923   -2.2522 N   0  0  0  1  0  0  0  0  0  0  0  0
    3.1417    1.4575   -2.7418 N   0  0  0  1  0  0  0  0  0  0  0  0
    5.9067   -4.2124   -3.2344 O   0  0  0  1  0  0  0  0  0  0  0  0
   -0.7151   -0.4929    1.0075 N   0  0  0  1  0  0  0  0  0  0  0  0
    5.7310   -5.0559   -4.3834 C   0  0  0  1  0  0  0  0  0  0  0  0
   -3.6584    1.1054    2.3127 N   0  0  0  1  0  0  0  0  0  0  0  0
   -2.6515    0.9945    1.2409 C   0  0  0  1  0  0  0  0  0  0  0  0
   -5.3761    2.7837    2.1808 C   0  0  0  1  0  0  0  0  0  0  0  0
   -5.9303    3.9441    2.6867 C   0  0  0  1  0  0  0  0  0  0  0  0
   -5.4263    4.6030    3.7347 N   0  0  0  1  0  0  0  0  0  0  0  0
   -4.3262    4.0949    4.3082 C   0  0  0  1  0  0  0  0  0  0  0  0
   -3.7087    2.9368    3.8690 C   0  0  0  1  0  0  0  0  0  0  0  0
    0.3089    3.4304   -0.5805 H   0  0  0  1  0  0  0  0  0  0  0  0
    4.7074   -0.7902   -0.7271 H   0  0  0  1  0  0  0  0  0  0  0  0
    3.8765   -3.3317   -4.7715 H   0  0  0  1  0  0  0  0  0  0  0  0
    2.5099   -1.4004   -4.2526 H   0  0  0  1  0  0  0  0  0  0  0  0
    6.0762   -2.7247   -1.2470 H   0  0  0  1  0  0  0  0  0  0  0  0
   -1.2351    0.4624    2.7708 H   0  0  0  1  0  0  0  0  0  0  0  0
   -2.2895   -1.6589    3.1856 H   0  0  0  1  0  0  0  0  0  0  0  0
   -2.9118   -1.7588    1.5555 H   0  0  0  1  0  0  0  0  0  0  0  0
   -4.0355   -0.3041    3.8510 H   0  0  0  1  0  0  0  0  0  0  0  0
   -4.8027   -0.6795    2.3264 H   0  0  0  1  0  0  0  0  0  0  0  0
   -0.5756   -1.4621    0.9654 H   0  0  0  1  0  0  0  0  0  0  0  0
    5.9485   -4.4998   -5.2713 H   0  0  0  1  0  0  0  0  0  0  0  0
    4.7196   -5.4033   -4.4192 H   0  0  0  1  0  0  0  0  0  0  0  0
    6.3940   -5.8929   -4.3158 H   0  0  0  1  0  0  0  0  0  0  0  0
   -3.0638    0.5962    0.3374 H   0  0  0  1  0  0  0  0  0  0  0  0
   -2.1753    1.9301    1.0341 H   0  0  0  1  0  0  0  0  0  0  0  0
   -5.8025    2.3066    1.3609 H   0  0  0  1  0  0  0  0  0  0  0  0
   -6.7831    4.3242    2.2286 H   0  0  0  1  0  0  0  0  0  0  0  0
   -3.9168    4.5955    5.1227 H   0  0  0  1  0  0  0  0  0  0  0  0
   -2.8578    2.5763    4.3461 H   0  0  0  1  0  0  0  0  0  0  0  0
  1  3  4  0  0  0  0
  1 14  4  0  0  0  0
  1 21  1  0  0  0  0
  2 14  4  0  0  0  0
  2 15  4  0  0  0  0
  2 30  1  0  0  0  0
  3 16  4  0  0  0  0
  4  5  4  0  0  0  0
  4  7  4  0  0  0  0
  4 17  1  0  0  0  0
  5  9  4  0  0  0  0
  5 31  1  0  0  0  0
  6  7  4  0  0  0  0
  6  8  4  0  0  0  0
  6 32  1  0  0  0  0
  7 33  1  0  0  0  0
  8  9  4  0  0  0  0
  8 20  1  0  0  0  0
  9 34  1  0  0  0  0
 10 11  1  0  0  0  0
 10 21  1  0  0  0  0
 10 24  1  0  0  0  0
 10 35  1  0  0  0  0
 11 12  1  0  0  0  0
 11 36  1  0  0  0  0
 11 37  1  0  0  0  0
 12 23  1  0  0  0  0
 12 38  1  0  0  0  0
 12 39  1  0  0  0  0
 13 23  1  0  0  0  0
 13 25  4  0  0  0  0
 13 29  4  0  0  0  0
 15 16  4  0  0  0  0
 15 18  4  0  0  0  0
 16 17  4  0  0  0  0
 17 19  4  0  0  0  0
 18 19  4  0  0  0  0
 20 22  1  0  0  0  0
 21 40  1  0  0  0  0
 22 41  1  0  0  0  0
 22 42  1  0  0  0  0
 22 43  1  0  0  0  0
 23 24  1  0  0  0  0
 24 44  1  0  0  0  0
 24 45  1  0  0  0  0
 25 26  4  0  0  0  0
 25 46  1  0  0  0  0
 26 27  4  0  0  0  0
 26 47  1  0  0  0  0
 27 28  4  0  0  0  0
 28 29  4  0  0  0  0
 28 48  1  0  0  0  0
 29 49  1  0  0  0  0
M  END
> <ConfClashScore>
0 

> <ConfOneFourInteractionScore>
-0.99264 

> <ConfScore>
0.14556 

> <ConfScorePBest>
0.00179393 

> <ConfTolerance>
0.488653 

> <HETNAM>
     OWQ A 303  OWQ                                                       

> <pdb_OW>
Q_303 -16.5129 3.80749 7.62812 0.15963 1.39178 -0.28144 -3.20151 0 0 0 -1.30514 0 0 0 0 0 0 0 0 -8.31393

$$$$
6yky_lig_1.pdb
 OpenBabel04162415593D

 49 53  0  0  0  0  0  0  0  0999 V2000
    0.8514   -1.0416    1.1839 C   0  0  0  1  0  0  0  0  0  0  0  0
    0.9419   -3.2511    1.8317 C   0  0  0  1  0  0  0  0  0  0  0  0
    1.2672   -1.3081   -0.0355 N   0  0  0  1  0  0  0  0  0  0  0  0
    2.3124   -2.6249   -2.8242 C   0  0  0  1  0  0  0  0  0  0  0  0
    2.2632   -1.2612   -3.0429 C   0  0  0  1  0  0  0  0  0  0  0  0
    2.8269   -2.9797   -5.1386 C   0  0  0  1  0  0  0  0  0  0  0  0
    2.5920   -3.4858   -3.8741 C   0  0  0  1  0  0  0  0  0  0  0  0
    2.7776   -1.6119   -5.3581 C   0  0  0  1  0  0  0  0  0  0  0  0
    2.4988   -0.7538   -4.3111 C   0  0  0  1  0  0  0  0  0  0  0  0
   -0.0863    0.7453    2.6984 C   0  0  0  1  0  0  0  0  0  0  0  0
   -1.1091   -0.2748    3.2462 C   0  0  0  1  0  0  0  0  0  0  0  0
   -2.3346    0.4944    3.6708 C   0  0  0  1  0  0  0  0  0  0  0  0
   -3.0393    2.9186    3.0093 C   0  0  0  1  0  0  0  0  0  0  0  0
    0.6907   -1.9822    2.0982 N   0  0  0  1  0  0  0  0  0  0  0  0
    1.3870   -3.5914    0.5492 C   0  0  0  1  0  0  0  0  0  0  0  0
    1.5444   -2.5556   -0.3944 C   0  0  0  1  0  0  0  0  0  0  0  0
    1.9825   -3.1544   -1.5431 N   0  0  0  1  0  0  0  0  0  0  0  0
    1.7291   -4.7509   -0.0536 N   0  0  0  1  0  0  0  0  0  0  0  0
    2.0800   -4.5275   -1.2720 N   0  0  0  1  0  0  0  0  0  0  0  0
    2.9086   -1.1273   -6.6158 O   0  0  0  1  0  0  0  0  0  0  0  0
    0.5797    0.2340    1.5134 N   0  0  0  1  0  0  0  0  0  0  0  0
    2.9399    0.3003   -6.7690 C   0  0  0  1  0  0  0  0  0  0  0  0
   -2.0916    1.8525    2.9770 N   0  0  0  1  0  0  0  0  0  0  0  0
   -0.9551    1.9417    2.3636 C   0  0  0  1  0  0  0  0  0  0  0  0
   -4.2316    2.7811    3.6958 C   0  0  0  1  0  0  0  0  0  0  0  0
   -5.1194    3.8401    3.7046 C   0  0  0  1  0  0  0  0  0  0  0  0
   -4.8882    4.9980    3.0784 N   0  0  0  1  0  0  0  0  0  0  0  0
   -3.7303    5.1159    2.4132 C   0  0  0  1  0  0  0  0  0  0  0  0
   -2.7836    4.1080    2.3555 C   0  0  0  1  0  0  0  0  0  0  0  0
    0.8116   -3.9822    2.5597 H   0  0  0  1  0  0  0  0  0  0  0  0
    2.0495   -0.6157   -2.2559 H   0  0  0  1  0  0  0  0  0  0  0  0
    3.0406   -3.6253   -5.9256 H   0  0  0  1  0  0  0  0  0  0  0  0
    2.6250   -4.5123   -3.7103 H   0  0  0  1  0  0  0  0  0  0  0  0
    2.4658    0.2727   -4.4749 H   0  0  0  1  0  0  0  0  0  0  0  0
    0.6444    0.9946    3.4392 H   0  0  0  1  0  0  0  0  0  0  0  0
   -0.6943   -0.7929    4.0855 H   0  0  0  1  0  0  0  0  0  0  0  0
   -1.3665   -0.9794    2.4831 H   0  0  0  1  0  0  0  0  0  0  0  0
   -3.2312    0.0289    3.3181 H   0  0  0  1  0  0  0  0  0  0  0  0
   -2.3818    0.6005    4.7344 H   0  0  0  1  0  0  0  0  0  0  0  0
    0.8706    0.9098    0.8661 H   0  0  0  1  0  0  0  0  0  0  0  0
    3.1004    0.5457   -7.7981 H   0  0  0  1  0  0  0  0  0  0  0  0
    3.7348    0.7049   -6.1780 H   0  0  0  1  0  0  0  0  0  0  0  0
    2.0078    0.7141   -6.4452 H   0  0  0  1  0  0  0  0  0  0  0  0
   -1.1246    1.9711    1.3075 H   0  0  0  1  0  0  0  0  0  0  0  0
   -0.4569    2.8375    2.6705 H   0  0  0  1  0  0  0  0  0  0  0  0
   -4.4561    1.8974    4.1961 H   0  0  0  1  0  0  0  0  0  0  0  0
   -6.0131    3.7304    4.2250 H   0  0  0  1  0  0  0  0  0  0  0  0
   -3.5339    6.0082    1.9163 H   0  0  0  1  0  0  0  0  0  0  0  0
   -1.8966    4.2437    1.8298 H   0  0  0  1  0  0  0  0  0  0  0  0
  1  3  4  0  0  0  0
  1 14  4  0  0  0  0
  1 21  1  0  0  0  0
  2 14  4  0  0  0  0
  2 15  4  0  0  0  0
  2 30  1  0  0  0  0
  3 16  4  0  0  0  0
  4  5  4  0  0  0  0
  4  7  4  0  0  0  0
  4 17  1  0  0  0  0
  5  9  4  0  0  0  0
  5 31  1  0  0  0  0
  6  7  4  0  0  0  0
  6  8  4  0  0  0  0
  6 32  1  0  0  0  0
  7 33  1  0  0  0  0
  8  9  4  0  0  0  0
  8 20  1  0  0  0  0
  9 34  1  0  0  0  0
 10 11  1  0  0  0  0
 10 21  1  0  0  0  0
 10 24  1  0  0  0  0
 10 35  1  0  0  0  0
 11 12  1  0  0  0  0
 11 36  1  0  0  0  0
 11 37  1  0  0  0  0
 12 23  1  0  0  0  0
 12 38  1  0  0  0  0
 12 39  1  0  0  0  0
 13 23  1  0  0  0  0
 13 25  4  0  0  0  0
 13 29  4  0  0  0  0
 15 16  4  0  0  0  0
 15 18  4  0  0  0  0
 16 17  4  0  0  0  0
 17 19  4  0  0  0  0
 18 19  4  0  0  0  0
 20 22  1  0  0  0  0
 21 40  1  0  0  0  0
 22 41  1  0  0  0  0
 22 42  1  0  0  0  0
 22 43  1  0  0  0  0
 23 24  1  0  0  0  0
 24 44  1  0  0  0  0
 24 45  1  0  0  0  0
 25 26  4  0  0  0  0
 25 46  1  0  0  0  0
 26 27  4  0  0  0  0
 26 47  1  0  0  0  0
 27 28  4  0  0  0  0
 28 29  4  0  0  0  0
 28 48  1  0  0  0  0
 29 49  1  0  0  0  0
M  END
> <ConfClashScore>
0 

> <ConfOneFourInteractionScore>
-0.982045 

> <ConfScore>
0.145654 

> <ConfScorePBest>
0.0017806 

> <ConfTolerance>
0.834142 

> <HETNAM>
     OWQ A 303  OWQ                                                       

> <pdb_OW>
Q_303 -16.5129 3.80749 7.62812 0.15963 1.39178 -0.28144 -3.20151 0 0 0 -1.30514 0 0 0 0 0 0 0 0 -8.31393

$$$$
6yky_lig_1.pdb
 OpenBabel04162415593D

 49 53  0  0  0  0  0  0  0  0999 V2000
    1.9500   -2.8011   -1.0800 C   0  0  0  1  0  0  0  0  0  0  0  0
    3.6766   -2.6468   -2.5981 C   0  0  0  1  0  0  0  0  0  0  0  0
    1.7889   -1.4966   -1.0231 N   0  0  0  1  0  0  0  0  0  0  0  0
    1.8850    1.7055   -1.3122 C   0  0  0  1  0  0  0  0  0  0  0  0
    0.6803    2.0900   -1.8698 C   0  0  0  1  0  0  0  0  0  0  0  0
    1.6989    3.4634    0.3072 C   0  0  0  1  0  0  0  0  0  0  0  0
    2.3964    2.3948   -0.2237 C   0  0  0  1  0  0  0  0  0  0  0  0
    0.4906    3.8492   -0.2520 C   0  0  0  1  0  0  0  0  0  0  0  0
   -0.0192    3.1617   -1.3373 C   0  0  0  1  0  0  0  0  0  0  0  0
    0.1818   -3.0853    0.6265 C   0  0  0  1  0  0  0  0  0  0  0  0
   -0.8127   -4.1802    1.0442 C   0  0  0  1  0  0  0  0  0  0  0  0
   -2.0129   -3.3464    1.5185 C   0  0  0  1  0  0  0  0  0  0  0  0
   -2.2700   -0.7498    1.6273 C   0  0  0  1  0  0  0  0  0  0  0  0
    2.8669   -3.3682   -1.8444 N   0  0  0  1  0  0  0  0  0  0  0  0
    3.5489   -1.2533   -2.5763 C   0  0  0  1  0  0  0  0  0  0  0  0
    2.5573   -0.6914   -1.7462 C   0  0  0  1  0  0  0  0  0  0  0  0
    2.6485    0.6629   -1.9124 N   0  0  0  1  0  0  0  0  0  0  0  0
    4.1869   -0.2379   -3.1983 N   0  0  0  1  0  0  0  0  0  0  0  0
    3.6842    0.8892   -2.8313 N   0  0  0  1  0  0  0  0  0  0  0  0
   -0.0979    4.9108    0.3485 O   0  0  0  1  0  0  0  0  0  0  0  0
    1.1506   -3.5902   -0.3309 N   0  0  0  1  0  0  0  0  0  0  0  0
   -1.1733    5.5504   -0.3563 C   0  0  0  1  0  0  0  0  0  0  0  0
   -1.7150   -1.9476    1.0875 N   0  0  0  1  0  0  0  0  0  0  0  0
   -0.7325   -2.0519   -0.0073 C   0  0  0  1  0  0  0  0  0  0  0  0
   -3.5504   -0.3153    1.3382 C   0  0  0  1  0  0  0  0  0  0  0  0
   -4.0001    0.8577    1.9140 C   0  0  0  1  0  0  0  0  0  0  0  0
   -3.2584    1.6027    2.7392 N   0  0  0  1  0  0  0  0  0  0  0  0
   -2.0175    1.1719    3.0074 C   0  0  0  1  0  0  0  0  0  0  0  0
   -1.4886    0.0079    2.4776 C   0  0  0  1  0  0  0  0  0  0  0  0
    4.3942   -3.1048   -3.1955 H   0  0  0  1  0  0  0  0  0  0  0  0
    0.2986    1.5753   -2.6890 H   0  0  0  1  0  0  0  0  0  0  0  0
    2.0806    3.9781    1.1264 H   0  0  0  1  0  0  0  0  0  0  0  0
    3.3049    2.1080    0.1934 H   0  0  0  1  0  0  0  0  0  0  0  0
   -0.9277    3.4485   -1.7544 H   0  0  0  1  0  0  0  0  0  0  0  0
    0.6946   -2.6822    1.4747 H   0  0  0  1  0  0  0  0  0  0  0  0
   -1.0750   -4.8052    0.2162 H   0  0  0  1  0  0  0  0  0  0  0  0
   -0.4193   -4.7828    1.8360 H   0  0  0  1  0  0  0  0  0  0  0  0
   -2.9155   -3.6951    1.0617 H   0  0  0  1  0  0  0  0  0  0  0  0
   -2.1082   -3.3984    2.5830 H   0  0  0  1  0  0  0  0  0  0  0  0
    1.2285   -4.5610   -0.4395 H   0  0  0  1  0  0  0  0  0  0  0  0
   -1.9147    4.8229   -0.6131 H   0  0  0  1  0  0  0  0  0  0  0  0
   -0.7948    6.0039   -1.2485 H   0  0  0  1  0  0  0  0  0  0  0  0
   -1.6116    6.3011    0.2676 H   0  0  0  1  0  0  0  0  0  0  0  0
   -0.2304   -1.1250   -0.1907 H   0  0  0  1  0  0  0  0  0  0  0  0
   -1.1743   -2.4048   -0.9157 H   0  0  0  1  0  0  0  0  0  0  0  0
   -4.1634   -0.8609    0.6994 H   0  0  0  1  0  0  0  0  0  0  0  0
   -4.9651    1.1770    1.6939 H   0  0  0  1  0  0  0  0  0  0  0  0
   -1.4235    1.7401    3.6444 H   0  0  0  1  0  0  0  0  0  0  0  0
   -0.5211   -0.2907    2.7153 H   0  0  0  1  0  0  0  0  0  0  0  0
  1  3  4  0  0  0  0
  1 14  4  0  0  0  0
  1 21  1  0  0  0  0
  2 14  4  0  0  0  0
  2 15  4  0  0  0  0
  2 30  1  0  0  0  0
  3 16  4  0  0  0  0
  4  5  4  0  0  0  0
  4  7  4  0  0  0  0
  4 17  1  0  0  0  0
  5  9  4  0  0  0  0
  5 31  1  0  0  0  0
  6  7  4  0  0  0  0
  6  8  4  0  0  0  0
  6 32  1  0  0  0  0
  7 33  1  0  0  0  0
  8  9  4  0  0  0  0
  8 20  1  0  0  0  0
  9 34  1  0  0  0  0
 10 11  1  0  0  0  0
 10 21  1  0  0  0  0
 10 24  1  0  0  0  0
 10 35  1  0  0  0  0
 11 12  1  0  0  0  0
 11 36  1  0  0  0  0
 11 37  1  0  0  0  0
 12 23  1  0  0  0  0
 12 38  1  0  0  0  0
 12 39  1  0  0  0  0
 13 23  1  0  0  0  0
 13 25  4  0  0  0  0
 13 29  4  0  0  0  0
 15 16  4  0  0  0  0
 15 18  4  0  0  0  0
 16 17  4  0  0  0  0
 17 19  4  0  0  0  0
 18 19  4  0  0  0  0
 20 22  1  0  0  0  0
 21 40  1  0  0  0  0
 22 41  1  0  0  0  0
 22 42  1  0  0  0  0
 22 43  1  0  0  0  0
 23 24  1  0  0  0  0
 24 44  1  0  0  0  0
 24 45  1  0  0  0  0
 25 26  4  0  0  0  0
 25 46  1  0  0  0  0
 26 27  4  0  0  0  0
 26 47  1  0  0  0  0
 27 28  4  0  0  0  0
 28 29  4  0  0  0  0
 28 48  1  0  0  0  0
 29 49  1  0  0  0  0
M  END
> <ConfClashScore>
0 

> <ConfOneFourInteractionScore>
-0.987833 

> <ConfScore>
0.145806 

> <ConfScorePBest>
0.00176727 

> <ConfTolerance>
0.458201 

> <HETNAM>
     OWQ A 303  OWQ                                                       

> <pdb_OW>
Q_303 -16.5129 3.80749 7.62812 0.15963 1.39178 -0.28144 -3.20151 0 0 0 -1.30514 0 0 0 0 0 0 0 0 -8.31393

$$$$
6yky_lig_1.pdb
 OpenBabel04162415593D

 49 53  0  0  0  0  0  0  0  0999 V2000
    0.5950   -0.3690    0.9976 C   0  0  0  1  0  0  0  0  0  0  0  0
    2.1298   -0.8414    2.6501 C   0  0  0  1  0  0  0  0  0  0  0  0
    1.3928   -0.7865    0.0384 N   0  0  0  1  0  0  0  0  0  0  0  0
    3.8508   -1.9669   -1.8032 C   0  0  0  1  0  0  0  0  0  0  0  0
    2.7924   -1.8605   -2.6855 C   0  0  0  1  0  0  0  0  0  0  0  0
    5.2780   -2.6700   -3.5965 C   0  0  0  1  0  0  0  0  0  0  0  0
    5.0949   -2.3748   -2.2587 C   0  0  0  1  0  0  0  0  0  0  0  0
    4.2165   -2.5634   -4.4816 C   0  0  0  1  0  0  0  0  0  0  0  0
    2.9762   -2.1566   -4.0271 C   0  0  0  1  0  0  0  0  0  0  0  0
   -1.6307    0.6076    1.5942 C   0  0  0  1  0  0  0  0  0  0  0  0
   -2.5979   -0.5038    2.0319 C   0  0  0  1  0  0  0  0  0  0  0  0
   -3.8338    0.3064    2.4522 C   0  0  0  1  0  0  0  0  0  0  0  0
   -4.1693    2.8815    2.4561 C   0  0  0  1  0  0  0  0  0  0  0  0
    0.9469   -0.3927    2.2712 N   0  0  0  1  0  0  0  0  0  0  0  0
    3.0188   -1.2983    1.6705 C   0  0  0  1  0  0  0  0  0  0  0  0
    2.6015   -1.2546    0.3244 C   0  0  0  1  0  0  0  0  0  0  0  0
    3.6430   -1.7503   -0.4102 N   0  0  0  1  0  0  0  0  0  0  0  0
    4.2697   -1.8079    1.6959 N   0  0  0  1  0  0  0  0  0  0  0  0
    4.6590   -2.0802    0.4992 N   0  0  0  1  0  0  0  0  0  0  0  0
    4.5124   -2.8815   -5.7568 O   0  0  0  1  0  0  0  0  0  0  0  0
   -0.6232    0.0992    0.6716 N   0  0  0  1  0  0  0  0  0  0  0  0
    3.4886   -2.5505   -6.7237 C   0  0  0  1  0  0  0  0  0  0  0  0
   -3.5721    1.6981    1.9767 N   0  0  0  1  0  0  0  0  0  0  0  0
   -2.5644    1.5871    0.9057 C   0  0  0  1  0  0  0  0  0  0  0  0
   -3.4596    4.0467    2.6801 C   0  0  0  1  0  0  0  0  0  0  0  0
   -4.1359    5.1573    3.1479 C   0  0  0  1  0  0  0  0  0  0  0  0
   -5.4483    5.1661    3.4006 N   0  0  0  1  0  0  0  0  0  0  0  0
   -6.1231    4.0284    3.1831 C   0  0  0  1  0  0  0  0  0  0  0  0
   -5.5265    2.8717    2.7124 C   0  0  0  1  0  0  0  0  0  0  0  0
    2.3951   -0.8550    3.6556 H   0  0  0  1  0  0  0  0  0  0  0  0
    1.8581   -1.5583   -2.3429 H   0  0  0  1  0  0  0  0  0  0  0  0
    6.2123   -2.9722   -3.9391 H   0  0  0  1  0  0  0  0  0  0  0  0
    5.8903   -2.4587   -1.5940 H   0  0  0  1  0  0  0  0  0  0  0  0
    2.1808   -2.0727   -4.6918 H   0  0  0  1  0  0  0  0  0  0  0  0
   -1.1487    1.0572    2.4370 H   0  0  0  1  0  0  0  0  0  0  0  0
   -2.2017   -1.0646    2.8525 H   0  0  0  1  0  0  0  0  0  0  0  0
   -2.8228   -1.1662    1.2222 H   0  0  0  1  0  0  0  0  0  0  0  0
   -3.9493    0.2893    3.5158 H   0  0  0  1  0  0  0  0  0  0  0  0
   -4.7151   -0.0878    1.9909 H   0  0  0  1  0  0  0  0  0  0  0  0
   -0.8563    0.0985   -0.2803 H   0  0  0  1  0  0  0  0  0  0  0  0
    3.4577   -1.4899   -6.8621 H   0  0  0  1  0  0  0  0  0  0  0  0
    2.5388   -2.8914   -6.3679 H   0  0  0  1  0  0  0  0  0  0  0  0
    3.7122   -3.0253   -7.6561 H   0  0  0  1  0  0  0  0  0  0  0  0
   -2.9758    1.1879    0.0023 H   0  0  0  1  0  0  0  0  0  0  0  0
   -2.0887    2.5229    0.6986 H   0  0  0  1  0  0  0  0  0  0  0  0
   -2.4361    4.0866    2.5000 H   0  0  0  1  0  0  0  0  0  0  0  0
   -3.5960    6.0310    3.3118 H   0  0  0  1  0  0  0  0  0  0  0  0
   -7.1447    4.0143    3.3774 H   0  0  0  1  0  0  0  0  0  0  0  0
   -6.0894    2.0115    2.5548 H   0  0  0  1  0  0  0  0  0  0  0  0
  1  3  4  0  0  0  0
  1 14  4  0  0  0  0
  1 21  1  0  0  0  0
  2 14  4  0  0  0  0
  2 15  4  0  0  0  0
  2 30  1  0  0  0  0
  3 16  4  0  0  0  0
  4  5  4  0  0  0  0
  4  7  4  0  0  0  0
  4 17  1  0  0  0  0
  5  9  4  0  0  0  0
  5 31  1  0  0  0  0
  6  7  4  0  0  0  0
  6  8  4  0  0  0  0
  6 32  1  0  0  0  0
  7 33  1  0  0  0  0
  8  9  4  0  0  0  0
  8 20  1  0  0  0  0
  9 34  1  0  0  0  0
 10 11  1  0  0  0  0
 10 21  1  0  0  0  0
 10 24  1  0  0  0  0
 10 35  1  0  0  0  0
 11 12  1  0  0  0  0
 11 36  1  0  0  0  0
 11 37  1  0  0  0  0
 12 23  1  0  0  0  0
 12 38  1  0  0  0  0
 12 39  1  0  0  0  0
 13 23  1  0  0  0  0
 13 25  4  0  0  0  0
 13 29  4  0  0  0  0
 15 16  4  0  0  0  0
 15 18  4  0  0  0  0
 16 17  4  0  0  0  0
 17 19  4  0  0  0  0
 18 19  4  0  0  0  0
 20 22  1  0  0  0  0
 21 40  1  0  0  0  0
 22 41  1  0  0  0  0
 22 42  1  0  0  0  0
 22 43  1  0  0  0  0
 23 24  1  0  0  0  0
 24 44  1  0  0  0  0
 24 45  1  0  0  0  0
 25 26  4  0  0  0  0
 25 46  1  0  0  0  0
 26 27  4  0  0  0  0
 26 47  1  0  0  0  0
 27 28  4  0  0  0  0
 28 29  4  0  0  0  0
 28 48  1  0  0  0  0
 29 49  1  0  0  0  0
M  END
> <ConfClashScore>
0 

> <ConfOneFourInteractionScore>
-0.986948 

> <ConfScore>
0.148455 

> <ConfScorePBest>
0.00175394 

> <ConfTolerance>
0.644911 

> <HETNAM>
     OWQ A 303  OWQ                                                       

> <pdb_OW>
Q_303 -16.5129 3.80749 7.62812 0.15963 1.39178 -0.28144 -3.20151 0 0 0 -1.30514 0 0 0 0 0 0 0 0 -8.31393

$$$$
6yky_lig_1.pdb
 OpenBabel04162415593D

 49 53  0  0  0  0  0  0  0  0999 V2000
    1.2372   -1.9872   -2.4023 C   0  0  0  1  0  0  0  0  0  0  0  0
    3.3531   -2.4595   -3.1828 C   0  0  0  1  0  0  0  0  0  0  0  0
    1.6919   -1.3113   -1.3691 N   0  0  0  1  0  0  0  0  0  0  0  0
    3.3886    0.1916    0.9132 C   0  0  0  1  0  0  0  0  0  0  0  0
    4.1731    0.0730    2.0448 C   0  0  0  1  0  0  0  0  0  0  0  0
    1.8426    1.5648    2.1262 C   0  0  0  1  0  0  0  0  0  0  0  0
    2.2202    0.9364    0.9546 C   0  0  0  1  0  0  0  0  0  0  0  0
    2.6294    1.4459    3.2613 C   0  0  0  1  0  0  0  0  0  0  0  0
    3.7943    0.7032    3.2198 C   0  0  0  1  0  0  0  0  0  0  0  0
   -1.0885   -1.5694   -1.5760 C   0  0  0  1  0  0  0  0  0  0  0  0
   -2.0773   -2.6681   -1.1548 C   0  0  0  1  0  0  0  0  0  0  0  0
   -3.2930   -1.8398   -0.7114 C   0  0  0  1  0  0  0  0  0  0  0  0
   -3.5641    0.7239   -0.6620 C   0  0  0  1  0  0  0  0  0  0  0  0
    2.0398   -2.5489   -3.2893 N   0  0  0  1  0  0  0  0  0  0  0  0
    3.8916   -1.7516   -2.1022 C   0  0  0  1  0  0  0  0  0  0  0  0
    2.9980   -1.1688   -1.1803 C   0  0  0  1  0  0  0  0  0  0  0  0
    3.7751   -0.5492   -0.2410 N   0  0  0  1  0  0  0  0  0  0  0  0
    5.1470   -1.4674   -1.6924 N   0  0  0  1  0  0  0  0  0  0  0  0
    5.1103   -0.7687   -0.6116 N   0  0  0  1  0  0  0  0  0  0  0  0
    2.3601    2.0097    4.4628 O   0  0  0  1  0  0  0  0  0  0  0  0
   -0.0919   -2.0836   -2.5195 N   0  0  0  1  0  0  0  0  0  0  0  0
    1.1606    2.7927    4.5660 C   0  0  0  1  0  0  0  0  0  0  0  0
   -3.0037   -0.4449   -1.1607 N   0  0  0  1  0  0  0  0  0  0  0  0
   -2.0044   -0.5563   -2.2395 C   0  0  0  1  0  0  0  0  0  0  0  0
   -4.5181    0.6774    0.3377 C   0  0  0  1  0  0  0  0  0  0  0  0
   -5.0467    1.8645    0.8077 C   0  0  0  1  0  0  0  0  0  0  0  0
   -4.6857    3.0646    0.3432 N   0  0  0  1  0  0  0  0  0  0  0  0
   -3.7630    3.0946   -0.6289 C   0  0  0  1  0  0  0  0  0  0  0  0
   -3.1792    1.9554   -1.1549 C   0  0  0  1  0  0  0  0  0  0  0  0
    3.9744   -2.9059   -3.8873 H   0  0  0  1  0  0  0  0  0  0  0  0
    5.0476   -0.4892    2.0147 H   0  0  0  1  0  0  0  0  0  0  0  0
    0.9681    2.1269    2.1563 H   0  0  0  1  0  0  0  0  0  0  0  0
    1.6279    1.0224    0.1041 H   0  0  0  1  0  0  0  0  0  0  0  0
    4.3867    0.6172    4.0703 H   0  0  0  1  0  0  0  0  0  0  0  0
   -0.5923   -1.1471   -0.7272 H   0  0  0  1  0  0  0  0  0  0  0  0
   -1.6890   -3.2535   -0.3477 H   0  0  0  1  0  0  0  0  0  0  0  0
   -2.3209   -3.3091   -1.9762 H   0  0  0  1  0  0  0  0  0  0  0  0
   -3.4031   -1.8756    0.3524 H   0  0  0  1  0  0  0  0  0  0  0  0
   -4.1852   -2.2055   -1.1753 H   0  0  0  1  0  0  0  0  0  0  0  0
   -0.4328   -2.5437   -3.3148 H   0  0  0  1  0  0  0  0  0  0  0  0
    1.3390    3.7726    4.1749 H   0  0  0  1  0  0  0  0  0  0  0  0
    0.8704    2.8664    5.5933 H   0  0  0  1  0  0  0  0  0  0  0  0
    0.3788    2.3226    4.0069 H   0  0  0  1  0  0  0  0  0  0  0  0
   -1.5096    0.3729   -2.4308 H   0  0  0  1  0  0  0  0  0  0  0  0
   -2.4292   -0.9285   -3.1483 H   0  0  0  1  0  0  0  0  0  0  0  0
   -4.8319   -0.2339    0.7286 H   0  0  0  1  0  0  0  0  0  0  0  0
   -5.7620    1.8219    1.5615 H   0  0  0  1  0  0  0  0  0  0  0  0
   -3.4718    4.0190   -1.0062 H   0  0  0  1  0  0  0  0  0  0  0  0
   -2.4644    2.0252   -1.9070 H   0  0  0  1  0  0  0  0  0  0  0  0
  1  3  4  0  0  0  0
  1 14  4  0  0  0  0
  1 21  1  0  0  0  0
  2 14  4  0  0  0  0
  2 15  4  0  0  0  0
  2 30  1  0  0  0  0
  3 16  4  0  0  0  0
  4  5  4  0  0  0  0
  4  7  4  0  0  0  0
  4 17  1  0  0  0  0
  5  9  4  0  0  0  0
  5 31  1  0  0  0  0
  6  7  4  0  0  0  0
  6  8  4  0  0  0  0
  6 32  1  0  0  0  0
  7 33  1  0  0  0  0
  8  9  4  0  0  0  0
  8 20  1  0  0  0  0
  9 34  1  0  0  0  0
 10 11  1  0  0  0  0
 10 21  1  0  0  0  0
 10 24  1  0  0  0  0
 10 35  1  0  0  0  0
 11 12  1  0  0  0  0
 11 36  1  0  0  0  0
 11 37  1  0  0  0  0
 12 23  1  0  0  0  0
 12 38  1  0  0  0  0
 12 39  1  0  0  0  0
 13 23  1  0  0  0  0
 13 25  4  0  0  0  0
 13 29  4  0  0  0  0
 15 16  4  0  0  0  0
 15 18  4  0  0  0  0
 16 17  4  0  0  0  0
 17 19  4  0  0  0  0
 18 19  4  0  0  0  0
 20 22  1  0  0  0  0
 21 40  1  0  0  0  0
 22 41  1  0  0  0  0
 22 42  1  0  0  0  0
 22 43  1  0  0  0  0
 23 24  1  0  0  0  0
 24 44  1  0  0  0  0
 24 45  1  0  0  0  0
 25 26  4  0  0  0  0
 25 46  1  0  0  0  0
 26 27  4  0  0  0  0
 26 47  1  0  0  0  0
 27 28  4  0  0  0  0
 28 29  4  0  0  0  0
 28 48  1  0  0  0  0
 29 49  1  0  0  0  0
M  END
> <ConfClashScore>
0 

> <ConfOneFourInteractionScore>
-0.986948 

> <ConfScore>
0.150748 

> <ConfScorePBest>
0.00174062 

> <ConfTolerance>
1.05352 

> <HETNAM>
     OWQ A 303  OWQ                                                       

> <pdb_OW>
Q_303 -16.5129 3.80749 7.62812 0.15963 1.39178 -0.28144 -3.20151 0 0 0 -1.30514 0 0 0 0 0 0 0 0 -8.31393

$$$$
6yky_lig_1.pdb
 OpenBabel04162415593D

 49 53  0  0  0  0  0  0  0  0999 V2000
    0.2933    0.3122    0.3838 C   0  0  0  1  0  0  0  0  0  0  0  0
    1.4747    2.2889    0.4634 C   0  0  0  1  0  0  0  0  0  0  0  0
    1.1075   -0.2214   -0.5012 N   0  0  0  1  0  0  0  0  0  0  0  0
    3.5676   -0.9935   -2.4869 C   0  0  0  1  0  0  0  0  0  0  0  0
    4.4860   -1.8235   -1.8721 C   0  0  0  1  0  0  0  0  0  0  0  0
    3.5825   -2.4073   -4.4229 C   0  0  0  1  0  0  0  0  0  0  0  0
    3.1172   -1.2842   -3.7652 C   0  0  0  1  0  0  0  0  0  0  0  0
    4.5036   -3.2398   -3.8065 C   0  0  0  1  0  0  0  0  0  0  0  0
    4.9526   -2.9497   -2.5319 C   0  0  0  1  0  0  0  0  0  0  0  0
   -1.6525    0.1080    1.8632 C   0  0  0  1  0  0  0  0  0  0  0  0
   -2.7062   -0.9331    2.3324 C   0  0  0  1  0  0  0  0  0  0  0  0
   -3.9417   -0.1519    2.8270 C   0  0  0  1  0  0  0  0  0  0  0  0
   -4.5147    2.3096    2.5165 C   0  0  0  1  0  0  0  0  0  0  0  0
    0.4658    1.5336    0.8579 N   0  0  0  1  0  0  0  0  0  0  0  0
    2.3722    1.7710   -0.4773 C   0  0  0  1  0  0  0  0  0  0  0  0
    2.1496    0.4635   -0.9559 C   0  0  0  1  0  0  0  0  0  0  0  0
    3.1551    0.2114   -1.8478 N   0  0  0  1  0  0  0  0  0  0  0  0
    3.4801    2.2475   -1.0860 N   0  0  0  1  0  0  0  0  0  0  0  0
    3.9573    1.3616   -1.8892 N   0  0  0  1  0  0  0  0  0  0  0  0
    4.8901   -4.3044   -4.5489 O   0  0  0  1  0  0  0  0  0  0  0  0
   -0.7822   -0.4307    0.8352 N   0  0  0  1  0  0  0  0  0  0  0  0
    5.8817   -5.1747   -3.9816 C   0  0  0  1  0  0  0  0  0  0  0  0
   -3.7353    1.1996    2.2339 N   0  0  0  1  0  0  0  0  0  0  0  0
   -2.5915    1.1960    1.3072 C   0  0  0  1  0  0  0  0  0  0  0  0
   -4.9379    3.2000    1.5471 C   0  0  0  1  0  0  0  0  0  0  0  0
   -5.7166    4.2763    1.9277 C   0  0  0  1  0  0  0  0  0  0  0  0
   -6.0834    4.5074    3.1919 N   0  0  0  1  0  0  0  0  0  0  0  0
   -5.6625    3.6385    4.1220 C   0  0  0  1  0  0  0  0  0  0  0  0
   -4.8835    2.5328    3.8287 C   0  0  0  1  0  0  0  0  0  0  0  0
    1.5998    3.2487    0.8439 H   0  0  0  1  0  0  0  0  0  0  0  0
    4.8269   -1.6031   -0.9146 H   0  0  0  1  0  0  0  0  0  0  0  0
    3.2416   -2.6277   -5.3804 H   0  0  0  1  0  0  0  0  0  0  0  0
    2.4292   -0.6574   -4.2293 H   0  0  0  1  0  0  0  0  0  0  0  0
    5.6405   -3.5765   -2.0678 H   0  0  0  1  0  0  0  0  0  0  0  0
   -1.0612    0.4708    2.6778 H   0  0  0  1  0  0  0  0  0  0  0  0
   -2.9791   -1.5696    1.5168 H   0  0  0  1  0  0  0  0  0  0  0  0
   -2.3055   -1.5248    3.1288 H   0  0  0  1  0  0  0  0  0  0  0  0
   -3.9653   -0.1044    3.8957 H   0  0  0  1  0  0  0  0  0  0  0  0
   -4.8471   -0.5958    2.4691 H   0  0  0  1  0  0  0  0  0  0  0  0
   -0.9561   -1.3197    0.4612 H   0  0  0  1  0  0  0  0  0  0  0  0
    6.6986   -4.5916   -3.6108 H   0  0  0  1  0  0  0  0  0  0  0  0
    6.2369   -5.8482   -4.7334 H   0  0  0  1  0  0  0  0  0  0  0  0
    5.4484   -5.7327   -3.1780 H   0  0  0  1  0  0  0  0  0  0  0  0
   -2.9087    0.9515    0.3150 H   0  0  0  1  0  0  0  0  0  0  0  0
   -2.1053    2.1492    1.3020 H   0  0  0  1  0  0  0  0  0  0  0  0
   -4.6752    3.0623    0.5503 H   0  0  0  1  0  0  0  0  0  0  0  0
   -6.0333    4.9405    1.1928 H   0  0  0  1  0  0  0  0  0  0  0  0
   -5.9344    3.8034    5.1122 H   0  0  0  1  0  0  0  0  0  0  0  0
   -4.5817    1.8824    4.5819 H   0  0  0  1  0  0  0  0  0  0  0  0
  1  3  4  0  0  0  0
  1 14  4  0  0  0  0
  1 21  1  0  0  0  0
  2 14  4  0  0  0  0
  2 15  4  0  0  0  0
  2 30  1  0  0  0  0
  3 16  4  0  0  0  0
  4  5  4  0  0  0  0
  4  7  4  0  0  0  0
  4 17  1  0  0  0  0
  5  9  4  0  0  0  0
  5 31  1  0  0  0  0
  6  7  4  0  0  0  0
  6  8  4  0  0  0  0
  6 32  1  0  0  0  0
  7 33  1  0  0  0  0
  8  9  4  0  0  0  0
  8 20  1  0  0  0  0
  9 34  1  0  0  0  0
 10 11  1  0  0  0  0
 10 21  1  0  0  0  0
 10 24  1  0  0  0  0
 10 35  1  0  0  0  0
 11 12  1  0  0  0  0
 11 36  1  0  0  0  0
 11 37  1  0  0  0  0
 12 23  1  0  0  0  0
 12 38  1  0  0  0  0
 12 39  1  0  0  0  0
 13 23  1  0  0  0  0
 13 25  4  0  0  0  0
 13 29  4  0  0  0  0
 15 16  4  0  0  0  0
 15 18  4  0  0  0  0
 16 17  4  0  0  0  0
 17 19  4  0  0  0  0
 18 19  4  0  0  0  0
 20 22  1  0  0  0  0
 21 40  1  0  0  0  0
 22 41  1  0  0  0  0
 22 42  1  0  0  0  0
 22 43  1  0  0  0  0
 23 24  1  0  0  0  0
 24 44  1  0  0  0  0
 24 45  1  0  0  0  0
 25 26  4  0  0  0  0
 25 46  1  0  0  0  0
 26 27  4  0  0  0  0
 26 47  1  0  0  0  0
 27 28  4  0  0  0  0
 28 29  4  0  0  0  0
 28 48  1  0  0  0  0
 29 49  1  0  0  0  0
M  END
> <ConfClashScore>
0 

> <ConfOneFourInteractionScore>
-0.989681 

> <ConfScore>
0.153343 

> <ConfScorePBest>
0.00172729 

> <ConfTolerance>
0.604315 

> <HETNAM>
     OWQ A 303  OWQ                                                       

> <pdb_OW>
Q_303 -16.5129 3.80749 7.62812 0.15963 1.39178 -0.28144 -3.20151 0 0 0 -1.30514 0 0 0 0 0 0 0 0 -8.31393

$$$$
6yky_lig_1.pdb
 OpenBabel04162415593D

 49 53  0  0  0  0  0  0  0  0999 V2000
   -0.4023   -0.4181    0.0752 C   0  0  0  1  0  0  0  0  0  0  0  0
   -2.0527   -1.1451   -1.3590 C   0  0  0  1  0  0  0  0  0  0  0  0
    0.5642   -0.8779   -0.6898 N   0  0  0  1  0  0  0  0  0  0  0  0
    2.4137   -2.3711   -2.9450 C   0  0  0  1  0  0  0  0  0  0  0  0
    3.3571   -1.4051   -2.6499 C   0  0  0  1  0  0  0  0  0  0  0  0
    4.1556   -3.8600   -3.6496 C   0  0  0  1  0  0  0  0  0  0  0  0
    2.8132   -3.5994   -3.4481 C   0  0  0  1  0  0  0  0  0  0  0  0
    5.1018   -2.8912   -3.3537 C   0  0  0  1  0  0  0  0  0  0  0  0
    4.7033   -1.6665   -2.8520 C   0  0  0  1  0  0  0  0  0  0  0  0
   -1.0615    0.7137    2.1791 C   0  0  0  1  0  0  0  0  0  0  0  0
   -2.0527   -0.3837    2.5979 C   0  0  0  1  0  0  0  0  0  0  0  0
   -3.2607    0.4467    3.0583 C   0  0  0  1  0  0  0  0  0  0  0  0
   -3.5269    3.0300    3.1414 C   0  0  0  1  0  0  0  0  0  0  0  0
   -1.6785   -0.5445   -0.2440 N   0  0  0  1  0  0  0  0  0  0  0  0
   -1.0653   -1.6534   -2.2107 C   0  0  0  1  0  0  0  0  0  0  0  0
    0.2833   -1.4962   -1.8303 C   0  0  0  1  0  0  0  0  0  0  0  0
    1.0256   -2.0734   -2.8232 N   0  0  0  1  0  0  0  0  0  0  0  0
   -1.0845   -2.3058   -3.3935 N   0  0  0  1  0  0  0  0  0  0  0  0
    0.1181   -2.5632   -3.7744 N   0  0  0  1  0  0  0  0  0  0  0  0
    6.3879   -3.1480   -3.6911 O   0  0  0  1  0  0  0  0  0  0  0  0
   -0.0802    0.2057    1.2285 N   0  0  0  1  0  0  0  0  0  0  0  0
    7.3138   -2.0518   -3.6302 C   0  0  0  1  0  0  0  0  0  0  0  0
   -2.9676    1.8441    2.6194 N   0  0  0  1  0  0  0  0  0  0  0  0
   -1.9772    1.7375    1.5320 C   0  0  0  1  0  0  0  0  0  0  0  0
   -4.5594    3.0881    4.0591 C   0  0  0  1  0  0  0  0  0  0  0  0
   -5.0021    4.3263    4.4840 C   0  0  0  1  0  0  0  0  0  0  0  0
   -4.4848    5.4800    4.0508 N   0  0  0  1  0  0  0  0  0  0  0  0
   -3.4873    5.4089    3.1580 C   0  0  0  1  0  0  0  0  0  0  0  0
   -2.9805    4.2124    2.6819 C   0  0  0  1  0  0  0  0  0  0  0  0
   -3.0602   -1.2384   -1.5993 H   0  0  0  1  0  0  0  0  0  0  0  0
    3.0569   -0.4821   -2.2762 H   0  0  0  1  0  0  0  0  0  0  0  0
    4.4557   -4.7830   -4.0233 H   0  0  0  1  0  0  0  0  0  0  0  0
    2.1030   -4.3248   -3.6739 H   0  0  0  1  0  0  0  0  0  0  0  0
    5.4134   -0.9411   -2.6262 H   0  0  0  1  0  0  0  0  0  0  0  0
   -0.5566    1.1257    3.0279 H   0  0  0  1  0  0  0  0  0  0  0  0
   -2.3060   -1.0159    1.7727 H   0  0  0  1  0  0  0  0  0  0  0  0
   -1.6613   -0.9785    3.3966 H   0  0  0  1  0  0  0  0  0  0  0  0
   -3.3628    0.4017    4.1225 H   0  0  0  1  0  0  0  0  0  0  0  0
   -4.1582    0.0898    2.5980 H   0  0  0  1  0  0  0  0  0  0  0  0
    0.8696    0.3240    1.4390 H   0  0  0  1  0  0  0  0  0  0  0  0
    7.3763   -1.6926   -2.6242 H   0  0  0  1  0  0  0  0  0  0  0  0
    6.9754   -1.2636   -4.2698 H   0  0  0  1  0  0  0  0  0  0  0  0
    8.2794   -2.3826   -3.9511 H   0  0  0  1  0  0  0  0  0  0  0  0
   -1.4791    2.6659    1.3453 H   0  0  0  1  0  0  0  0  0  0  0  0
   -2.4109    1.3758    0.6231 H   0  0  0  1  0  0  0  0  0  0  0  0
   -4.9948    2.2164    4.4227 H   0  0  0  1  0  0  0  0  0  0  0  0
   -5.7774    4.3623    5.1762 H   0  0  0  1  0  0  0  0  0  0  0  0
   -3.0742    6.2961    2.8060 H   0  0  0  1  0  0  0  0  0  0  0  0
   -2.2030    4.2036    1.9912 H   0  0  0  1  0  0  0  0  0  0  0  0
  1  3  4  0  0  0  0
  1 14  4  0  0  0  0
  1 21  1  0  0  0  0
  2 14  4  0  0  0  0
  2 15  4  0  0  0  0
  2 30  1  0  0  0  0
  3 16  4  0  0  0  0
  4  5  4  0  0  0  0
  4  7  4  0  0  0  0
  4 17  1  0  0  0  0
  5  9  4  0  0  0  0
  5 31  1  0  0  0  0
  6  7  4  0  0  0  0
  6  8  4  0  0  0  0
  6 32  1  0  0  0  0
  7 33  1  0  0  0  0
  8  9  4  0  0  0  0
  8 20  1  0  0  0  0
  9 34  1  0  0  0  0
 10 11  1  0  0  0  0
 10 21  1  0  0  0  0
 10 24  1  0  0  0  0
 10 35  1  0  0  0  0
 11 12  1  0  0  0  0
 11 36  1  0  0  0  0
 11 37  1  0  0  0  0
 12 23  1  0  0  0  0
 12 38  1  0  0  0  0
 12 39  1  0  0  0  0
 13 23  1  0  0  0  0
 13 25  4  0  0  0  0
 13 29  4  0  0  0  0
 15 16  4  0  0  0  0
 15 18  4  0  0  0  0
 16 17  4  0  0  0  0
 17 19  4  0  0  0  0
 18 19  4  0  0  0  0
 20 22  1  0  0  0  0
 21 40  1  0  0  0  0
 22 41  1  0  0  0  0
 22 42  1  0  0  0  0
 22 43  1  0  0  0  0
 23 24  1  0  0  0  0
 24 44  1  0  0  0  0
 24 45  1  0  0  0  0
 25 26  4  0  0  0  0
 25 46  1  0  0  0  0
 26 27  4  0  0  0  0
 26 47  1  0  0  0  0
 27 28  4  0  0  0  0
 28 29  4  0  0  0  0
 28 48  1  0  0  0  0
 29 49  1  0  0  0  0
M  END
> <ConfClashScore>
0 

> <ConfOneFourInteractionScore>
-0.983503 

> <ConfScore>
0.155152 

> <ConfScorePBest>
0.00171396 

> <ConfTolerance>
0.437596 

> <HETNAM>
     OWQ A 303  OWQ                                                       

> <pdb_OW>
Q_303 -16.5129 3.80749 7.62812 0.15963 1.39178 -0.28144 -3.20151 0 0 0 -1.30514 0 0 0 0 0 0 0 0 -8.31393

$$$$
6yky_lig_1.pdb
 OpenBabel04162415593D

 49 53  0  0  0  0  0  0  0  0999 V2000
    3.3130   -0.7562   -0.8095 C   0  0  0  1  0  0  0  0  0  0  0  0
    4.0344   -1.6768   -2.7949 C   0  0  0  1  0  0  0  0  0  0  0  0
    2.0441   -0.9467   -1.1000 N   0  0  0  1  0  0  0  0  0  0  0  0
   -0.8583   -1.7095   -2.4492 C   0  0  0  1  0  0  0  0  0  0  0  0
   -1.1792   -1.4650   -1.1273 C   0  0  0  1  0  0  0  0  0  0  0  0
   -3.1887   -1.8783   -2.9859 C   0  0  0  1  0  0  0  0  0  0  0  0
   -1.8644   -1.9191   -3.3795 C   0  0  0  1  0  0  0  0  0  0  0  0
   -3.5107   -1.6331   -1.6601 C   0  0  0  1  0  0  0  0  0  0  0  0
   -2.5074   -1.4241   -0.7328 C   0  0  0  1  0  0  0  0  0  0  0  0
    2.6521    0.3194    1.3128 C   0  0  0  1  0  0  0  0  0  0  0  0
    1.6734   -0.7858    1.7405 C   0  0  0  1  0  0  0  0  0  0  0  0
    0.4589    0.0348    2.2014 C   0  0  0  1  0  0  0  0  0  0  0  0
    0.1705    2.6092    2.2703 C   0  0  0  1  0  0  0  0  0  0  0  0
    4.2874   -1.1090   -1.6296 N   0  0  0  1  0  0  0  0  0  0  0  0
    2.7012   -1.9033   -3.1550 C   0  0  0  1  0  0  0  0  0  0  0  0
    1.6941   -1.5109   -2.2494 C   0  0  0  1  0  0  0  0  0  0  0  0
    0.5057   -1.8412   -2.8397 N   0  0  0  1  0  0  0  0  0  0  0  0
    2.0944   -2.4438   -4.2342 N   0  0  0  1  0  0  0  0  0  0  0  0
    0.8165   -2.4211   -4.0788 N   0  0  0  1  0  0  0  0  0  0  0  0
   -4.8382   -1.6221   -1.3927 O   0  0  0  1  0  0  0  0  0  0  0  0
    3.6316   -0.1817    0.3643 N   0  0  0  1  0  0  0  0  0  0  0  0
   -5.2295   -1.4802   -0.0182 C   0  0  0  1  0  0  0  0  0  0  0  0
    0.7365    1.4329    1.7548 N   0  0  0  1  0  0  0  0  0  0  0  0
    1.7239    1.3309    0.6642 C   0  0  0  1  0  0  0  0  0  0  0  0
    0.5883    3.8482    1.8210 C   0  0  0  1  0  0  0  0  0  0  0  0
    0.0015    4.9806    2.3527 C   0  0  0  1  0  0  0  0  0  0  0  0
   -0.9533    4.9438    3.2872 N   0  0  0  1  0  0  0  0  0  0  0  0
   -1.3457    3.7360    3.7169 C   0  0  0  1  0  0  0  0  0  0  0  0
   -0.8149    2.5516    3.2365 C   0  0  0  1  0  0  0  0  0  0  0  0
    4.8100   -1.9499   -3.4317 H   0  0  0  1  0  0  0  0  0  0  0  0
   -0.4241   -1.3118   -0.4287 H   0  0  0  1  0  0  0  0  0  0  0  0
   -3.9437   -2.0315   -3.6846 H   0  0  0  1  0  0  0  0  0  0  0  0
   -1.6228   -2.1070   -4.3734 H   0  0  0  1  0  0  0  0  0  0  0  0
   -2.7489   -1.2362    0.2612 H   0  0  0  1  0  0  0  0  0  0  0  0
    3.1560    0.7403    2.1577 H   0  0  0  1  0  0  0  0  0  0  0  0
    1.4234   -1.4245    0.9192 H   0  0  0  1  0  0  0  0  0  0  0  0
    2.0736   -1.3729    2.5405 H   0  0  0  1  0  0  0  0  0  0  0  0
   -0.4367   -0.3332    1.7460 H   0  0  0  1  0  0  0  0  0  0  0  0
    0.3612   -0.0061    3.2661 H   0  0  0  1  0  0  0  0  0  0  0  0
    4.5806   -0.0960    0.5931 H   0  0  0  1  0  0  0  0  0  0  0  0
   -4.8414   -0.5620    0.3707 H   0  0  0  1  0  0  0  0  0  0  0  0
   -4.8412   -2.3000    0.5494 H   0  0  0  1  0  0  0  0  0  0  0  0
   -6.2973   -1.4728    0.0495 H   0  0  0  1  0  0  0  0  0  0  0  0
    1.2905    0.9606   -0.2413 H   0  0  0  1  0  0  0  0  0  0  0  0
    2.2122    2.2633    0.4713 H   0  0  0  1  0  0  0  0  0  0  0  0
    1.3303    3.9264    1.0965 H   0  0  0  1  0  0  0  0  0  0  0  0
    0.3191    5.9091    2.0082 H   0  0  0  1  0  0  0  0  0  0  0  0
   -2.0851    3.6867    4.4466 H   0  0  0  1  0  0  0  0  0  0  0  0
   -1.1514    1.6357    3.5962 H   0  0  0  1  0  0  0  0  0  0  0  0
  1  3  4  0  0  0  0
  1 14  4  0  0  0  0
  1 21  1  0  0  0  0
  2 14  4  0  0  0  0
  2 15  4  0  0  0  0
  2 30  1  0  0  0  0
  3 16  4  0  0  0  0
  4  5  4  0  0  0  0
  4  7  4  0  0  0  0
  4 17  1  0  0  0  0
  5  9  4  0  0  0  0
  5 31  1  0  0  0  0
  6  7  4  0  0  0  0
  6  8  4  0  0  0  0
  6 32  1  0  0  0  0
  7 33  1  0  0  0  0
  8  9  4  0  0  0  0
  8 20  1  0  0  0  0
  9 34  1  0  0  0  0
 10 11  1  0  0  0  0
 10 21  1  0  0  0  0
 10 24  1  0  0  0  0
 10 35  1  0  0  0  0
 11 12  1  0  0  0  0
 11 36  1  0  0  0  0
 11 37  1  0  0  0  0
 12 23  1  0  0  0  0
 12 38  1  0  0  0  0
 12 39  1  0  0  0  0
 13 23  1  0  0  0  0
 13 25  4  0  0  0  0
 13 29  4  0  0  0  0
 15 16  4  0  0  0  0
 15 18  4  0  0  0  0
 16 17  4  0  0  0  0
 17 19  4  0  0  0  0
 18 19  4  0  0  0  0
 20 22  1  0  0  0  0
 21 40  1  0  0  0  0
 22 41  1  0  0  0  0
 22 42  1  0  0  0  0
 22 43  1  0  0  0  0
 23 24  1  0  0  0  0
 24 44  1  0  0  0  0
 24 45  1  0  0  0  0
 25 26  4  0  0  0  0
 25 46  1  0  0  0  0
 26 27  4  0  0  0  0
 26 47  1  0  0  0  0
 27 28  4  0  0  0  0
 28 29  4  0  0  0  0
 28 48  1  0  0  0  0
 29 49  1  0  0  0  0
M  END
> <ConfClashScore>
0 

> <ConfOneFourInteractionScore>
-0.983503 

> <ConfScore>
0.155251 

> <ConfScorePBest>
0.00170063 

> <ConfTolerance>
0.386056 

> <HETNAM>
     OWQ A 303  OWQ                                                       

> <pdb_OW>
Q_303 -16.5129 3.80749 7.62812 0.15963 1.39178 -0.28144 -3.20151 0 0 0 -1.30514 0 0 0 0 0 0 0 0 -8.31393

$$$$
6yky_lig_1.pdb
 OpenBabel04162415593D

 49 53  0  0  0  0  0  0  0  0999 V2000
   -0.3726   -0.3874    0.1550 C   0  0  0  1  0  0  0  0  0  0  0  0
   -2.0225   -1.0206   -1.3237 C   0  0  0  1  0  0  0  0  0  0  0  0
    0.5924   -0.8318   -0.6210 N   0  0  0  1  0  0  0  0  0  0  0  0
    2.4653   -2.0008   -2.9713 C   0  0  0  1  0  0  0  0  0  0  0  0
    2.9998   -2.4161   -4.1763 C   0  0  0  1  0  0  0  0  0  0  0  0
    4.6689   -1.8697   -2.0364 C   0  0  0  1  0  0  0  0  0  0  0  0
    3.3008   -1.7298   -1.8989 C   0  0  0  1  0  0  0  0  0  0  0  0
    5.2052   -2.2862   -3.2449 C   0  0  0  1  0  0  0  0  0  0  0  0
    4.3719   -2.5564   -4.3140 C   0  0  0  1  0  0  0  0  0  0  0  0
   -1.0278    0.6840    2.2812 C   0  0  0  1  0  0  0  0  0  0  0  0
   -2.0196   -0.4129    2.6999 C   0  0  0  1  0  0  0  0  0  0  0  0
   -3.2264    0.4182    3.1621 C   0  0  0  1  0  0  0  0  0  0  0  0
   -3.4769    2.9732    3.2351 C   0  0  0  1  0  0  0  0  0  0  0  0
   -1.6478   -0.4759   -0.1804 N   0  0  0  1  0  0  0  0  0  0  0  0
   -1.0366   -1.5101   -2.1880 C   0  0  0  1  0  0  0  0  0  0  0  0
    0.3110   -1.3948   -1.7896 C   0  0  0  1  0  0  0  0  0  0  0  0
    1.0519   -1.9424   -2.8001 N   0  0  0  1  0  0  0  0  0  0  0  0
   -1.0566   -2.1102   -3.3982 N   0  0  0  1  0  0  0  0  0  0  0  0
    0.1446   -2.3735   -3.7795 N   0  0  0  1  0  0  0  0  0  0  0  0
    6.5693   -2.3793   -3.2146 O   0  0  0  1  0  0  0  0  0  0  0  0
   -0.0511    0.1777    1.3327 N   0  0  0  1  0  0  0  0  0  0  0  0
    7.1087   -3.0383   -4.3710 C   0  0  0  1  0  0  0  0  0  0  0  0
   -2.9324    1.8157    2.7241 N   0  0  0  1  0  0  0  0  0  0  0  0
   -1.9431    1.7091    1.6358 C   0  0  0  1  0  0  0  0  0  0  0  0
   -2.9632    3.6232    4.3420 C   0  0  0  1  0  0  0  0  0  0  0  0
   -3.5778    4.7819    4.7771 C   0  0  0  1  0  0  0  0  0  0  0  0
   -4.6519    5.3114    4.1836 N   0  0  0  1  0  0  0  0  0  0  0  0
   -5.1420    4.6685    3.1142 C   0  0  0  1  0  0  0  0  0  0  0  0
   -4.5872    3.5055    2.6093 C   0  0  0  1  0  0  0  0  0  0  0  0
   -3.0293   -1.0844   -1.5764 H   0  0  0  1  0  0  0  0  0  0  0  0
    2.3726   -2.6233   -4.9796 H   0  0  0  1  0  0  0  0  0  0  0  0
    5.2961   -1.6625   -1.2331 H   0  0  0  1  0  0  0  0  0  0  0  0
    2.8982   -1.4211   -0.9910 H   0  0  0  1  0  0  0  0  0  0  0  0
    4.7745   -2.8650   -5.2219 H   0  0  0  1  0  0  0  0  0  0  0  0
   -0.5218    1.0947    3.1299 H   0  0  0  1  0  0  0  0  0  0  0  0
   -2.2742   -1.0442    1.8744 H   0  0  0  1  0  0  0  0  0  0  0  0
   -1.6281   -1.0088    3.4978 H   0  0  0  1  0  0  0  0  0  0  0  0
   -3.3277    0.3724    4.2263 H   0  0  0  1  0  0  0  0  0  0  0  0
   -4.1247    0.0625    2.7022 H   0  0  0  1  0  0  0  0  0  0  0  0
    0.8982    0.2522    1.5643 H   0  0  0  1  0  0  0  0  0  0  0  0
    6.6962   -2.6011   -5.2562 H   0  0  0  1  0  0  0  0  0  0  0  0
    6.8591   -4.0783   -4.3374 H   0  0  0  1  0  0  0  0  0  0  0  0
    8.1728   -2.9266   -4.3809 H   0  0  0  1  0  0  0  0  0  0  0  0
   -1.4443    2.6372    1.4495 H   0  0  0  1  0  0  0  0  0  0  0  0
   -2.3779    1.3486    0.7270 H   0  0  0  1  0  0  0  0  0  0  0  0
   -2.1300    3.2471    4.8379 H   0  0  0  1  0  0  0  0  0  0  0  0
   -3.1845    5.2667    5.6088 H   0  0  0  1  0  0  0  0  0  0  0  0
   -5.9799    5.0629    2.6409 H   0  0  0  1  0  0  0  0  0  0  0  0
   -4.9985    3.0411    1.7745 H   0  0  0  1  0  0  0  0  0  0  0  0
  1  3  4  0  0  0  0
  1 14  4  0  0  0  0
  1 21  1  0  0  0  0
  2 14  4  0  0  0  0
  2 15  4  0  0  0  0
  2 30  1  0  0  0  0
  3 16  4  0  0  0  0
  4  5  4  0  0  0  0
  4  7  4  0  0  0  0
  4 17  1  0  0  0  0
  5  9  4  0  0  0  0
  5 31  1  0  0  0  0
  6  7  4  0  0  0  0
  6  8  4  0  0  0  0
  6 32  1  0  0  0  0
  7 33  1  0  0  0  0
  8  9  4  0  0  0  0
  8 20  1  0  0  0  0
  9 34  1  0  0  0  0
 10 11  1  0  0  0  0
 10 21  1  0  0  0  0
 10 24  1  0  0  0  0
 10 35  1  0  0  0  0
 11 12  1  0  0  0  0
 11 36  1  0  0  0  0
 11 37  1  0  0  0  0
 12 23  1  0  0  0  0
 12 38  1  0  0  0  0
 12 39  1  0  0  0  0
 13 23  1  0  0  0  0
 13 25  4  0  0  0  0
 13 29  4  0  0  0  0
 15 16  4  0  0  0  0
 15 18  4  0  0  0  0
 16 17  4  0  0  0  0
 17 19  4  0  0  0  0
 18 19  4  0  0  0  0
 20 22  1  0  0  0  0
 21 40  1  0  0  0  0
 22 41  1  0  0  0  0
 22 42  1  0  0  0  0
 22 43  1  0  0  0  0
 23 24  1  0  0  0  0
 24 44  1  0  0  0  0
 24 45  1  0  0  0  0
 25 26  4  0  0  0  0
 25 46  1  0  0  0  0
 26 27  4  0  0  0  0
 26 47  1  0  0  0  0
 27 28  4  0  0  0  0
 28 29  4  0  0  0  0
 28 48  1  0  0  0  0
 29 49  1  0  0  0  0
M  END
> <ConfClashScore>
0 

> <ConfOneFourInteractionScore>
-0.983503 

> <ConfScore>
0.155648 

> <ConfScorePBest>
0.0016873 

> <ConfTolerance>
0.437553 

> <HETNAM>
     OWQ A 303  OWQ                                                       

> <pdb_OW>
Q_303 -16.5129 3.80749 7.62812 0.15963 1.39178 -0.28144 -3.20151 0 0 0 -1.30514 0 0 0 0 0 0 0 0 -8.31393

$$$$
6yky_lig_1.pdb
 OpenBabel04162415593D

 49 53  0  0  0  0  0  0  0  0999 V2000
    0.3976    0.2485    0.5662 C   0  0  0  1  0  0  0  0  0  0  0  0
    1.9757    1.7771    1.2607 C   0  0  0  1  0  0  0  0  0  0  0  0
    1.2347   -0.3501   -0.2535 N   0  0  0  1  0  0  0  0  0  0  0  0
    3.7895   -1.4085   -1.9804 C   0  0  0  1  0  0  0  0  0  0  0  0
    4.2701   -2.6066   -1.4866 C   0  0  0  1  0  0  0  0  0  0  0  0
    3.8950   -2.2828   -4.2102 C   0  0  0  1  0  0  0  0  0  0  0  0
    3.6042   -1.2454   -3.3445 C   0  0  0  1  0  0  0  0  0  0  0  0
    4.3770   -3.4845   -3.7150 C   0  0  0  1  0  0  0  0  0  0  0  0
    4.5617   -3.6469   -2.3549 C   0  0  0  1  0  0  0  0  0  0  0  0
   -1.8471    0.2898    1.6049 C   0  0  0  1  0  0  0  0  0  0  0  0
   -2.8265   -0.8149    2.0324 C   0  0  0  1  0  0  0  0  0  0  0  0
   -4.0400    0.0063    2.4947 C   0  0  0  1  0  0  0  0  0  0  0  0
   -4.3138    2.5547    2.5544 C   0  0  0  1  0  0  0  0  0  0  0  0
    0.7512    1.2846    1.3065 N   0  0  0  1  0  0  0  0  0  0  0  0
    2.9077    1.1785    0.4053 C   0  0  0  1  0  0  0  0  0  0  0  0
    2.4868    0.0757   -0.3659 C   0  0  0  1  0  0  0  0  0  0  0  0
    3.5745   -0.3089   -1.1002 N   0  0  0  1  0  0  0  0  0  0  0  0
    4.2057    1.4121    0.1129 N   0  0  0  1  0  0  0  0  0  0  0  0
    4.6207    0.5619   -0.7603 N   0  0  0  1  0  0  0  0  0  0  0  0
    4.7004   -4.5658   -4.4633 O   0  0  0  1  0  0  0  0  0  0  0  0
   -0.8687   -0.2113    0.6554 N   0  0  0  1  0  0  0  0  0  0  0  0
    4.4041   -4.5047   -5.8672 C   0  0  0  1  0  0  0  0  0  0  0  0
   -3.7616    1.4045    2.0490 N   0  0  0  1  0  0  0  0  0  0  0  0
   -2.7750    1.3025    0.9577 C   0  0  0  1  0  0  0  0  0  0  0  0
   -3.5809    3.2873    3.4697 C   0  0  0  1  0  0  0  0  0  0  0  0
   -4.1631    4.3976    4.0512 C   0  0  0  1  0  0  0  0  0  0  0  0
   -5.4067    4.8035    3.7774 N   0  0  0  1  0  0  0  0  0  0  0  0
   -6.1073    4.0815    2.8915 C   0  0  0  1  0  0  0  0  0  0  0  0
   -5.6012    2.9590    2.2596 C   0  0  0  1  0  0  0  0  0  0  0  0
    2.2419    2.5930    1.8482 H   0  0  0  1  0  0  0  0  0  0  0  0
    4.4129   -2.7275   -0.4635 H   0  0  0  1  0  0  0  0  0  0  0  0
    3.7522   -2.1619   -5.2332 H   0  0  0  1  0  0  0  0  0  0  0  0
    3.2463   -0.3425   -3.7164 H   0  0  0  1  0  0  0  0  0  0  0  0
    4.9196   -4.5498   -1.9830 H   0  0  0  1  0  0  0  0  0  0  0  0
   -1.3424    0.7097    2.4498 H   0  0  0  1  0  0  0  0  0  0  0  0
   -3.0775   -1.4528    1.2108 H   0  0  0  1  0  0  0  0  0  0  0  0
   -2.4262   -1.4029    2.8317 H   0  0  0  1  0  0  0  0  0  0  0  0
   -4.9362   -0.3607    2.0397 H   0  0  0  1  0  0  0  0  0  0  0  0
   -4.1371   -0.0354    3.5595 H   0  0  0  1  0  0  0  0  0  0  0  0
   -1.1441   -0.9254    0.0433 H   0  0  0  1  0  0  0  0  0  0  0  0
    3.4889   -5.0238   -6.0619 H   0  0  0  1  0  0  0  0  0  0  0  0
    5.1980   -4.9627   -6.4193 H   0  0  0  1  0  0  0  0  0  0  0  0
    4.3045   -3.4822   -6.1663 H   0  0  0  1  0  0  0  0  0  0  0  0
   -3.2093    0.9333    0.0522 H   0  0  0  1  0  0  0  0  0  0  0  0
   -2.2861    2.2347    0.7652 H   0  0  0  1  0  0  0  0  0  0  0  0
   -2.6098    3.0081    3.7159 H   0  0  0  1  0  0  0  0  0  0  0  0
   -3.6050    4.9452    4.7369 H   0  0  0  1  0  0  0  0  0  0  0  0
   -7.0784    4.3793    2.6681 H   0  0  0  1  0  0  0  0  0  0  0  0
   -6.1793    2.4299    1.5759 H   0  0  0  1  0  0  0  0  0  0  0  0
  1  3  4  0  0  0  0
  1 14  4  0  0  0  0
  1 21  1  0  0  0  0
  2 14  4  0  0  0  0
  2 15  4  0  0  0  0
  2 30  1  0  0  0  0
  3 16  4  0  0  0  0
  4  5  4  0  0  0  0
  4  7  4  0  0  0  0
  4 17  1  0  0  0  0
  5  9  4  0  0  0  0
  5 31  1  0  0  0  0
  6  7  4  0  0  0  0
  6  8  4  0  0  0  0
  6 32  1  0  0  0  0
  7 33  1  0  0  0  0
  8  9  4  0  0  0  0
  8 20  1  0  0  0  0
  9 34  1  0  0  0  0
 10 11  1  0  0  0  0
 10 21  1  0  0  0  0
 10 24  1  0  0  0  0
 10 35  1  0  0  0  0
 11 12  1  0  0  0  0
 11 36  1  0  0  0  0
 11 37  1  0  0  0  0
 12 23  1  0  0  0  0
 12 38  1  0  0  0  0
 12 39  1  0  0  0  0
 13 23  1  0  0  0  0
 13 25  4  0  0  0  0
 13 29  4  0  0  0  0
 15 16  4  0  0  0  0
 15 18  4  0  0  0  0
 16 17  4  0  0  0  0
 17 19  4  0  0  0  0
 18 19  4  0  0  0  0
 20 22  1  0  0  0  0
 21 40  1  0  0  0  0
 22 41  1  0  0  0  0
 22 42  1  0  0  0  0
 22 43  1  0  0  0  0
 23 24  1  0  0  0  0
 24 44  1  0  0  0  0
 24 45  1  0  0  0  0
 25 26  4  0  0  0  0
 25 46  1  0  0  0  0
 26 27  4  0  0  0  0
 26 47  1  0  0  0  0
 27 28  4  0  0  0  0
 28 29  4  0  0  0  0
 28 48  1  0  0  0  0
 29 49  1  0  0  0  0
M  END
> <ConfClashScore>
0 

> <ConfOneFourInteractionScore>
-0.991755 

> <ConfScore>
0.155955 

> <ConfScorePBest>
0.00167397 

> <ConfTolerance>
0.717287 

> <HETNAM>
     OWQ A 303  OWQ                                                       

> <pdb_OW>
Q_303 -16.5129 3.80749 7.62812 0.15963 1.39178 -0.28144 -3.20151 0 0 0 -1.30514 0 0 0 0 0 0 0 0 -8.31393

$$$$
6yky_lig_1.pdb
 OpenBabel04162415593D

 49 53  0  0  0  0  0  0  0  0999 V2000
    3.2996   -0.9678   -0.5474 C   0  0  0  1  0  0  0  0  0  0  0  0
    4.0467   -1.8434   -2.5435 C   0  0  0  1  0  0  0  0  0  0  0  0
    2.0339   -1.1001   -0.8812 N   0  0  0  1  0  0  0  0  0  0  0  0
   -0.8383   -1.6867   -2.2988 C   0  0  0  1  0  0  0  0  0  0  0  0
   -1.7598   -1.3825   -3.2829 C   0  0  0  1  0  0  0  0  0  0  0  0
   -2.5373   -1.4341   -0.6264 C   0  0  0  1  0  0  0  0  0  0  0  0
   -1.2268   -1.7099   -0.9684 C   0  0  0  1  0  0  0  0  0  0  0  0
   -3.4617   -1.1289   -1.6133 C   0  0  0  1  0  0  0  0  0  0  0  0
   -3.0741   -1.1059   -2.9398 C   0  0  0  1  0  0  0  0  0  0  0  0
    2.7001    0.0611    1.6081 C   0  0  0  1  0  0  0  0  0  0  0  0
    1.7068   -1.0342    2.0276 C   0  0  0  1  0  0  0  0  0  0  0  0
    0.5015   -0.2011    2.4902 C   0  0  0  1  0  0  0  0  0  0  0  0
    0.2550    2.3543    2.5628 C   0  0  0  1  0  0  0  0  0  0  0  0
    4.2848   -1.3274   -1.3514 N   0  0  0  1  0  0  0  0  0  0  0  0
    2.7175   -2.0068   -2.9500 C   0  0  0  1  0  0  0  0  0  0  0  0
    1.6985   -1.6094   -2.0602 C   0  0  0  1  0  0  0  0  0  0  0  0
    0.5172   -1.8736   -2.6963 N   0  0  0  1  0  0  0  0  0  0  0  0
    2.1244   -2.4854   -4.0654 N   0  0  0  1  0  0  0  0  0  0  0  0
    0.8441   -2.4203   -3.9464 N   0  0  0  1  0  0  0  0  0  0  0  0
   -4.7046   -0.8731   -1.1609 O   0  0  0  1  0  0  0  0  0  0  0  0
    3.6753   -0.4468    0.6593 N   0  0  0  1  0  0  0  0  0  0  0  0
   -5.6741   -0.5495   -2.1846 C   0  0  0  1  0  0  0  0  0  0  0  0
    0.7974    1.1958    2.0518 N   0  0  0  1  0  0  0  0  0  0  0  0
    1.7860    1.0875    0.9629 C   0  0  0  1  0  0  0  0  0  0  0  0
   -0.9894    2.7923    2.1490 C   0  0  0  1  0  0  0  0  0  0  0  0
   -1.4977    3.9577    2.6903 C   0  0  0  1  0  0  0  0  0  0  0  0
   -0.8460    4.6922    3.5969 N   0  0  0  1  0  0  0  0  0  0  0  0
    0.3613    4.2582    3.9859 C   0  0  0  1  0  0  0  0  0  0  0  0
    0.9437    3.1011    3.4987 C   0  0  0  1  0  0  0  0  0  0  0  0
    4.8306   -2.1226   -3.1672 H   0  0  0  1  0  0  0  0  0  0  0  0
   -1.4673   -1.3612   -4.2806 H   0  0  0  1  0  0  0  0  0  0  0  0
   -2.8298   -1.4554    0.3714 H   0  0  0  1  0  0  0  0  0  0  0  0
   -0.5324   -1.9349   -0.2276 H   0  0  0  1  0  0  0  0  0  0  0  0
   -3.7685   -0.8809   -3.6805 H   0  0  0  1  0  0  0  0  0  0  0  0
    3.2072    0.4712    2.4564 H   0  0  0  1  0  0  0  0  0  0  0  0
    2.0978   -1.6305    2.8253 H   0  0  0  1  0  0  0  0  0  0  0  0
    1.4508   -1.6653    1.2023 H   0  0  0  1  0  0  0  0  0  0  0  0
   -0.3976   -0.5556    2.0309 H   0  0  0  1  0  0  0  0  0  0  0  0
    0.4008   -0.2466    3.5545 H   0  0  0  1  0  0  0  0  0  0  0  0
    4.6272   -0.4153    0.8901 H   0  0  0  1  0  0  0  0  0  0  0  0
   -6.6222   -0.3526   -1.7292 H   0  0  0  1  0  0  0  0  0  0  0  0
   -5.7676   -1.3739   -2.8603 H   0  0  0  1  0  0  0  0  0  0  0  0
   -5.3497    0.3174   -2.7214 H   0  0  0  1  0  0  0  0  0  0  0  0
    2.2862    2.0148    0.7762 H   0  0  0  1  0  0  0  0  0  0  0  0
    1.3501    0.7275    0.0545 H   0  0  0  1  0  0  0  0  0  0  0  0
   -1.5326    2.2547    1.4436 H   0  0  0  1  0  0  0  0  0  0  0  0
   -2.4354    4.2797    2.3761 H   0  0  0  1  0  0  0  0  0  0  0  0
    0.8858    4.8182    4.6879 H   0  0  0  1  0  0  0  0  0  0  0  0
    1.8820    2.7996    3.8309 H   0  0  0  1  0  0  0  0  0  0  0  0
  1  3  4  0  0  0  0
  1 14  4  0  0  0  0
  1 21  1  0  0  0  0
  2 14  4  0  0  0  0
  2 15  4  0  0  0  0
  2 30  1  0  0  0  0
  3 16  4  0  0  0  0
  4  5  4  0  0  0  0
  4  7  4  0  0  0  0
  4 17  1  0  0  0  0
  5  9  4  0  0  0  0
  5 31  1  0  0  0  0
  6  7  4  0  0  0  0
  6  8  4  0  0  0  0
  6 32  1  0  0  0  0
  7 33  1  0  0  0  0
  8  9  4  0  0  0  0
  8 20  1  0  0  0  0
  9 34  1  0  0  0  0
 10 11  1  0  0  0  0
 10 21  1  0  0  0  0
 10 24  1  0  0  0  0
 10 35  1  0  0  0  0
 11 12  1  0  0  0  0
 11 36  1  0  0  0  0
 11 37  1  0  0  0  0
 12 23  1  0  0  0  0
 12 38  1  0  0  0  0
 12 39  1  0  0  0  0
 13 23  1  0  0  0  0
 13 25  4  0  0  0  0
 13 29  4  0  0  0  0
 15 16  4  0  0  0  0
 15 18  4  0  0  0  0
 16 17  4  0  0  0  0
 17 19  4  0  0  0  0
 18 19  4  0  0  0  0
 20 22  1  0  0  0  0
 21 40  1  0  0  0  0
 22 41  1  0  0  0  0
 22 42  1  0  0  0  0
 22 43  1  0  0  0  0
 23 24  1  0  0  0  0
 24 44  1  0  0  0  0
 24 45  1  0  0  0  0
 25 26  4  0  0  0  0
 25 46  1  0  0  0  0
 26 27  4  0  0  0  0
 26 47  1  0  0  0  0
 27 28  4  0  0  0  0
 28 29  4  0  0  0  0
 28 48  1  0  0  0  0
 29 49  1  0  0  0  0
M  END
> <ConfClashScore>
0 

> <ConfOneFourInteractionScore>
-0.983503 

> <ConfScore>
0.158119 

> <ConfScorePBest>
0.00166065 

> <ConfTolerance>
0.427652 

> <HETNAM>
     OWQ A 303  OWQ                                                       

> <pdb_OW>
Q_303 -16.5129 3.80749 7.62812 0.15963 1.39178 -0.28144 -3.20151 0 0 0 -1.30514 0 0 0 0 0 0 0 0 -8.31393

$$$$
6yky_lig_1.pdb
 OpenBabel04162415593D

 49 53  0  0  0  0  0  0  0  0999 V2000
    0.0804   -0.1128    0.8003 C   0  0  0  1  0  0  0  0  0  0  0  0
   -1.8536   -0.2690   -0.4426 C   0  0  0  1  0  0  0  0  0  0  0  0
    0.8416   -0.4851   -0.2061 N   0  0  0  1  0  0  0  0  0  0  0  0
    2.1224   -1.4439   -3.0422 C   0  0  0  1  0  0  0  0  0  0  0  0
    2.3316   -2.2472   -4.1472 C   0  0  0  1  0  0  0  0  0  0  0  0
    4.4899   -1.3076   -2.6903 C   0  0  0  1  0  0  0  0  0  0  0  0
    3.2030   -0.9755   -2.3110 C   0  0  0  1  0  0  0  0  0  0  0  0
    4.6999   -2.1133   -3.7986 C   0  0  0  1  0  0  0  0  0  0  0  0
    3.6223   -2.5802   -4.5275 C   0  0  0  1  0  0  0  0  0  0  0  0
   -0.0661    0.6678    3.1385 C   0  0  0  1  0  0  0  0  0  0  0  0
   -1.1969   -0.2896    3.5470 C   0  0  0  1  0  0  0  0  0  0  0  0
   -2.1354    0.6333    4.3039 C   0  0  0  1  0  0  0  0  0  0  0  0
   -3.4113    2.3548    2.8676 C   0  0  0  1  0  0  0  0  0  0  0  0
   -1.2324   -0.0053    0.6926 N   0  0  0  1  0  0  0  0  0  0  0  0
   -1.0921   -0.6696   -1.5463 C   0  0  0  1  0  0  0  0  0  0  0  0
    0.3051   -0.7708   -1.3861 C   0  0  0  1  0  0  0  0  0  0  0  0
    0.7960   -1.1744   -2.5969 N   0  0  0  1  0  0  0  0  0  0  0  0
   -1.3844   -1.0090   -2.8208 N   0  0  0  1  0  0  0  0  0  0  0  0
   -0.3051   -1.3076   -3.4560 N   0  0  0  1  0  0  0  0  0  0  0  0
    5.9606   -2.4430   -4.1671 O   0  0  0  1  0  0  0  0  0  0  0  0
    0.6578    0.1691    1.9821 N   0  0  0  1  0  0  0  0  0  0  0  0
    6.1052   -3.3714   -5.2532 C   0  0  0  1  0  0  0  0  0  0  0  0
   -2.2371    1.6996    3.2903 N   0  0  0  1  0  0  0  0  0  0  0  0
   -0.8477    1.9469    2.8009 C   0  0  0  1  0  0  0  0  0  0  0  0
   -3.8899    3.4005    3.6351 C   0  0  0  1  0  0  0  0  0  0  0  0
   -5.0382    4.0526    3.2280 C   0  0  0  1  0  0  0  0  0  0  0  0
   -5.7187    3.7234    2.1258 N   0  0  0  1  0  0  0  0  0  0  0  0
   -5.2459    2.7048    1.3935 C   0  0  0  1  0  0  0  0  0  0  0  0
   -4.1021    1.9999    1.7254 C   0  0  0  1  0  0  0  0  0  0  0  0
   -2.8874   -0.1808   -0.5148 H   0  0  0  1  0  0  0  0  0  0  0  0
    1.5207   -2.6018   -4.6933 H   0  0  0  1  0  0  0  0  0  0  0  0
    5.3008   -0.9530   -2.1441 H   0  0  0  1  0  0  0  0  0  0  0  0
    3.0453   -0.3744   -1.4771 H   0  0  0  1  0  0  0  0  0  0  0  0
    3.7799   -3.1814   -5.3613 H   0  0  0  1  0  0  0  0  0  0  0  0
    0.6178    0.8303    3.9452 H   0  0  0  1  0  0  0  0  0  0  0  0
   -1.6764   -0.7129    2.6893 H   0  0  0  1  0  0  0  0  0  0  0  0
   -0.8328   -1.0746    4.1764 H   0  0  0  1  0  0  0  0  0  0  0  0
   -3.0806    0.1738    4.5047 H   0  0  0  1  0  0  0  0  0  0  0  0
   -1.7072    0.9843    5.2195 H   0  0  0  1  0  0  0  0  0  0  0  0
    1.6240    0.0297    2.0680 H   0  0  0  1  0  0  0  0  0  0  0  0
    5.6476   -2.9671   -6.1319 H   0  0  0  1  0  0  0  0  0  0  0  0
    5.6309   -4.2958   -4.9975 H   0  0  0  1  0  0  0  0  0  0  0  0
    7.1448   -3.5428   -5.4395 H   0  0  0  1  0  0  0  0  0  0  0  0
   -0.4191    2.7907    3.3000 H   0  0  0  1  0  0  0  0  0  0  0  0
   -0.8473    2.1185    1.7447 H   0  0  0  1  0  0  0  0  0  0  0  0
   -3.3950    3.6908    4.5025 H   0  0  0  1  0  0  0  0  0  0  0  0
   -5.3909    4.8398    3.8089 H   0  0  0  1  0  0  0  0  0  0  0  0
   -5.7638    2.4311    0.5341 H   0  0  0  1  0  0  0  0  0  0  0  0
   -3.7691    1.2178    1.1262 H   0  0  0  1  0  0  0  0  0  0  0  0
  1  3  4  0  0  0  0
  1 14  4  0  0  0  0
  1 21  1  0  0  0  0
  2 14  4  0  0  0  0
  2 15  4  0  0  0  0
  2 30  1  0  0  0  0
  3 16  4  0  0  0  0
  4  5  4  0  0  0  0
  4  7  4  0  0  0  0
  4 17  1  0  0  0  0
  5  9  4  0  0  0  0
  5 31  1  0  0  0  0
  6  7  4  0  0  0  0
  6  8  4  0  0  0  0
  6 32  1  0  0  0  0
  7 33  1  0  0  0  0
  8  9  4  0  0  0  0
  8 20  1  0  0  0  0
  9 34  1  0  0  0  0
 10 11  1  0  0  0  0
 10 21  1  0  0  0  0
 10 24  1  0  0  0  0
 10 35  1  0  0  0  0
 11 12  1  0  0  0  0
 11 36  1  0  0  0  0
 11 37  1  0  0  0  0
 12 23  1  0  0  0  0
 12 38  1  0  0  0  0
 12 39  1  0  0  0  0
 13 23  1  0  0  0  0
 13 25  4  0  0  0  0
 13 29  4  0  0  0  0
 15 16  4  0  0  0  0
 15 18  4  0  0  0  0
 16 17  4  0  0  0  0
 17 19  4  0  0  0  0
 18 19  4  0  0  0  0
 20 22  1  0  0  0  0
 21 40  1  0  0  0  0
 22 41  1  0  0  0  0
 22 42  1  0  0  0  0
 22 43  1  0  0  0  0
 23 24  1  0  0  0  0
 24 44  1  0  0  0  0
 24 45  1  0  0  0  0
 25 26  4  0  0  0  0
 25 46  1  0  0  0  0
 26 27  4  0  0  0  0
 26 47  1  0  0  0  0
 27 28  4  0  0  0  0
 28 29  4  0  0  0  0
 28 48  1  0  0  0  0
 29 49  1  0  0  0  0
M  END
> <ConfClashScore>
0 

> <ConfOneFourInteractionScore>
-0.983503 

> <ConfScore>
0.158119 

> <ConfScorePBest>
0.00164732 

> <ConfTolerance>
0.714509 

> <HETNAM>
     OWQ A 303  OWQ                                                       

> <pdb_OW>
Q_303 -16.5129 3.80749 7.62812 0.15963 1.39178 -0.28144 -3.20151 0 0 0 -1.30514 0 0 0 0 0 0 0 0 -8.31393

$$$$
6yky_lig_1.pdb
 OpenBabel04162415593D

 49 53  0  0  0  0  0  0  0  0999 V2000
   -0.4126   -0.6125    0.0870 C   0  0  0  1  0  0  0  0  0  0  0  0
   -2.0373   -1.2749   -1.4066 C   0  0  0  1  0  0  0  0  0  0  0  0
    0.5672   -0.8938   -0.7447 N   0  0  0  1  0  0  0  0  0  0  0  0
    2.4759   -1.7822   -3.2289 C   0  0  0  1  0  0  0  0  0  0  0  0
    2.9364   -2.1391   -4.4822 C   0  0  0  1  0  0  0  0  0  0  0  0
    4.7335   -1.6607   -2.4315 C   0  0  0  1  0  0  0  0  0  0  0  0
    3.3755   -1.5452   -2.2013 C   0  0  0  1  0  0  0  0  0  0  0  0
    5.1955   -2.0186   -3.6884 C   0  0  0  1  0  0  0  0  0  0  0  0
    4.2983   -2.2548   -4.7129 C   0  0  0  1  0  0  0  0  0  0  0  0
   -1.1002    0.3890    2.2366 C   0  0  0  1  0  0  0  0  0  0  0  0
   -2.0886   -0.7100    2.6583 C   0  0  0  1  0  0  0  0  0  0  0  0
   -3.3049    0.1180    3.1006 C   0  0  0  1  0  0  0  0  0  0  0  0
   -3.5878    2.7031    3.1572 C   0  0  0  1  0  0  0  0  0  0  0  0
   -1.6829   -0.7954   -0.2282 N   0  0  0  1  0  0  0  0  0  0  0  0
   -1.0351   -1.5915   -2.3307 C   0  0  0  1  0  0  0  0  0  0  0  0
    0.3065   -1.3803   -1.9519 C   0  0  0  1  0  0  0  0  0  0  0  0
    1.0663   -1.7659   -3.0215 N   0  0  0  1  0  0  0  0  0  0  0  0
   -1.0334   -2.0860   -3.5879 N   0  0  0  1  0  0  0  0  0  0  0  0
    0.1758   -2.1983   -4.0156 N   0  0  0  1  0  0  0  0  0  0  0  0
    6.4942   -2.1669   -4.0297 O   0  0  0  1  0  0  0  0  0  0  0  0
   -0.1119   -0.1208    1.3025 N   0  0  0  1  0  0  0  0  0  0  0  0
    7.5155   -1.9142   -3.0522 C   0  0  0  1  0  0  0  0  0  0  0  0
   -3.0162    1.5126    2.6503 N   0  0  0  1  0  0  0  0  0  0  0  0
   -2.0165    1.4010    1.5720 C   0  0  0  1  0  0  0  0  0  0  0  0
   -4.4398    2.6680    4.2456 C   0  0  0  1  0  0  0  0  0  0  0  0
   -4.9729    3.8550    4.7107 C   0  0  0  1  0  0  0  0  0  0  0  0
   -4.7105    5.0442    4.1601 N   0  0  0  1  0  0  0  0  0  0  0  0
   -3.8863    5.0630    3.1029 C   0  0  0  1  0  0  0  0  0  0  0  0
   -3.3057    3.9232    2.5746 C   0  0  0  1  0  0  0  0  0  0  0  0
   -3.0405   -1.4144   -1.6429 H   0  0  0  1  0  0  0  0  0  0  0  0
    2.2612   -2.3208   -5.2520 H   0  0  0  1  0  0  0  0  0  0  0  0
    5.4086   -1.4790   -1.6616 H   0  0  0  1  0  0  0  0  0  0  0  0
    3.0287   -1.2805   -1.2572 H   0  0  0  1  0  0  0  0  0  0  0  0
    4.6451   -2.5195   -5.6570 H   0  0  0  1  0  0  0  0  0  0  0  0
   -0.6046    0.8121    3.0853 H   0  0  0  1  0  0  0  0  0  0  0  0
   -1.7003   -1.2946    3.4659 H   0  0  0  1  0  0  0  0  0  0  0  0
   -2.3315   -1.3518    1.8373 H   0  0  0  1  0  0  0  0  0  0  0  0
   -3.4154    0.0829    4.1643 H   0  0  0  1  0  0  0  0  0  0  0  0
   -4.1966   -0.2487    2.6366 H   0  0  0  1  0  0  0  0  0  0  0  0
    0.8297   -0.1057    1.5737 H   0  0  0  1  0  0  0  0  0  0  0  0
    7.3636   -0.9479   -2.6186 H   0  0  0  1  0  0  0  0  0  0  0  0
    8.4756   -1.9464   -3.5234 H   0  0  0  1  0  0  0  0  0  0  0  0
    7.4682   -2.6599   -2.2863 H   0  0  0  1  0  0  0  0  0  0  0  0
   -1.5221    2.3304    1.3802 H   0  0  0  1  0  0  0  0  0  0  0  0
   -2.4407    1.0279    0.6633 H   0  0  0  1  0  0  0  0  0  0  0  0
   -4.6750    1.7654    4.7054 H   0  0  0  1  0  0  0  0  0  0  0  0
   -5.6110    3.8213    5.5313 H   0  0  0  1  0  0  0  0  0  0  0  0
   -3.6729    5.9785    2.6582 H   0  0  0  1  0  0  0  0  0  0  0  0
   -2.6690    3.9843    1.7545 H   0  0  0  1  0  0  0  0  0  0  0  0
  1  3  4  0  0  0  0
  1 14  4  0  0  0  0
  1 21  1  0  0  0  0
  2 14  4  0  0  0  0
  2 15  4  0  0  0  0
  2 30  1  0  0  0  0
  3 16  4  0  0  0  0
  4  5  4  0  0  0  0
  4  7  4  0  0  0  0
  4 17  1  0  0  0  0
  5  9  4  0  0  0  0
  5 31  1  0  0  0  0
  6  7  4  0  0  0  0
  6  8  4  0  0  0  0
  6 32  1  0  0  0  0
  7 33  1  0  0  0  0
  8  9  4  0  0  0  0
  8 20  1  0  0  0  0
  9 34  1  0  0  0  0
 10 11  1  0  0  0  0
 10 21  1  0  0  0  0
 10 24  1  0  0  0  0
 10 35  1  0  0  0  0
 11 12  1  0  0  0  0
 11 36  1  0  0  0  0
 11 37  1  0  0  0  0
 12 23  1  0  0  0  0
 12 38  1  0  0  0  0
 12 39  1  0  0  0  0
 13 23  1  0  0  0  0
 13 25  4  0  0  0  0
 13 29  4  0  0  0  0
 15 16  4  0  0  0  0
 15 18  4  0  0  0  0
 16 17  4  0  0  0  0
 17 19  4  0  0  0  0
 18 19  4  0  0  0  0
 20 22  1  0  0  0  0
 21 40  1  0  0  0  0
 22 41  1  0  0  0  0
 22 42  1  0  0  0  0
 22 43  1  0  0  0  0
 23 24  1  0  0  0  0
 24 44  1  0  0  0  0
 24 45  1  0  0  0  0
 25 26  4  0  0  0  0
 25 46  1  0  0  0  0
 26 27  4  0  0  0  0
 26 47  1  0  0  0  0
 27 28  4  0  0  0  0
 28 29  4  0  0  0  0
 28 48  1  0  0  0  0
 29 49  1  0  0  0  0
M  END
> <ConfClashScore>
0 

> <ConfOneFourInteractionScore>
-0.983503 

> <ConfScore>
0.164333 

> <ConfScorePBest>
0.00163399 

> <ConfTolerance>
0.431211 

> <HETNAM>
     OWQ A 303  OWQ                                                       

> <pdb_OW>
Q_303 -16.5129 3.80749 7.62812 0.15963 1.39178 -0.28144 -3.20151 0 0 0 -1.30514 0 0 0 0 0 0 0 0 -8.31393

$$$$
6yky_lig_1.pdb
 OpenBabel04162415593D

 49 53  0  0  0  0  0  0  0  0999 V2000
    3.3404   -1.0246   -0.9131 C   0  0  0  1  0  0  0  0  0  0  0  0
    3.9036   -2.0319   -2.9075 C   0  0  0  1  0  0  0  0  0  0  0  0
    2.0500   -1.1792   -1.1175 N   0  0  0  1  0  0  0  0  0  0  0  0
   -0.9162   -1.8366   -2.1740 C   0  0  0  1  0  0  0  0  0  0  0  0
   -1.2685   -0.5670   -1.7564 C   0  0  0  1  0  0  0  0  0  0  0  0
   -3.0022   -2.6874   -1.3543 C   0  0  0  1  0  0  0  0  0  0  0  0
   -1.7831   -2.8989   -1.9703 C   0  0  0  1  0  0  0  0  0  0  0  0
   -3.3557   -1.4142   -0.9355 C   0  0  0  1  0  0  0  0  0  0  0  0
   -2.4911   -0.3551   -1.1387 C   0  0  0  1  0  0  0  0  0  0  0  0
    2.8963    0.1388    1.2641 C   0  0  0  1  0  0  0  0  0  0  0  0
    1.8396   -0.8859    1.7617 C   0  0  0  1  0  0  0  0  0  0  0  0
    0.6207   -0.0864    2.2677 C   0  0  0  1  0  0  0  0  0  0  0  0
    0.0523    2.4010    1.9454 C   0  0  0  1  0  0  0  0  0  0  0  0
    4.2486   -1.4372   -1.7800 N   0  0  0  1  0  0  0  0  0  0  0  0
    2.5434   -2.2224   -3.1761 C   0  0  0  1  0  0  0  0  0  0  0  0
    1.6094   -1.7665   -2.2233 C   0  0  0  1  0  0  0  0  0  0  0  0
    0.3755   -2.0729   -2.7271 N   0  0  0  1  0  0  0  0  0  0  0  0
    1.8518   -2.7747   -4.1967 N   0  0  0  1  0  0  0  0  0  0  0  0
    0.5878   -2.7020   -3.9630 N   0  0  0  1  0  0  0  0  0  0  0  0
   -4.5696   -1.3304   -0.3411 O   0  0  0  1  0  0  0  0  0  0  0  0
    3.7517   -0.4251    0.2187 N   0  0  0  1  0  0  0  0  0  0  0  0
   -5.0019   -0.0298    0.0878 C   0  0  0  1  0  0  0  0  0  0  0  0
    0.8314    1.2564    1.6565 N   0  0  0  1  0  0  0  0  0  0  0  0
    1.9598    1.2307    0.7115 C   0  0  0  1  0  0  0  0  0  0  0  0
   -0.6196    3.0689    0.9384 C   0  0  0  1  0  0  0  0  0  0  0  0
   -1.3726    4.1805    1.2654 C   0  0  0  1  0  0  0  0  0  0  0  0
   -1.4855    4.6510    2.5112 N   0  0  0  1  0  0  0  0  0  0  0  0
   -0.8254    3.9963    3.4771 C   0  0  0  1  0  0  0  0  0  0  0  0
   -0.0522    2.8734    3.2392 C   0  0  0  1  0  0  0  0  0  0  0  0
    4.6277   -2.3521   -3.5818 H   0  0  0  1  0  0  0  0  0  0  0  0
   -0.6163    0.2292   -1.9057 H   0  0  0  1  0  0  0  0  0  0  0  0
   -3.6544   -3.4837   -1.2051 H   0  0  0  1  0  0  0  0  0  0  0  0
   -1.5162   -3.8549   -2.2809 H   0  0  0  1  0  0  0  0  0  0  0  0
   -2.7580    0.6009   -0.8282 H   0  0  0  1  0  0  0  0  0  0  0  0
    3.5047    0.5041    2.0649 H   0  0  0  1  0  0  0  0  0  0  0  0
    2.2472   -1.4732    2.5578 H   0  0  0  1  0  0  0  0  0  0  0  0
    1.5469   -1.5282    0.9576 H   0  0  0  1  0  0  0  0  0  0  0  0
    0.6150   -0.0271    3.3360 H   0  0  0  1  0  0  0  0  0  0  0  0
   -0.2951   -0.5245    1.9294 H   0  0  0  1  0  0  0  0  0  0  0  0
    4.7197   -0.3595    0.3570 H   0  0  0  1  0  0  0  0  0  0  0  0
   -6.0271   -0.0760    0.3907 H   0  0  0  1  0  0  0  0  0  0  0  0
   -4.8998    0.6642   -0.7202 H   0  0  0  1  0  0  0  0  0  0  0  0
   -4.4007    0.2915    0.9126 H   0  0  0  1  0  0  0  0  0  0  0  0
    2.4557    2.1785    0.6880 H   0  0  0  1  0  0  0  0  0  0  0  0
    1.6238    0.9788   -0.2727 H   0  0  0  1  0  0  0  0  0  0  0  0
   -0.5594    2.7409   -0.0467 H   0  0  0  1  0  0  0  0  0  0  0  0
   -1.8772    4.6763    0.5031 H   0  0  0  1  0  0  0  0  0  0  0  0
   -0.8978    4.3495    4.4526 H   0  0  0  1  0  0  0  0  0  0  0  0
    0.4408    2.3944    4.0196 H   0  0  0  1  0  0  0  0  0  0  0  0
  1  3  4  0  0  0  0
  1 14  4  0  0  0  0
  1 21  1  0  0  0  0
  2 14  4  0  0  0  0
  2 15  4  0  0  0  0
  2 30  1  0  0  0  0
  3 16  4  0  0  0  0
  4  5  4  0  0  0  0
  4  7  4  0  0  0  0
  4 17  1  0  0  0  0
  5  9  4  0  0  0  0
  5 31  1  0  0  0  0
  6  7  4  0  0  0  0
  6  8  4  0  0  0  0
  6 32  1  0  0  0  0
  7 33  1  0  0  0  0
  8  9  4  0  0  0  0
  8 20  1  0  0  0  0
  9 34  1  0  0  0  0
 10 11  1  0  0  0  0
 10 21  1  0  0  0  0
 10 24  1  0  0  0  0
 10 35  1  0  0  0  0
 11 12  1  0  0  0  0
 11 36  1  0  0  0  0
 11 37  1  0  0  0  0
 12 23  1  0  0  0  0
 12 38  1  0  0  0  0
 12 39  1  0  0  0  0
 13 23  1  0  0  0  0
 13 25  4  0  0  0  0
 13 29  4  0  0  0  0
 15 16  4  0  0  0  0
 15 18  4  0  0  0  0
 16 17  4  0  0  0  0
 17 19  4  0  0  0  0
 18 19  4  0  0  0  0
 20 22  1  0  0  0  0
 21 40  1  0  0  0  0
 22 41  1  0  0  0  0
 22 42  1  0  0  0  0
 22 43  1  0  0  0  0
 23 24  1  0  0  0  0
 24 44  1  0  0  0  0
 24 45  1  0  0  0  0
 25 26  4  0  0  0  0
 25 46  1  0  0  0  0
 26 27  4  0  0  0  0
 26 47  1  0  0  0  0
 27 28  4  0  0  0  0
 28 29  4  0  0  0  0
 28 48  1  0  0  0  0
 29 49  1  0  0  0  0
M  END
> <ConfClashScore>
0 

> <ConfOneFourInteractionScore>
-0.983503 

> <ConfScore>
0.164916 

> <ConfScorePBest>
0.00162066 

> <ConfTolerance>
0.500509 

> <HETNAM>
     OWQ A 303  OWQ                                                       

> <pdb_OW>
Q_303 -16.5129 3.80749 7.62812 0.15963 1.39178 -0.28144 -3.20151 0 0 0 -1.30514 0 0 0 0 0 0 0 0 -8.31393

$$$$
6yky_lig_1.pdb
 OpenBabel04162415593D

 49 53  0  0  0  0  0  0  0  0999 V2000
   -0.5256   -0.3562   -0.1498 C   0  0  0  1  0  0  0  0  0  0  0  0
   -1.9291   -0.8337   -1.9138 C   0  0  0  1  0  0  0  0  0  0  0  0
    0.5299   -0.8447   -0.7648 N   0  0  0  1  0  0  0  0  0  0  0  0
    2.6883   -2.2029   -2.8439 C   0  0  0  1  0  0  0  0  0  0  0  0
    3.1546   -3.0424   -1.8500 C   0  0  0  1  0  0  0  0  0  0  0  0
    4.9373   -1.8256   -3.5835 C   0  0  0  1  0  0  0  0  0  0  0  0
    3.5811   -1.5914   -3.7103 C   0  0  0  1  0  0  0  0  0  0  0  0
    5.4052   -2.6676   -2.5866 C   0  0  0  1  0  0  0  0  0  0  0  0
    4.5148   -3.2772   -1.7229 C   0  0  0  1  0  0  0  0  0  0  0  0
   -1.2840    0.6373    2.0200 C   0  0  0  1  0  0  0  0  0  0  0  0
   -2.2592   -0.4693    2.4518 C   0  0  0  1  0  0  0  0  0  0  0  0
   -3.4814    0.3487    2.8967 C   0  0  0  1  0  0  0  0  0  0  0  0
   -3.7742    2.9001    2.9296 C   0  0  0  1  0  0  0  0  0  0  0  0
   -1.7258   -0.3475   -0.7029 N   0  0  0  1  0  0  0  0  0  0  0  0
   -0.8406   -1.3662   -2.6140 C   0  0  0  1  0  0  0  0  0  0  0  0
    0.4215   -1.3549   -1.9854 C   0  0  0  1  0  0  0  0  0  0  0  0
    1.2912   -1.9245   -2.8738 N   0  0  0  1  0  0  0  0  0  0  0  0
   -0.6871   -1.9303   -3.8319 N   0  0  0  1  0  0  0  0  0  0  0  0
    0.5431   -2.2651   -4.0107 N   0  0  0  1  0  0  0  0  0  0  0  0
    6.7034   -2.9669   -2.3632 O   0  0  0  1  0  0  0  0  0  0  0  0
   -0.2859    0.1280    1.0739 N   0  0  0  1  0  0  0  0  0  0  0  0
    7.7251   -2.2762   -3.0991 C   0  0  0  1  0  0  0  0  0  0  0  0
   -3.2088    1.7440    2.4385 N   0  0  0  1  0  0  0  0  0  0  0  0
   -2.2135    1.6372    1.3555 C   0  0  0  1  0  0  0  0  0  0  0  0
   -3.0991    3.6785    3.8515 C   0  0  0  1  0  0  0  0  0  0  0  0
   -3.7015    4.8325    4.3151 C   0  0  0  1  0  0  0  0  0  0  0  0
   -4.9119    5.2391    3.9205 N   0  0  0  1  0  0  0  0  0  0  0  0
   -5.5570    4.4726    3.0297 C   0  0  0  1  0  0  0  0  0  0  0  0
   -5.0268    3.3043    2.5107 C   0  0  0  1  0  0  0  0  0  0  0  0
   -2.8784   -0.8212   -2.3384 H   0  0  0  1  0  0  0  0  0  0  0  0
    2.4850   -3.4980   -1.1975 H   0  0  0  1  0  0  0  0  0  0  0  0
    5.6069   -1.3701   -4.2360 H   0  0  0  1  0  0  0  0  0  0  0  0
    3.2304   -0.9565   -4.4557 H   0  0  0  1  0  0  0  0  0  0  0  0
    4.8654   -3.9121   -0.9776 H   0  0  0  1  0  0  0  0  0  0  0  0
   -0.7882    1.0693    2.8641 H   0  0  0  1  0  0  0  0  0  0  0  0
   -1.8611   -1.0463    3.2601 H   0  0  0  1  0  0  0  0  0  0  0  0
   -2.5001   -1.1172    1.6351 H   0  0  0  1  0  0  0  0  0  0  0  0
   -4.3719   -0.0288    2.4390 H   0  0  0  1  0  0  0  0  0  0  0  0
   -3.5860    0.3175    3.9611 H   0  0  0  1  0  0  0  0  0  0  0  0
    0.6491    0.1440    1.3671 H   0  0  0  1  0  0  0  0  0  0  0  0
    7.6436   -1.2241   -2.9218 H   0  0  0  1  0  0  0  0  0  0  0  0
    7.6055   -2.4718   -4.1443 H   0  0  0  1  0  0  0  0  0  0  0  0
    8.6873   -2.6180   -2.7796 H   0  0  0  1  0  0  0  0  0  0  0  0
   -2.6388    1.2558    0.4507 H   0  0  0  1  0  0  0  0  0  0  0  0
   -1.7293    2.5705    1.1568 H   0  0  0  1  0  0  0  0  0  0  0  0
   -2.1556    3.4007    4.1896 H   0  0  0  1  0  0  0  0  0  0  0  0
   -3.1867    5.4143    5.0065 H   0  0  0  1  0  0  0  0  0  0  0  0
   -6.5019    4.7704    2.7131 H   0  0  0  1  0  0  0  0  0  0  0  0
   -5.5613    2.7414    1.8186 H   0  0  0  1  0  0  0  0  0  0  0  0
  1  3  4  0  0  0  0
  1 14  4  0  0  0  0
  1 21  1  0  0  0  0
  2 14  4  0  0  0  0
  2 15  4  0  0  0  0
  2 30  1  0  0  0  0
  3 16  4  0  0  0  0
  4  5  4  0  0  0  0
  4  7  4  0  0  0  0
  4 17  1  0  0  0  0
  5  9  4  0  0  0  0
  5 31  1  0  0  0  0
  6  7  4  0  0  0  0
  6  8  4  0  0  0  0
  6 32  1  0  0  0  0
  7 33  1  0  0  0  0
  8  9  4  0  0  0  0
  8 20  1  0  0  0  0
  9 34  1  0  0  0  0
 10 11  1  0  0  0  0
 10 21  1  0  0  0  0
 10 24  1  0  0  0  0
 10 35  1  0  0  0  0
 11 12  1  0  0  0  0
 11 36  1  0  0  0  0
 11 37  1  0  0  0  0
 12 23  1  0  0  0  0
 12 38  1  0  0  0  0
 12 39  1  0  0  0  0
 13 23  1  0  0  0  0
 13 25  4  0  0  0  0
 13 29  4  0  0  0  0
 15 16  4  0  0  0  0
 15 18  4  0  0  0  0
 16 17  4  0  0  0  0
 17 19  4  0  0  0  0
 18 19  4  0  0  0  0
 20 22  1  0  0  0  0
 21 40  1  0  0  0  0
 22 41  1  0  0  0  0
 22 42  1  0  0  0  0
 22 43  1  0  0  0  0
 23 24  1  0  0  0  0
 24 44  1  0  0  0  0
 24 45  1  0  0  0  0
 25 26  4  0  0  0  0
 25 46  1  0  0  0  0
 26 27  4  0  0  0  0
 26 47  1  0  0  0  0
 27 28  4  0  0  0  0
 28 29  4  0  0  0  0
 28 48  1  0  0  0  0
 29 49  1  0  0  0  0
M  END
> <ConfClashScore>
0 

> <ConfOneFourInteractionScore>
-0.983503 

> <ConfScore>
0.169474 

> <ConfScorePBest>
0.00160733 

> <ConfTolerance>
0.473801 

> <HETNAM>
     OWQ A 303  OWQ                                                       

> <pdb_OW>
Q_303 -16.5129 3.80749 7.62812 0.15963 1.39178 -0.28144 -3.20151 0 0 0 -1.30514 0 0 0 0 0 0 0 0 -8.31393

$$$$
6yky_lig_1.pdb
 OpenBabel04162415593D

 49 53  0  0  0  0  0  0  0  0999 V2000
    3.3472   -0.8324   -0.6171 C   0  0  0  1  0  0  0  0  0  0  0  0
    4.0432   -1.9280   -2.5210 C   0  0  0  1  0  0  0  0  0  0  0  0
    2.0749   -0.9424   -0.9332 N   0  0  0  1  0  0  0  0  0  0  0  0
   -0.8441   -1.5620   -2.3196 C   0  0  0  1  0  0  0  0  0  0  0  0
   -1.7089   -2.6114   -2.0727 C   0  0  0  1  0  0  0  0  0  0  0  0
   -2.6557   -0.0100   -2.0819 C   0  0  0  1  0  0  0  0  0  0  0  0
   -1.3185   -0.2596   -2.3269 C   0  0  0  1  0  0  0  0  0  0  0  0
   -3.5233   -1.0625   -1.8343 C   0  0  0  1  0  0  0  0  0  0  0  0
   -3.0500   -2.3610   -1.8271 C   0  0  0  1  0  0  0  0  0  0  0  0
    2.7103    0.2944    1.4903 C   0  0  0  1  0  0  0  0  0  0  0  0
    1.7151   -0.8000    1.9077 C   0  0  0  1  0  0  0  0  0  0  0  0
    0.5160    0.0345    2.3838 C   0  0  0  1  0  0  0  0  0  0  0  0
    0.2774    2.5967    2.4796 C   0  0  0  1  0  0  0  0  0  0  0  0
    4.3110   -1.3097   -1.3851 N   0  0  0  1  0  0  0  0  0  0  0  0
    2.7056   -2.0732   -2.9063 C   0  0  0  1  0  0  0  0  0  0  0  0
    1.7104   -1.5486   -2.0563 C   0  0  0  1  0  0  0  0  0  0  0  0
    0.5147   -1.8225   -2.6607 N   0  0  0  1  0  0  0  0  0  0  0  0
    2.0853   -2.6317   -3.9684 N   0  0  0  1  0  0  0  0  0  0  0  0
    0.8097   -2.5009   -3.8528 N   0  0  0  1  0  0  0  0  0  0  0  0
   -4.8488   -0.8229   -1.6946 O   0  0  0  1  0  0  0  0  0  0  0  0
    3.6807   -0.2119    0.5289 N   0  0  0  1  0  0  0  0  0  0  0  0
   -5.6975   -1.9545   -1.4460 C   0  0  0  1  0  0  0  0  0  0  0  0
    0.8150    1.4335    1.9539 N   0  0  0  1  0  0  0  0  0  0  0  0
    1.7965    1.3292    0.8583 C   0  0  0  1  0  0  0  0  0  0  0  0
    0.7010    3.0781    3.7046 C   0  0  0  1  0  0  0  0  0  0  0  0
    0.1410    4.2444    4.1901 C   0  0  0  1  0  0  0  0  0  0  0  0
   -0.7973    4.9365    3.5368 N   0  0  0  1  0  0  0  0  0  0  0  0
   -1.2017    4.4561    2.3524 C   0  0  0  1  0  0  0  0  0  0  0  0
   -0.6922    3.2985    1.7904 C   0  0  0  1  0  0  0  0  0  0  0  0
    4.8105   -2.2993   -3.1169 H   0  0  0  1  0  0  0  0  0  0  0  0
   -1.3536   -3.5888   -2.0713 H   0  0  0  1  0  0  0  0  0  0  0  0
   -3.0110    0.9674   -2.0834 H   0  0  0  1  0  0  0  0  0  0  0  0
   -0.6684    0.5297   -2.5166 H   0  0  0  1  0  0  0  0  0  0  0  0
   -3.7000   -3.1503   -1.6374 H   0  0  0  1  0  0  0  0  0  0  0  0
    3.2242    0.6962    2.3385 H   0  0  0  1  0  0  0  0  0  0  0  0
    1.4516   -1.4239    1.0794 H   0  0  0  1  0  0  0  0  0  0  0  0
    2.1086   -1.4037    2.6987 H   0  0  0  1  0  0  0  0  0  0  0  0
   -0.3872   -0.3129    1.9274 H   0  0  0  1  0  0  0  0  0  0  0  0
    0.4216   -0.0184    3.4483 H   0  0  0  1  0  0  0  0  0  0  0  0
    4.6327   -0.0935    0.7289 H   0  0  0  1  0  0  0  0  0  0  0  0
   -5.2589   -2.5704   -0.6890 H   0  0  0  1  0  0  0  0  0  0  0  0
   -5.8086   -2.5214   -2.3467 H   0  0  0  1  0  0  0  0  0  0  0  0
   -6.6574   -1.6146   -1.1172 H   0  0  0  1  0  0  0  0  0  0  0  0
    2.2992    2.2558    0.6753 H   0  0  0  1  0  0  0  0  0  0  0  0
    1.3537    0.9777   -0.0502 H   0  0  0  1  0  0  0  0  0  0  0  0
    1.4273    2.5719    4.2503 H   0  0  0  1  0  0  0  0  0  0  0  0
    0.4662    4.6018    5.1110 H   0  0  0  1  0  0  0  0  0  0  0  0
   -1.9339    4.9786    1.8305 H   0  0  0  1  0  0  0  0  0  0  0  0
   -1.0330    2.9634    0.8667 H   0  0  0  1  0  0  0  0  0  0  0  0
  1  3  4  0  0  0  0
  1 14  4  0  0  0  0
  1 21  1  0  0  0  0
  2 14  4  0  0  0  0
  2 15  4  0  0  0  0
  2 30  1  0  0  0  0
  3 16  4  0  0  0  0
  4  5  4  0  0  0  0
  4  7  4  0  0  0  0
  4 17  1  0  0  0  0
  5  9  4  0  0  0  0
  5 31  1  0  0  0  0
  6  7  4  0  0  0  0
  6  8  4  0  0  0  0
  6 32  1  0  0  0  0
  7 33  1  0  0  0  0
  8  9  4  0  0  0  0
  8 20  1  0  0  0  0
  9 34  1  0  0  0  0
 10 11  1  0  0  0  0
 10 21  1  0  0  0  0
 10 24  1  0  0  0  0
 10 35  1  0  0  0  0
 11 12  1  0  0  0  0
 11 36  1  0  0  0  0
 11 37  1  0  0  0  0
 12 23  1  0  0  0  0
 12 38  1  0  0  0  0
 12 39  1  0  0  0  0
 13 23  1  0  0  0  0
 13 25  4  0  0  0  0
 13 29  4  0  0  0  0
 15 16  4  0  0  0  0
 15 18  4  0  0  0  0
 16 17  4  0  0  0  0
 17 19  4  0  0  0  0
 18 19  4  0  0  0  0
 20 22  1  0  0  0  0
 21 40  1  0  0  0  0
 22 41  1  0  0  0  0
 22 42  1  0  0  0  0
 22 43  1  0  0  0  0
 23 24  1  0  0  0  0
 24 44  1  0  0  0  0
 24 45  1  0  0  0  0
 25 26  4  0  0  0  0
 25 46  1  0  0  0  0
 26 27  4  0  0  0  0
 26 47  1  0  0  0  0
 27 28  4  0  0  0  0
 28 29  4  0  0  0  0
 28 48  1  0  0  0  0
 29 49  1  0  0  0  0
M  END
> <ConfClashScore>
0 

> <ConfOneFourInteractionScore>
-0.983503 

> <ConfScore>
0.169474 

> <ConfScorePBest>
0.00159401 

> <ConfTolerance>
0.501121 

> <HETNAM>
     OWQ A 303  OWQ                                                       

> <pdb_OW>
Q_303 -16.5129 3.80749 7.62812 0.15963 1.39178 -0.28144 -3.20151 0 0 0 -1.30514 0 0 0 0 0 0 0 0 -8.31393

$$$$
6yky_lig_1.pdb
 OpenBabel04162415593D

 49 53  0  0  0  0  0  0  0  0999 V2000
    3.2607   -0.2728   -0.7444 C   0  0  0  1  0  0  0  0  0  0  0  0
    4.1810   -1.0739   -2.6991 C   0  0  0  1  0  0  0  0  0  0  0  0
    2.0658   -0.7432   -1.0306 N   0  0  0  1  0  0  0  0  0  0  0  0
   -0.5811   -2.1348   -2.3193 C   0  0  0  1  0  0  0  0  0  0  0  0
   -0.8831   -2.8710   -1.1892 C   0  0  0  1  0  0  0  0  0  0  0  0
   -2.9194   -1.8029   -2.7308 C   0  0  0  1  0  0  0  0  0  0  0  0
   -1.6007   -1.6022   -3.0927 C   0  0  0  1  0  0  0  0  0  0  0  0
   -3.2225   -2.5413   -1.5974 C   0  0  0  1  0  0  0  0  0  0  0  0
   -2.2057   -3.0722   -0.8264 C   0  0  0  1  0  0  0  0  0  0  0  0
    2.4253    0.9034    1.3402 C   0  0  0  1  0  0  0  0  0  0  0  0
    1.4574   -0.2076    1.7775 C   0  0  0  1  0  0  0  0  0  0  0  0
    0.2225    0.6033    2.1994 C   0  0  0  1  0  0  0  0  0  0  0  0
   -0.0973    3.1517    2.1951 C   0  0  0  1  0  0  0  0  0  0  0  0
    4.2951   -0.4299   -1.5517 N   0  0  0  1  0  0  0  0  0  0  0  0
    2.9317   -1.5955   -3.0538 C   0  0  0  1  0  0  0  0  0  0  0  0
    1.8562   -1.4043   -2.1624 C   0  0  0  1  0  0  0  0  0  0  0  0
    0.7727   -2.0026   -2.7438 N   0  0  0  1  0  0  0  0  0  0  0  0
    2.4657   -2.2872   -4.1165 N   0  0  0  1  0  0  0  0  0  0  0  0
    1.2122   -2.5381   -3.9638 N   0  0  0  1  0  0  0  0  0  0  0  0
   -4.5465   -2.6753   -1.3465 O   0  0  0  1  0  0  0  0  0  0  0  0
    3.4372    0.3923    0.4114 N   0  0  0  1  0  0  0  0  0  0  0  0
   -4.9232   -3.5037   -0.2355 C   0  0  0  1  0  0  0  0  0  0  0  0
    0.4850    1.9952    1.7251 N   0  0  0  1  0  0  0  0  0  0  0  0
    1.4919    1.8844    0.6533 C   0  0  0  1  0  0  0  0  0  0  0  0
    0.4090    3.7928    3.3105 C   0  0  0  1  0  0  0  0  0  0  0  0
   -0.2034    4.9527    3.7457 C   0  0  0  1  0  0  0  0  0  0  0  0
   -1.2686    5.4913    3.1446 N   0  0  0  1  0  0  0  0  0  0  0  0
   -1.7517    4.8569    2.0669 C   0  0  0  1  0  0  0  0  0  0  0  0
   -1.1984    3.6935    1.5612 C   0  0  0  1  0  0  0  0  0  0  0  0
    5.0025   -1.1909   -3.3260 H   0  0  0  1  0  0  0  0  0  0  0  0
   -0.1182   -3.2740   -0.6112 H   0  0  0  1  0  0  0  0  0  0  0  0
   -3.6843   -1.4000   -3.3088 H   0  0  0  1  0  0  0  0  0  0  0  0
   -1.3734   -1.0517   -3.9453 H   0  0  0  1  0  0  0  0  0  0  0  0
   -2.4330   -3.6228    0.0262 H   0  0  0  1  0  0  0  0  0  0  0  0
    2.9082    1.3518    2.1832 H   0  0  0  1  0  0  0  0  0  0  0  0
    1.8536   -0.7695    2.5973 H   0  0  0  1  0  0  0  0  0  0  0  0
    1.2314   -0.8690    0.9673 H   0  0  0  1  0  0  0  0  0  0  0  0
    0.1077    0.5852    3.2631 H   0  0  0  1  0  0  0  0  0  0  0  0
   -0.6595    0.2103    1.7382 H   0  0  0  1  0  0  0  0  0  0  0  0
    4.3688    0.5575    0.6671 H   0  0  0  1  0  0  0  0  0  0  0  0
   -5.9838   -3.4596   -0.1005 H   0  0  0  1  0  0  0  0  0  0  0  0
   -4.4363   -3.1543    0.6509 H   0  0  0  1  0  0  0  0  0  0  0  0
   -4.6304   -4.5145   -0.4291 H   0  0  0  1  0  0  0  0  0  0  0  0
    1.0796    1.4864   -0.2503 H   0  0  0  1  0  0  0  0  0  0  0  0
    1.9683    2.8200    0.4468 H   0  0  0  1  0  0  0  0  0  0  0  0
    1.2352    3.4095    3.8125 H   0  0  0  1  0  0  0  0  0  0  0  0
    0.1845    5.4308    4.5839 H   0  0  0  1  0  0  0  0  0  0  0  0
   -2.5826    5.2586    1.5875 H   0  0  0  1  0  0  0  0  0  0  0  0
   -1.6040    3.2359    0.7200 H   0  0  0  1  0  0  0  0  0  0  0  0
  1  3  4  0  0  0  0
  1 14  4  0  0  0  0
  1 21  1  0  0  0  0
  2 14  4  0  0  0  0
  2 15  4  0  0  0  0
  2 30  1  0  0  0  0
  3 16  4  0  0  0  0
  4  5  4  0  0  0  0
  4  7  4  0  0  0  0
  4 17  1  0  0  0  0
  5  9  4  0  0  0  0
  5 31  1  0  0  0  0
  6  7  4  0  0  0  0
  6  8  4  0  0  0  0
  6 32  1  0  0  0  0
  7 33  1  0  0  0  0
  8  9  4  0  0  0  0
  8 20  1  0  0  0  0
  9 34  1  0  0  0  0
 10 11  1  0  0  0  0
 10 21  1  0  0  0  0
 10 24  1  0  0  0  0
 10 35  1  0  0  0  0
 11 12  1  0  0  0  0
 11 36  1  0  0  0  0
 11 37  1  0  0  0  0
 12 23  1  0  0  0  0
 12 38  1  0  0  0  0
 12 39  1  0  0  0  0
 13 23  1  0  0  0  0
 13 25  4  0  0  0  0
 13 29  4  0  0  0  0
 15 16  4  0  0  0  0
 15 18  4  0  0  0  0
 16 17  4  0  0  0  0
 17 19  4  0  0  0  0
 18 19  4  0  0  0  0
 20 22  1  0  0  0  0
 21 40  1  0  0  0  0
 22 41  1  0  0  0  0
 22 42  1  0  0  0  0
 22 43  1  0  0  0  0
 23 24  1  0  0  0  0
 24 44  1  0  0  0  0
 24 45  1  0  0  0  0
 25 26  4  0  0  0  0
 25 46  1  0  0  0  0
 26 27  4  0  0  0  0
 26 47  1  0  0  0  0
 27 28  4  0  0  0  0
 28 29  4  0  0  0  0
 28 48  1  0  0  0  0
 29 49  1  0  0  0  0
M  END
> <ConfClashScore>
0 

> <ConfOneFourInteractionScore>
-0.983503 

> <ConfScore>
0.171483 

> <ConfScorePBest>
0.00158068 

> <ConfTolerance>
0.751631 

> <HETNAM>
     OWQ A 303  OWQ                                                       

> <pdb_OW>
Q_303 -16.5129 3.80749 7.62812 0.15963 1.39178 -0.28144 -3.20151 0 0 0 -1.30514 0 0 0 0 0 0 0 0 -8.31393

$$$$
6yky_lig_1.pdb
 OpenBabel04162415593D

 49 53  0  0  0  0  0  0  0  0999 V2000
   -0.1853   -0.4554    0.3883 C   0  0  0  1  0  0  0  0  0  0  0  0
   -2.0123   -0.9674   -0.9191 C   0  0  0  1  0  0  0  0  0  0  0  0
    0.6684   -0.9250   -0.4958 N   0  0  0  1  0  0  0  0  0  0  0  0
    2.2076   -2.2285   -3.0521 C   0  0  0  1  0  0  0  0  0  0  0  0
    2.8556   -1.2850   -3.8266 C   0  0  0  1  0  0  0  0  0  0  0  0
    4.1644   -3.6128   -3.0971 C   0  0  0  1  0  0  0  0  0  0  0  0
    2.8619   -3.3954   -2.6890 C   0  0  0  1  0  0  0  0  0  0  0  0
    4.8145   -2.6665   -3.8739 C   0  0  0  1  0  0  0  0  0  0  0  0
    4.1619   -1.5031   -4.2358 C   0  0  0  1  0  0  0  0  0  0  0  0
   -0.5551    0.6153    2.5825 C   0  0  0  1  0  0  0  0  0  0  0  0
   -1.6158   -0.4084    3.0737 C   0  0  0  1  0  0  0  0  0  0  0  0
   -2.8287    0.3927    3.5915 C   0  0  0  1  0  0  0  0  0  0  0  0
   -3.3845    2.8862    3.2954 C   0  0  0  1  0  0  0  0  0  0  0  0
   -1.4916   -0.4727    0.1892 N   0  0  0  1  0  0  0  0  0  0  0  0
   -1.1496   -1.4806   -1.8943 C   0  0  0  1  0  0  0  0  0  0  0  0
    0.2367   -1.4418   -1.6396 C   0  0  0  1  0  0  0  0  0  0  0  0
    0.8378   -1.9972   -2.7352 N   0  0  0  1  0  0  0  0  0  0  0  0
   -1.3279   -2.0461   -3.1081 N   0  0  0  1  0  0  0  0  0  0  0  0
   -0.1888   -2.3569   -3.6212 N   0  0  0  1  0  0  0  0  0  0  0  0
    6.0837   -2.9910   -4.2171 O   0  0  0  1  0  0  0  0  0  0  0  0
    0.2873    0.0613    1.5369 N   0  0  0  1  0  0  0  0  0  0  0  0
    6.8474   -1.9987   -4.9205 C   0  0  0  1  0  0  0  0  0  0  0  0
   -2.6126    1.7402    2.9927 N   0  0  0  1  0  0  0  0  0  0  0  0
   -1.4875    1.7176    2.0438 C   0  0  0  1  0  0  0  0  0  0  0  0
   -3.1008    4.1034    2.7043 C   0  0  0  1  0  0  0  0  0  0  0  0
   -3.8827    5.1966    3.0254 C   0  0  0  1  0  0  0  0  0  0  0  0
   -4.9044    5.1422    3.8852 N   0  0  0  1  0  0  0  0  0  0  0  0
   -5.1656    3.9567    4.4542 C   0  0  0  1  0  0  0  0  0  0  0  0
   -4.4365    2.8111    4.1873 C   0  0  0  1  0  0  0  0  0  0  0  0
   -3.0421   -0.9754   -1.0642 H   0  0  0  1  0  0  0  0  0  0  0  0
    2.3633   -0.4114   -4.1023 H   0  0  0  1  0  0  0  0  0  0  0  0
    4.6567   -4.4864   -2.8214 H   0  0  0  1  0  0  0  0  0  0  0  0
    2.3728   -4.1072   -2.1096 H   0  0  0  1  0  0  0  0  0  0  0  0
    4.6510   -0.7913   -4.8152 H   0  0  0  1  0  0  0  0  0  0  0  0
    0.0578    0.9694    3.3849 H   0  0  0  1  0  0  0  0  0  0  0  0
   -1.9147   -1.0413    2.2643 H   0  0  0  1  0  0  0  0  0  0  0  0
   -1.2088   -1.0058    3.8627 H   0  0  0  1  0  0  0  0  0  0  0  0
   -2.8305    0.4415    4.6603 H   0  0  0  1  0  0  0  0  0  0  0  0
   -3.7479   -0.0371    3.2520 H   0  0  0  1  0  0  0  0  0  0  0  0
    1.2573    0.0640    1.6765 H   0  0  0  1  0  0  0  0  0  0  0  0
    7.8046   -1.8885   -4.4551 H   0  0  0  1  0  0  0  0  0  0  0  0
    6.3280   -1.0636   -4.8930 H   0  0  0  1  0  0  0  0  0  0  0  0
    6.9785   -2.3047   -5.9374 H   0  0  0  1  0  0  0  0  0  0  0  0
   -0.9865    2.6630    2.0279 H   0  0  0  1  0  0  0  0  0  0  0  0
   -1.8280    1.4772    1.0583 H   0  0  0  1  0  0  0  0  0  0  0  0
   -2.3137    4.1945    2.0306 H   0  0  0  1  0  0  0  0  0  0  0  0
   -3.6649    6.1084    2.5749 H   0  0  0  1  0  0  0  0  0  0  0  0
   -5.9545    3.8950    5.1291 H   0  0  0  1  0  0  0  0  0  0  0  0
   -4.6761    1.9108    4.6496 H   0  0  0  1  0  0  0  0  0  0  0  0
  1  3  4  0  0  0  0
  1 14  4  0  0  0  0
  1 21  1  0  0  0  0
  2 14  4  0  0  0  0
  2 15  4  0  0  0  0
  2 30  1  0  0  0  0
  3 16  4  0  0  0  0
  4  5  4  0  0  0  0
  4  7  4  0  0  0  0
  4 17  1  0  0  0  0
  5  9  4  0  0  0  0
  5 31  1  0  0  0  0
  6  7  4  0  0  0  0
  6  8  4  0  0  0  0
  6 32  1  0  0  0  0
  7 33  1  0  0  0  0
  8  9  4  0  0  0  0
  8 20  1  0  0  0  0
  9 34  1  0  0  0  0
 10 11  1  0  0  0  0
 10 21  1  0  0  0  0
 10 24  1  0  0  0  0
 10 35  1  0  0  0  0
 11 12  1  0  0  0  0
 11 36  1  0  0  0  0
 11 37  1  0  0  0  0
 12 23  1  0  0  0  0
 12 38  1  0  0  0  0
 12 39  1  0  0  0  0
 13 23  1  0  0  0  0
 13 25  4  0  0  0  0
 13 29  4  0  0  0  0
 15 16  4  0  0  0  0
 15 18  4  0  0  0  0
 16 17  4  0  0  0  0
 17 19  4  0  0  0  0
 18 19  4  0  0  0  0
 20 22  1  0  0  0  0
 21 40  1  0  0  0  0
 22 41  1  0  0  0  0
 22 42  1  0  0  0  0
 22 43  1  0  0  0  0
 23 24  1  0  0  0  0
 24 44  1  0  0  0  0
 24 45  1  0  0  0  0
 25 26  4  0  0  0  0
 25 46  1  0  0  0  0
 26 27  4  0  0  0  0
 26 47  1  0  0  0  0
 27 28  4  0  0  0  0
 28 29  4  0  0  0  0
 28 48  1  0  0  0  0
 29 49  1  0  0  0  0
M  END
> <ConfClashScore>
0 

> <ConfOneFourInteractionScore>
-0.988311 

> <ConfScore>
0.173908 

> <ConfScorePBest>
0.00156735 

> <ConfTolerance>
0.535688 

> <HETNAM>
     OWQ A 303  OWQ                                                       

> <pdb_OW>
Q_303 -16.5129 3.80749 7.62812 0.15963 1.39178 -0.28144 -3.20151 0 0 0 -1.30514 0 0 0 0 0 0 0 0 -8.31393

$$$$
6yky_lig_1.pdb
 OpenBabel04162415593D

 49 53  0  0  0  0  0  0  0  0999 V2000
    3.3363   -0.8134   -0.3557 C   0  0  0  1  0  0  0  0  0  0  0  0
    4.2604   -1.9816   -2.1138 C   0  0  0  1  0  0  0  0  0  0  0  0
    2.1106   -0.9568   -0.8117 N   0  0  0  1  0  0  0  0  0  0  0  0
   -0.6105   -1.6586   -2.4568 C   0  0  0  1  0  0  0  0  0  0  0  0
   -1.0160   -0.9829   -1.3214 C   0  0  0  1  0  0  0  0  0  0  0  0
   -2.9006   -1.9551   -3.1010 C   0  0  0  1  0  0  0  0  0  0  0  0
   -1.5541   -2.1478   -3.3466 C   0  0  0  1  0  0  0  0  0  0  0  0
   -3.3075   -1.2774   -1.9622 C   0  0  0  1  0  0  0  0  0  0  0  0
   -2.3664   -0.7898   -1.0752 C   0  0  0  1  0  0  0  0  0  0  0  0
    2.5337    0.3665    1.7309 C   0  0  0  1  0  0  0  0  0  0  0  0
    1.5605   -0.7422    2.1619 C   0  0  0  1  0  0  0  0  0  0  0  0
    0.3360    0.0731    2.6055 C   0  0  0  1  0  0  0  0  0  0  0  0
    0.0325    2.6339    2.6420 C   0  0  0  1  0  0  0  0  0  0  0  0
    4.3877   -1.3095   -0.9841 N   0  0  0  1  0  0  0  0  0  0  0  0
    2.9783   -2.1643   -2.6444 C   0  0  0  1  0  0  0  0  0  0  0  0
    1.8856   -1.6178   -1.9406 C   0  0  0  1  0  0  0  0  0  0  0  0
    0.7712   -1.9366   -2.6663 N   0  0  0  1  0  0  0  0  0  0  0  0
    2.4916   -2.7788   -3.7446 N   0  0  0  1  0  0  0  0  0  0  0  0
    1.2099   -2.6626   -3.7837 N   0  0  0  1  0  0  0  0  0  0  0  0
   -4.6339   -1.1625   -1.6253 O   0  0  0  1  0  0  0  0  0  0  0  0
    3.5277   -0.1376    0.7915 N   0  0  0  1  0  0  0  0  0  0  0  0
   -5.5186   -1.6945   -2.6386 C   0  0  0  1  0  0  0  0  0  0  0  0
    0.6060    1.4690    2.1473 N   0  0  0  1  0  0  0  0  0  0  0  0
    1.6025    1.3642    1.0653 C   0  0  0  1  0  0  0  0  0  0  0  0
   -0.7977    2.5967    3.7471 C   0  0  0  1  0  0  0  0  0  0  0  0
   -1.3438    3.7793    4.2083 C   0  0  0  1  0  0  0  0  0  0  0  0
   -1.1142    4.9662    3.6384 N   0  0  0  1  0  0  0  0  0  0  0  0
   -0.3110    4.9871    2.5652 C   0  0  0  1  0  0  0  0  0  0  0  0
    0.2805    3.8518    2.0394 C   0  0  0  1  0  0  0  0  0  0  0  0
    5.0955   -2.3672   -2.5990 H   0  0  0  1  0  0  0  0  0  0  0  0
   -0.3081   -0.6194   -0.6519 H   0  0  0  1  0  0  0  0  0  0  0  0
   -3.6085   -2.3186   -3.7705 H   0  0  0  1  0  0  0  0  0  0  0  0
   -1.2490   -2.6597   -4.1989 H   0  0  0  1  0  0  0  0  0  0  0  0
   -2.6714   -0.2778   -0.2229 H   0  0  0  1  0  0  0  0  0  0  0  0
    3.0277    0.7998    2.5754 H   0  0  0  1  0  0  0  0  0  0  0  0
    1.3219   -1.3908    1.3451 H   0  0  0  1  0  0  0  0  0  0  0  0
    1.9592   -1.3182    2.9707 H   0  0  0  1  0  0  0  0  0  0  0  0
    0.2305    0.0418    3.6698 H   0  0  0  1  0  0  0  0  0  0  0  0
   -0.5531   -0.3065    2.1471 H   0  0  0  1  0  0  0  0  0  0  0  0
    4.4621    0.0398    1.0278 H   0  0  0  1  0  0  0  0  0  0  0  0
   -6.5349   -1.5544   -2.3347 H   0  0  0  1  0  0  0  0  0  0  0  0
   -5.3258   -2.7391   -2.7673 H   0  0  0  1  0  0  0  0  0  0  0  0
   -5.3494   -1.1835   -3.5633 H   0  0  0  1  0  0  0  0  0  0  0  0
    1.1790    0.9816    0.1602 H   0  0  0  1  0  0  0  0  0  0  0  0
    2.0848    2.2985    0.8670 H   0  0  0  1  0  0  0  0  0  0  0  0
   -1.0071    1.6956    4.2222 H   0  0  0  1  0  0  0  0  0  0  0  0
   -1.9653    3.7440    5.0414 H   0  0  0  1  0  0  0  0  0  0  0  0
   -0.1233    5.9009    2.1055 H   0  0  0  1  0  0  0  0  0  0  0  0
    0.9000    3.9144    1.2064 H   0  0  0  1  0  0  0  0  0  0  0  0
  1  3  4  0  0  0  0
  1 14  4  0  0  0  0
  1 21  1  0  0  0  0
  2 14  4  0  0  0  0
  2 15  4  0  0  0  0
  2 30  1  0  0  0  0
  3 16  4  0  0  0  0
  4  5  4  0  0  0  0
  4  7  4  0  0  0  0
  4 17  1  0  0  0  0
  5  9  4  0  0  0  0
  5 31  1  0  0  0  0
  6  7  4  0  0  0  0
  6  8  4  0  0  0  0
  6 32  1  0  0  0  0
  7 33  1  0  0  0  0
  8  9  4  0  0  0  0
  8 20  1  0  0  0  0
  9 34  1  0  0  0  0
 10 11  1  0  0  0  0
 10 21  1  0  0  0  0
 10 24  1  0  0  0  0
 10 35  1  0  0  0  0
 11 12  1  0  0  0  0
 11 36  1  0  0  0  0
 11 37  1  0  0  0  0
 12 23  1  0  0  0  0
 12 38  1  0  0  0  0
 12 39  1  0  0  0  0
 13 23  1  0  0  0  0
 13 25  4  0  0  0  0
 13 29  4  0  0  0  0
 15 16  4  0  0  0  0
 15 18  4  0  0  0  0
 16 17  4  0  0  0  0
 17 19  4  0  0  0  0
 18 19  4  0  0  0  0
 20 22  1  0  0  0  0
 21 40  1  0  0  0  0
 22 41  1  0  0  0  0
 22 42  1  0  0  0  0
 22 43  1  0  0  0  0
 23 24  1  0  0  0  0
 24 44  1  0  0  0  0
 24 45  1  0  0  0  0
 25 26  4  0  0  0  0
 25 46  1  0  0  0  0
 26 27  4  0  0  0  0
 26 47  1  0  0  0  0
 27 28  4  0  0  0  0
 28 29  4  0  0  0  0
 28 48  1  0  0  0  0
 29 49  1  0  0  0  0
M  END
> <ConfClashScore>
0 

> <ConfOneFourInteractionScore>
-0.983503 

> <ConfScore>
0.179044 

> <ConfScorePBest>
0.00155402 

> <ConfTolerance>
0.53414 

> <HETNAM>
     OWQ A 303  OWQ                                                       

> <pdb_OW>
Q_303 -16.5129 3.80749 7.62812 0.15963 1.39178 -0.28144 -3.20151 0 0 0 -1.30514 0 0 0 0 0 0 0 0 -8.31393

$$$$
6yky_lig_1.pdb
 OpenBabel04162415593D

 49 53  0  0  0  0  0  0  0  0999 V2000
   -0.4746   -0.8562   -0.1272 C   0  0  0  1  0  0  0  0  0  0  0  0
   -1.8008   -2.1099   -1.5339 C   0  0  0  1  0  0  0  0  0  0  0  0
    0.6222   -1.1314   -0.7997 N   0  0  0  1  0  0  0  0  0  0  0  0
    2.9068   -2.1826   -2.8683 C   0  0  0  1  0  0  0  0  0  0  0  0
    3.7054   -3.1770   -3.4006 C   0  0  0  1  0  0  0  0  0  0  0  0
    4.8573   -0.8843   -2.3613 C   0  0  0  1  0  0  0  0  0  0  0  0
    3.4836   -1.0357   -2.3454 C   0  0  0  1  0  0  0  0  0  0  0  0
    5.6585   -1.8816   -2.8952 C   0  0  0  1  0  0  0  0  0  0  0  0
    5.0831   -3.0250   -3.4165 C   0  0  0  1  0  0  0  0  0  0  0  0
   -1.3970    0.4432    1.8809 C   0  0  0  1  0  0  0  0  0  0  0  0
   -2.3646   -0.6679    2.3184 C   0  0  0  1  0  0  0  0  0  0  0  0
   -3.5999    0.1427    2.7397 C   0  0  0  1  0  0  0  0  0  0  0  0
   -3.9270    2.7037    2.7392 C   0  0  0  1  0  0  0  0  0  0  0  0
   -1.6576   -1.3289   -0.4785 N   0  0  0  1  0  0  0  0  0  0  0  0
   -0.6664   -2.4350   -2.2862 C   0  0  0  1  0  0  0  0  0  0  0  0
    0.5752   -1.9085   -1.8748 C   0  0  0  1  0  0  0  0  0  0  0  0
    1.4984   -2.3752   -2.7691 N   0  0  0  1  0  0  0  0  0  0  0  0
   -0.4492   -3.1835   -3.3897 N   0  0  0  1  0  0  0  0  0  0  0  0
    0.8017   -3.1671   -3.6942 N   0  0  0  1  0  0  0  0  0  0  0  0
    7.0098   -1.6202   -2.8502 O   0  0  0  1  0  0  0  0  0  0  0  0
   -0.3901   -0.0652    0.9576 N   0  0  0  1  0  0  0  0  0  0  0  0
    7.5465   -0.4558   -2.1368 C   0  0  0  1  0  0  0  0  0  0  0  0
   -3.3377    1.5345    2.2648 N   0  0  0  1  0  0  0  0  0  0  0  0
   -2.3306    1.4236    1.1933 C   0  0  0  1  0  0  0  0  0  0  0  0
   -4.9820    3.2427    2.0265 C   0  0  0  1  0  0  0  0  0  0  0  0
   -5.5150    4.4493    2.4387 C   0  0  0  1  0  0  0  0  0  0  0  0
   -5.0610    5.1306    3.4951 N   0  0  0  1  0  0  0  0  0  0  0  0
   -4.0349    4.5984    4.1743 C   0  0  0  1  0  0  0  0  0  0  0  0
   -3.4440    3.3943    3.8336 C   0  0  0  1  0  0  0  0  0  0  0  0
   -2.7372   -2.4757   -1.8003 H   0  0  0  1  0  0  0  0  0  0  0  0
    3.2728   -4.0392   -3.7893 H   0  0  0  1  0  0  0  0  0  0  0  0
    5.2900   -0.0221   -1.9727 H   0  0  0  1  0  0  0  0  0  0  0  0
    2.8828   -0.2892   -1.9412 H   0  0  0  1  0  0  0  0  0  0  0  0
    5.6839   -3.7715   -3.8208 H   0  0  0  1  0  0  0  0  0  0  0  0
   -0.9144    0.8922    2.7238 H   0  0  0  1  0  0  0  0  0  0  0  0
   -1.9684   -1.2293    3.1386 H   0  0  0  1  0  0  0  0  0  0  0  0
   -2.5902   -1.3297    1.5085 H   0  0  0  1  0  0  0  0  0  0  0  0
   -3.7149    0.1251    3.8033 H   0  0  0  1  0  0  0  0  0  0  0  0
   -4.4816   -0.2508    2.2785 H   0  0  0  1  0  0  0  0  0  0  0  0
    0.5223    0.2246    1.1670 H   0  0  0  1  0  0  0  0  0  0  0  0
    6.8933   -0.1998   -1.3288 H   0  0  0  1  0  0  0  0  0  0  0  0
    7.6211    0.3719   -2.8107 H   0  0  0  1  0  0  0  0  0  0  0  0
    8.5163   -0.6904   -1.7504 H   0  0  0  1  0  0  0  0  0  0  0  0
   -2.7425    1.0250    0.2898 H   0  0  0  1  0  0  0  0  0  0  0  0
   -1.8545    2.3592    0.9865 H   0  0  0  1  0  0  0  0  0  0  0  0
   -5.3672    2.7495    1.1959 H   0  0  0  1  0  0  0  0  0  0  0  0
   -6.3100    4.8475    1.8993 H   0  0  0  1  0  0  0  0  0  0  0  0
   -3.6651    5.1157    4.9972 H   0  0  0  1  0  0  0  0  0  0  0  0
   -2.6513    3.0166    4.3909 H   0  0  0  1  0  0  0  0  0  0  0  0
  1  3  4  0  0  0  0
  1 14  4  0  0  0  0
  1 21  1  0  0  0  0
  2 14  4  0  0  0  0
  2 15  4  0  0  0  0
  2 30  1  0  0  0  0
  3 16  4  0  0  0  0
  4  5  4  0  0  0  0
  4  7  4  0  0  0  0
  4 17  1  0  0  0  0
  5  9  4  0  0  0  0
  5 31  1  0  0  0  0
  6  7  4  0  0  0  0
  6  8  4  0  0  0  0
  6 32  1  0  0  0  0
  7 33  1  0  0  0  0
  8  9  4  0  0  0  0
  8 20  1  0  0  0  0
  9 34  1  0  0  0  0
 10 11  1  0  0  0  0
 10 21  1  0  0  0  0
 10 24  1  0  0  0  0
 10 35  1  0  0  0  0
 11 12  1  0  0  0  0
 11 36  1  0  0  0  0
 11 37  1  0  0  0  0
 12 23  1  0  0  0  0
 12 38  1  0  0  0  0
 12 39  1  0  0  0  0
 13 23  1  0  0  0  0
 13 25  4  0  0  0  0
 13 29  4  0  0  0  0
 15 16  4  0  0  0  0
 15 18  4  0  0  0  0
 16 17  4  0  0  0  0
 17 19  4  0  0  0  0
 18 19  4  0  0  0  0
 20 22  1  0  0  0  0
 21 40  1  0  0  0  0
 22 41  1  0  0  0  0
 22 42  1  0  0  0  0
 22 43  1  0  0  0  0
 23 24  1  0  0  0  0
 24 44  1  0  0  0  0
 24 45  1  0  0  0  0
 25 26  4  0  0  0  0
 25 46  1  0  0  0  0
 26 27  4  0  0  0  0
 26 47  1  0  0  0  0
 27 28  4  0  0  0  0
 28 29  4  0  0  0  0
 28 48  1  0  0  0  0
 29 49  1  0  0  0  0
M  END
> <ConfClashScore>
0 

> <ConfOneFourInteractionScore>
-0.985577 

> <ConfScore>
0.18601 

> <ConfScorePBest>
0.00154069 

> <ConfTolerance>
0.759284 

> <HETNAM>
     OWQ A 303  OWQ                                                       

> <pdb_OW>
Q_303 -16.5129 3.80749 7.62812 0.15963 1.39178 -0.28144 -3.20151 0 0 0 -1.30514 0 0 0 0 0 0 0 0 -8.31393

$$$$
6yky_lig_1.pdb
 OpenBabel04162415593D

 49 53  0  0  0  0  0  0  0  0999 V2000
    2.1238   -2.6566   -1.3204 C   0  0  0  1  0  0  0  0  0  0  0  0
    4.0083   -2.2903   -2.5948 C   0  0  0  1  0  0  0  0  0  0  0  0
    1.9540   -1.3753   -1.0750 N   0  0  0  1  0  0  0  0  0  0  0  0
    2.1057    1.8702   -0.8575 C   0  0  0  1  0  0  0  0  0  0  0  0
    0.8034    1.5802   -0.4969 C   0  0  0  1  0  0  0  0  0  0  0  0
    1.8097    4.1310   -0.1171 C   0  0  0  1  0  0  0  0  0  0  0  0
    2.6088    3.1481   -0.6699 C   0  0  0  1  0  0  0  0  0  0  0  0
    0.5035    3.8403    0.2447 C   0  0  0  1  0  0  0  0  0  0  0  0
    0.0020    2.5660    0.0575 C   0  0  0  1  0  0  0  0  0  0  0  0
    0.1963   -2.9748    0.1862 C   0  0  0  1  0  0  0  0  0  0  0  0
   -0.7783   -4.0819    0.6186 C   0  0  0  1  0  0  0  0  0  0  0  0
   -2.0014   -3.2645    1.0619 C   0  0  0  1  0  0  0  0  0  0  0  0
   -2.3117   -0.6823    1.1053 C   0  0  0  1  0  0  0  0  0  0  0  0
    3.1215   -3.1095   -2.0594 N   0  0  0  1  0  0  0  0  0  0  0  0
    3.8755   -0.9160   -2.3660 C   0  0  0  1  0  0  0  0  0  0  0  0
    2.7961   -0.4775   -1.5717 C   0  0  0  1  0  0  0  0  0  0  0  0
    2.9018    0.8844   -1.5094 N   0  0  0  1  0  0  0  0  0  0  0  0
    4.5761    0.1753   -2.7444 N   0  0  0  1  0  0  0  0  0  0  0  0
    4.0328    1.2375   -2.2607 N   0  0  0  1  0  0  0  0  0  0  0  0
   -0.3616    4.7084    0.7818 O   0  0  0  1  0  0  0  0  0  0  0  0
    1.1859   -3.4794   -0.7498 N   0  0  0  1  0  0  0  0  0  0  0  0
   -1.7890    4.3944    0.9111 C   0  0  0  1  0  0  0  0  0  0  0  0
   -1.7297   -1.8694    0.6025 N   0  0  0  1  0  0  0  0  0  0  0  0
   -0.7338   -1.9764   -0.4798 C   0  0  0  1  0  0  0  0  0  0  0  0
   -3.6827   -0.5046    1.0817 C   0  0  0  1  0  0  0  0  0  0  0  0
   -4.2096    0.6688    1.5868 C   0  0  0  1  0  0  0  0  0  0  0  0
   -3.4606    1.6505    2.0982 N   0  0  0  1  0  0  0  0  0  0  0  0
   -2.1327    1.4667    2.1107 C   0  0  0  1  0  0  0  0  0  0  0  0
   -1.5216    0.3221    1.6293 C   0  0  0  1  0  0  0  0  0  0  0  0
    4.7891   -2.6588   -3.1745 H   0  0  0  1  0  0  0  0  0  0  0  0
    0.4247    0.6224   -0.6414 H   0  0  0  1  0  0  0  0  0  0  0  0
    2.1884    5.0888    0.0275 H   0  0  0  1  0  0  0  0  0  0  0  0
    3.5875    3.3673   -0.9450 H   0  0  0  1  0  0  0  0  0  0  0  0
   -0.9767    2.3468    0.3326 H   0  0  0  1  0  0  0  0  0  0  0  0
    0.6912   -2.5416    1.0302 H   0  0  0  1  0  0  0  0  0  0  0  0
   -0.3801   -4.6577    1.4277 H   0  0  0  1  0  0  0  0  0  0  0  0
   -1.0181   -4.7309   -0.1976 H   0  0  0  1  0  0  0  0  0  0  0  0
   -2.8913   -3.6432    0.6041 H   0  0  0  1  0  0  0  0  0  0  0  0
   -2.1067   -3.2947    2.1263 H   0  0  0  1  0  0  0  0  0  0  0  0
    1.1835   -4.4321   -0.9796 H   0  0  0  1  0  0  0  0  0  0  0  0
   -2.1446    3.9659   -0.0026 H   0  0  0  1  0  0  0  0  0  0  0  0
   -2.3338    5.2914    1.1198 H   0  0  0  1  0  0  0  0  0  0  0  0
   -1.9295    3.6970    1.7103 H   0  0  0  1  0  0  0  0  0  0  0  0
   -1.1581   -2.3592   -1.3844 H   0  0  0  1  0  0  0  0  0  0  0  0
   -0.2503   -1.0429   -0.6791 H   0  0  0  1  0  0  0  0  0  0  0  0
   -4.3056   -1.2402    0.6912 H   0  0  0  1  0  0  0  0  0  0  0  0
   -5.2418    0.7944    1.5681 H   0  0  0  1  0  0  0  0  0  0  0  0
   -1.5326    2.2211    2.5012 H   0  0  0  1  0  0  0  0  0  0  0  0
   -0.4871    0.2202    1.6616 H   0  0  0  1  0  0  0  0  0  0  0  0
  1  3  4  0  0  0  0
  1 14  4  0  0  0  0
  1 21  1  0  0  0  0
  2 14  4  0  0  0  0
  2 15  4  0  0  0  0
  2 30  1  0  0  0  0
  3 16  4  0  0  0  0
  4  5  4  0  0  0  0
  4  7  4  0  0  0  0
  4 17  1  0  0  0  0
  5  9  4  0  0  0  0
  5 31  1  0  0  0  0
  6  7  4  0  0  0  0
  6  8  4  0  0  0  0
  6 32  1  0  0  0  0
  7 33  1  0  0  0  0
  8  9  4  0  0  0  0
  8 20  1  0  0  0  0
  9 34  1  0  0  0  0
 10 11  1  0  0  0  0
 10 21  1  0  0  0  0
 10 24  1  0  0  0  0
 10 35  1  0  0  0  0
 11 12  1  0  0  0  0
 11 36  1  0  0  0  0
 11 37  1  0  0  0  0
 12 23  1  0  0  0  0
 12 38  1  0  0  0  0
 12 39  1  0  0  0  0
 13 23  1  0  0  0  0
 13 25  4  0  0  0  0
 13 29  4  0  0  0  0
 15 16  4  0  0  0  0
 15 18  4  0  0  0  0
 16 17  4  0  0  0  0
 17 19  4  0  0  0  0
 18 19  4  0  0  0  0
 20 22  1  0  0  0  0
 21 40  1  0  0  0  0
 22 41  1  0  0  0  0
 22 42  1  0  0  0  0
 22 43  1  0  0  0  0
 23 24  1  0  0  0  0
 24 44  1  0  0  0  0
 24 45  1  0  0  0  0
 25 26  4  0  0  0  0
 25 46  1  0  0  0  0
 26 27  4  0  0  0  0
 26 47  1  0  0  0  0
 27 28  4  0  0  0  0
 28 29  4  0  0  0  0
 28 48  1  0  0  0  0
 29 49  1  0  0  0  0
M  END
> <ConfClashScore>
0 

> <ConfOneFourInteractionScore>
-0.981795 

> <ConfScore>
0.187626 

> <ConfScorePBest>
0.00152736 

> <ConfTolerance>
0.632751 

> <HETNAM>
     OWQ A 303  OWQ                                                       

> <pdb_OW>
Q_303 -16.5129 3.80749 7.62812 0.15963 1.39178 -0.28144 -3.20151 0 0 0 -1.30514 0 0 0 0 0 0 0 0 -8.31393

$$$$
6yky_lig_1.pdb
 OpenBabel04162415593D

 49 53  0  0  0  0  0  0  0  0999 V2000
    0.0097    0.4047   -0.0152 C   0  0  0  1  0  0  0  0  0  0  0  0
    0.7875    2.4949   -0.5943 C   0  0  0  1  0  0  0  0  0  0  0  0
    0.9589   -0.2123   -0.6853 N   0  0  0  1  0  0  0  0  0  0  0  0
    3.5735   -1.0865   -2.4260 C   0  0  0  1  0  0  0  0  0  0  0  0
    2.8101   -2.0323   -3.0839 C   0  0  0  1  0  0  0  0  0  0  0  0
    5.3761   -2.6576   -2.2542 C   0  0  0  1  0  0  0  0  0  0  0  0
    4.8574   -1.4004   -2.0081 C   0  0  0  1  0  0  0  0  0  0  0  0
    4.6106   -3.6064   -2.9142 C   0  0  0  1  0  0  0  0  0  0  0  0
    3.3305   -3.2932   -3.3307 C   0  0  0  1  0  0  0  0  0  0  0  0
   -1.8763    0.1242    1.5712 C   0  0  0  1  0  0  0  0  0  0  0  0
   -2.8514   -0.9824    2.0033 C   0  0  0  1  0  0  0  0  0  0  0  0
   -4.0737   -0.1645    2.4480 C   0  0  0  1  0  0  0  0  0  0  0  0
   -4.3710    2.3954    2.4838 C   0  0  0  1  0  0  0  0  0  0  0  0
   -0.0801    1.7223    0.0337 N   0  0  0  1  0  0  0  0  0  0  0  0
    1.8186    1.8910   -1.3229 C   0  0  0  1  0  0  0  0  0  0  0  0
    1.8758    0.4824   -1.3475 C   0  0  0  1  0  0  0  0  0  0  0  0
    2.9595    0.1618   -2.1175 N   0  0  0  1  0  0  0  0  0  0  0  0
    2.8482    2.3564   -2.0634 N   0  0  0  1  0  0  0  0  0  0  0  0
    3.5294    1.3726   -2.5385 N   0  0  0  1  0  0  0  0  0  0  0  0
    5.0060   -4.8611   -3.2043 O   0  0  0  1  0  0  0  0  0  0  0  0
   -0.8876   -0.3804    0.6342 N   0  0  0  1  0  0  0  0  0  0  0  0
    6.3707   -5.1726   -2.8395 C   0  0  0  1  0  0  0  0  0  0  0  0
   -3.8012    1.2307    1.9894 N   0  0  0  1  0  0  0  0  0  0  0  0
   -2.8060    1.1237    0.9064 C   0  0  0  1  0  0  0  0  0  0  0  0
   -5.4667    2.3995    3.3271 C   0  0  0  1  0  0  0  0  0  0  0  0
   -5.9601    3.6119    3.7700 C   0  0  0  1  0  0  0  0  0  0  0  0
   -5.4339    4.7904    3.4229 N   0  0  0  1  0  0  0  0  0  0  0  0
   -4.3746    4.7718    2.6014 C   0  0  0  1  0  0  0  0  0  0  0  0
   -3.8144    3.6041    2.1137 C   0  0  0  1  0  0  0  0  0  0  0  0
    0.7063    3.5307   -0.5483 H   0  0  0  1  0  0  0  0  0  0  0  0
    1.8454   -1.7980   -3.3939 H   0  0  0  1  0  0  0  0  0  0  0  0
    6.3408   -2.8919   -1.9443 H   0  0  0  1  0  0  0  0  0  0  0  0
    5.4302   -0.6899   -1.5094 H   0  0  0  1  0  0  0  0  0  0  0  0
    2.7575   -4.0036   -3.8294 H   0  0  0  1  0  0  0  0  0  0  0  0
   -1.3805    0.5565    2.4151 H   0  0  0  1  0  0  0  0  0  0  0  0
   -2.4531   -1.5592    2.8118 H   0  0  0  1  0  0  0  0  0  0  0  0
   -3.0922   -1.6307    1.1868 H   0  0  0  1  0  0  0  0  0  0  0  0
   -4.9641   -0.5423    1.9905 H   0  0  0  1  0  0  0  0  0  0  0  0
   -4.1783   -0.1954    3.5124 H   0  0  0  1  0  0  0  0  0  0  0  0
   -0.8672   -1.3447    0.4605 H   0  0  0  1  0  0  0  0  0  0  0  0
    6.7745   -5.8777   -3.5357 H   0  0  0  1  0  0  0  0  0  0  0  0
    6.3897   -5.5925   -1.8555 H   0  0  0  1  0  0  0  0  0  0  0  0
    6.9575   -4.2780   -2.8575 H   0  0  0  1  0  0  0  0  0  0  0  0
   -3.2312    0.7420    0.0018 H   0  0  0  1  0  0  0  0  0  0  0  0
   -2.3219    2.0570    0.7075 H   0  0  0  1  0  0  0  0  0  0  0  0
   -5.9113    1.5068    3.6224 H   0  0  0  1  0  0  0  0  0  0  0  0
   -6.7829    3.6071    4.4061 H   0  0  0  1  0  0  0  0  0  0  0  0
   -3.9534    5.6791    2.3168 H   0  0  0  1  0  0  0  0  0  0  0  0
   -2.9899    3.6360    1.4805 H   0  0  0  1  0  0  0  0  0  0  0  0
  1  3  4  0  0  0  0
  1 14  4  0  0  0  0
  1 21  1  0  0  0  0
  2 14  4  0  0  0  0
  2 15  4  0  0  0  0
  2 30  1  0  0  0  0
  3 16  4  0  0  0  0
  4  5  4  0  0  0  0
  4  7  4  0  0  0  0
  4 17  1  0  0  0  0
  5  9  4  0  0  0  0
  5 31  1  0  0  0  0
  6  7  4  0  0  0  0
  6  8  4  0  0  0  0
  6 32  1  0  0  0  0
  7 33  1  0  0  0  0
  8  9  4  0  0  0  0
  8 20  1  0  0  0  0
  9 34  1  0  0  0  0
 10 11  1  0  0  0  0
 10 21  1  0  0  0  0
 10 24  1  0  0  0  0
 10 35  1  0  0  0  0
 11 12  1  0  0  0  0
 11 36  1  0  0  0  0
 11 37  1  0  0  0  0
 12 23  1  0  0  0  0
 12 38  1  0  0  0  0
 12 39  1  0  0  0  0
 13 23  1  0  0  0  0
 13 25  4  0  0  0  0
 13 29  4  0  0  0  0
 15 16  4  0  0  0  0
 15 18  4  0  0  0  0
 16 17  4  0  0  0  0
 17 19  4  0  0  0  0
 18 19  4  0  0  0  0
 20 22  1  0  0  0  0
 21 40  1  0  0  0  0
 22 41  1  0  0  0  0
 22 42  1  0  0  0  0
 22 43  1  0  0  0  0
 23 24  1  0  0  0  0
 24 44  1  0  0  0  0
 24 45  1  0  0  0  0
 25 26  4  0  0  0  0
 25 46  1  0  0  0  0
 26 27  4  0  0  0  0
 26 47  1  0  0  0  0
 27 28  4  0  0  0  0
 28 29  4  0  0  0  0
 28 48  1  0  0  0  0
 29 49  1  0  0  0  0
M  END
> <ConfClashScore>
0 

> <ConfOneFourInteractionScore>
-0.987833 

> <ConfScore>
0.192986 

> <ConfScorePBest>
0.00151404 

> <ConfTolerance>
0.621701 

> <HETNAM>
     OWQ A 303  OWQ                                                       

> <pdb_OW>
Q_303 -16.5129 3.80749 7.62812 0.15963 1.39178 -0.28144 -3.20151 0 0 0 -1.30514 0 0 0 0 0 0 0 0 -8.31393

$$$$
6yky_lig_1.pdb
 OpenBabel04162415593D

 49 53  0  0  0  0  0  0  0  0999 V2000
    3.3062   -0.6960   -0.7592 C   0  0  0  1  0  0  0  0  0  0  0  0
    4.1397   -1.6244   -2.6964 C   0  0  0  1  0  0  0  0  0  0  0  0
    2.0618   -0.9893   -1.0696 N   0  0  0  1  0  0  0  0  0  0  0  0
   -0.7225   -2.0721   -2.3755 C   0  0  0  1  0  0  0  0  0  0  0  0
   -1.3255   -0.9097   -1.9334 C   0  0  0  1  0  0  0  0  0  0  0  0
   -2.6931   -3.3133   -1.8071 C   0  0  0  1  0  0  0  0  0  0  0  0
   -1.4062   -3.2761   -2.3099 C   0  0  0  1  0  0  0  0  0  0  0  0
   -3.2981   -2.1476   -1.3636 C   0  0  0  1  0  0  0  0  0  0  0  0
   -2.6161   -0.9472   -1.4292 C   0  0  0  1  0  0  0  0  0  0  0  0
    2.5647    0.4428    1.3367 C   0  0  0  1  0  0  0  0  0  0  0  0
    1.5901   -0.6643    1.7691 C   0  0  0  1  0  0  0  0  0  0  0  0
    0.3670    0.1531    2.2124 C   0  0  0  1  0  0  0  0  0  0  0  0
    0.0566    2.7356    2.2558 C   0  0  0  1  0  0  0  0  0  0  0  0
    4.3228   -1.0020   -1.5461 N   0  0  0  1  0  0  0  0  0  0  0  0
    2.8354   -1.9606   -3.0766 C   0  0  0  1  0  0  0  0  0  0  0  0
    1.7813   -1.6148   -2.2063 C   0  0  0  1  0  0  0  0  0  0  0  0
    0.6345   -2.0511   -2.8099 N   0  0  0  1  0  0  0  0  0  0  0  0
    2.2954   -2.5792   -4.1493 N   0  0  0  1  0  0  0  0  0  0  0  0
    1.0160   -2.6462   -4.0217 N   0  0  0  1  0  0  0  0  0  0  0  0
   -4.5577   -2.2533   -0.8778 O   0  0  0  1  0  0  0  0  0  0  0  0
    3.5541   -0.0617    0.4009 N   0  0  0  1  0  0  0  0  0  0  0  0
   -5.1863   -1.0474   -0.4161 C   0  0  0  1  0  0  0  0  0  0  0  0
    0.6387    1.5482    1.7529 N   0  0  0  1  0  0  0  0  0  0  0  0
    1.6346    1.4412    0.6707 C   0  0  0  1  0  0  0  0  0  0  0  0
    0.4932    3.9711    1.8149 C   0  0  0  1  0  0  0  0  0  0  0  0
   -0.1646    5.1042    2.2545 C   0  0  0  1  0  0  0  0  0  0  0  0
   -1.2060    5.0711    3.0916 N   0  0  0  1  0  0  0  0  0  0  0  0
   -1.6159    3.8668    3.5145 C   0  0  0  1  0  0  0  0  0  0  0  0
   -1.0180    2.6820    3.1220 C   0  0  0  1  0  0  0  0  0  0  0  0
    4.9479   -1.8598   -3.3071 H   0  0  0  1  0  0  0  0  0  0  0  0
   -0.8109   -0.0071   -1.9790 H   0  0  0  1  0  0  0  0  0  0  0  0
   -3.2076   -4.2160   -1.7615 H   0  0  0  1  0  0  0  0  0  0  0  0
   -0.9508   -4.1513   -2.6388 H   0  0  0  1  0  0  0  0  0  0  0  0
   -3.0714   -0.0719   -1.1002 H   0  0  0  1  0  0  0  0  0  0  0  0
    3.0596    0.8760    2.1807 H   0  0  0  1  0  0  0  0  0  0  0  0
    1.9883   -1.2401    2.5782 H   0  0  0  1  0  0  0  0  0  0  0  0
    1.3503   -1.3133    0.9529 H   0  0  0  1  0  0  0  0  0  0  0  0
   -0.5229   -0.2257    1.7546 H   0  0  0  1  0  0  0  0  0  0  0  0
    0.2617    0.1229    3.2768 H   0  0  0  1  0  0  0  0  0  0  0  0
    4.4954    0.0733    0.6380 H   0  0  0  1  0  0  0  0  0  0  0  0
   -6.1019   -1.2898    0.0816 H   0  0  0  1  0  0  0  0  0  0  0  0
   -5.3922   -0.4106   -1.2510 H   0  0  0  1  0  0  0  0  0  0  0  0
   -4.5330   -0.5432    0.2650 H   0  0  0  1  0  0  0  0  0  0  0  0
    1.2103    1.0584   -0.2339 H   0  0  0  1  0  0  0  0  0  0  0  0
    2.1181    2.3746    0.4713 H   0  0  0  1  0  0  0  0  0  0  0  0
    1.3013    4.0464    1.1647 H   0  0  0  1  0  0  0  0  0  0  0  0
    0.1678    6.0299    1.9167 H   0  0  0  1  0  0  0  0  0  0  0  0
   -2.4225    3.8207    4.1694 H   0  0  0  1  0  0  0  0  0  0  0  0
   -1.3710    1.7687    3.4726 H   0  0  0  1  0  0  0  0  0  0  0  0
  1  3  4  0  0  0  0
  1 14  4  0  0  0  0
  1 21  1  0  0  0  0
  2 14  4  0  0  0  0
  2 15  4  0  0  0  0
  2 30  1  0  0  0  0
  3 16  4  0  0  0  0
  4  5  4  0  0  0  0
  4  7  4  0  0  0  0
  4 17  1  0  0  0  0
  5  9  4  0  0  0  0
  5 31  1  0  0  0  0
  6  7  4  0  0  0  0
  6  8  4  0  0  0  0
  6 32  1  0  0  0  0
  7 33  1  0  0  0  0
  8  9  4  0  0  0  0
  8 20  1  0  0  0  0
  9 34  1  0  0  0  0
 10 11  1  0  0  0  0
 10 21  1  0  0  0  0
 10 24  1  0  0  0  0
 10 35  1  0  0  0  0
 11 12  1  0  0  0  0
 11 36  1  0  0  0  0
 11 37  1  0  0  0  0
 12 23  1  0  0  0  0
 12 38  1  0  0  0  0
 12 39  1  0  0  0  0
 13 23  1  0  0  0  0
 13 25  4  0  0  0  0
 13 29  4  0  0  0  0
 15 16  4  0  0  0  0
 15 18  4  0  0  0  0
 16 17  4  0  0  0  0
 17 19  4  0  0  0  0
 18 19  4  0  0  0  0
 20 22  1  0  0  0  0
 21 40  1  0  0  0  0
 22 41  1  0  0  0  0
 22 42  1  0  0  0  0
 22 43  1  0  0  0  0
 23 24  1  0  0  0  0
 24 44  1  0  0  0  0
 24 45  1  0  0  0  0
 25 26  4  0  0  0  0
 25 46  1  0  0  0  0
 26 27  4  0  0  0  0
 26 47  1  0  0  0  0
 27 28  4  0  0  0  0
 28 29  4  0  0  0  0
 28 48  1  0  0  0  0
 29 49  1  0  0  0  0
M  END
> <ConfClashScore>
0 

> <ConfOneFourInteractionScore>
-0.983503 

> <ConfScore>
0.200966 

> <ConfScorePBest>
0.00150071 

> <ConfTolerance>
0.562004 

> <HETNAM>
     OWQ A 303  OWQ                                                       

> <pdb_OW>
Q_303 -16.5129 3.80749 7.62812 0.15963 1.39178 -0.28144 -3.20151 0 0 0 -1.30514 0 0 0 0 0 0 0 0 -8.31393

$$$$
6yky_lig_1.pdb
 OpenBabel04162415593D

 49 53  0  0  0  0  0  0  0  0999 V2000
    1.9146   -2.5823   -1.5606 C   0  0  0  1  0  0  0  0  0  0  0  0
    3.6701   -2.1989   -3.0031 C   0  0  0  1  0  0  0  0  0  0  0  0
    1.8097   -1.3114   -1.2372 N   0  0  0  1  0  0  0  0  0  0  0  0
    2.0815    1.9137   -0.8793 C   0  0  0  1  0  0  0  0  0  0  0  0
    1.6488    1.5989    0.3950 C   0  0  0  1  0  0  0  0  0  0  0  0
    1.0094    4.0519   -0.7176 C   0  0  0  1  0  0  0  0  0  0  0  0
    1.7591    3.1409   -1.4376 C   0  0  0  1  0  0  0  0  0  0  0  0
    0.5754    3.7364    0.5606 C   0  0  0  1  0  0  0  0  0  0  0  0
    0.8969    2.5127    1.1170 C   0  0  0  1  0  0  0  0  0  0  0  0
    0.0571   -2.9862   -0.0412 C   0  0  0  1  0  0  0  0  0  0  0  0
   -0.9181   -4.0928    0.3908 C   0  0  0  1  0  0  0  0  0  0  0  0
   -2.1403   -3.2748    0.8357 C   0  0  0  1  0  0  0  0  0  0  0  0
   -2.4350   -0.7197    0.8699 C   0  0  0  1  0  0  0  0  0  0  0  0
    2.8178   -3.0217   -2.4195 N   0  0  0  1  0  0  0  0  0  0  0  0
    3.6031   -0.8352   -2.6954 C   0  0  0  1  0  0  0  0  0  0  0  0
    2.6239   -0.4109   -1.7738 C   0  0  0  1  0  0  0  0  0  0  0  0
    2.7768    0.9429   -1.6568 N   0  0  0  1  0  0  0  0  0  0  0  0
    4.2945    0.2559   -3.0907 N   0  0  0  1  0  0  0  0  0  0  0  0
    3.8358    1.3054   -2.5026 N   0  0  0  1  0  0  0  0  0  0  0  0
   -0.1508    4.6984    1.1622 O   0  0  0  1  0  0  0  0  0  0  0  0
    1.0491   -3.4926   -0.9816 N   0  0  0  1  0  0  0  0  0  0  0  0
   -0.5131    4.4234    2.5354 C   0  0  0  1  0  0  0  0  0  0  0  0
   -1.8677   -1.8796    0.3773 N   0  0  0  1  0  0  0  0  0  0  0  0
   -0.8726   -1.9865   -0.7058 C   0  0  0  1  0  0  0  0  0  0  0  0
   -1.9641    0.0015    1.9514 C   0  0  0  1  0  0  0  0  0  0  0  0
   -2.6356    1.1489    2.3284 C   0  0  0  1  0  0  0  0  0  0  0  0
   -3.7258    1.6017    1.7018 N   0  0  0  1  0  0  0  0  0  0  0  0
   -4.1740    0.8903    0.6576 C   0  0  0  1  0  0  0  0  0  0  0  0
   -3.5612   -0.2672    0.2105 C   0  0  0  1  0  0  0  0  0  0  0  0
    4.3764   -2.5568   -3.6773 H   0  0  0  1  0  0  0  0  0  0  0  0
    1.8873    0.6766    0.8122 H   0  0  0  1  0  0  0  0  0  0  0  0
    0.7709    4.9742   -1.1348 H   0  0  0  1  0  0  0  0  0  0  0  0
    2.0813    3.3761   -2.3980 H   0  0  0  1  0  0  0  0  0  0  0  0
    0.5747    2.2775    2.0774 H   0  0  0  1  0  0  0  0  0  0  0  0
    0.5529   -2.5541    0.8028 H   0  0  0  1  0  0  0  0  0  0  0  0
   -0.5199   -4.6697    1.1992 H   0  0  0  1  0  0  0  0  0  0  0  0
   -1.1590   -4.7409   -0.4258 H   0  0  0  1  0  0  0  0  0  0  0  0
   -3.0308   -3.6524    0.3781 H   0  0  0  1  0  0  0  0  0  0  0  0
   -2.2449   -3.3059    1.9001 H   0  0  0  1  0  0  0  0  0  0  0  0
    1.1011   -4.4473   -1.1966 H   0  0  0  1  0  0  0  0  0  0  0  0
   -1.3927    4.9767    2.7904 H   0  0  0  1  0  0  0  0  0  0  0  0
    0.2897    4.7130    3.1807 H   0  0  0  1  0  0  0  0  0  0  0  0
   -0.7044    3.3769    2.6508 H   0  0  0  1  0  0  0  0  0  0  0  0
   -1.2978   -2.3681   -1.6104 H   0  0  0  1  0  0  0  0  0  0  0  0
   -0.3884   -1.0532   -0.9046 H   0  0  0  1  0  0  0  0  0  0  0  0
   -1.1204   -0.3136    2.4714 H   0  0  0  1  0  0  0  0  0  0  0  0
   -2.2742    1.6876    3.1413 H   0  0  0  1  0  0  0  0  0  0  0  0
   -5.0234    1.2246    0.1593 H   0  0  0  1  0  0  0  0  0  0  0  0
   -3.9414   -0.7865   -0.6065 H   0  0  0  1  0  0  0  0  0  0  0  0
  1  3  4  0  0  0  0
  1 14  4  0  0  0  0
  1 21  1  0  0  0  0
  2 14  4  0  0  0  0
  2 15  4  0  0  0  0
  2 30  1  0  0  0  0
  3 16  4  0  0  0  0
  4  5  4  0  0  0  0
  4  7  4  0  0  0  0
  4 17  1  0  0  0  0
  5  9  4  0  0  0  0
  5 31  1  0  0  0  0
  6  7  4  0  0  0  0
  6  8  4  0  0  0  0
  6 32  1  0  0  0  0
  7 33  1  0  0  0  0
  8  9  4  0  0  0  0
  8 20  1  0  0  0  0
  9 34  1  0  0  0  0
 10 11  1  0  0  0  0
 10 21  1  0  0  0  0
 10 24  1  0  0  0  0
 10 35  1  0  0  0  0
 11 12  1  0  0  0  0
 11 36  1  0  0  0  0
 11 37  1  0  0  0  0
 12 23  1  0  0  0  0
 12 38  1  0  0  0  0
 12 39  1  0  0  0  0
 13 23  1  0  0  0  0
 13 25  4  0  0  0  0
 13 29  4  0  0  0  0
 15 16  4  0  0  0  0
 15 18  4  0  0  0  0
 16 17  4  0  0  0  0
 17 19  4  0  0  0  0
 18 19  4  0  0  0  0
 20 22  1  0  0  0  0
 21 40  1  0  0  0  0
 22 41  1  0  0  0  0
 22 42  1  0  0  0  0
 22 43  1  0  0  0  0
 23 24  1  0  0  0  0
 24 44  1  0  0  0  0
 24 45  1  0  0  0  0
 25 26  4  0  0  0  0
 25 46  1  0  0  0  0
 26 27  4  0  0  0  0
 26 47  1  0  0  0  0
 27 28  4  0  0  0  0
 28 29  4  0  0  0  0
 28 48  1  0  0  0  0
 29 49  1  0  0  0  0
M  END
> <ConfClashScore>
0 

> <ConfOneFourInteractionScore>
-0.984874 

> <ConfScore>
0.211299 

> <ConfScorePBest>
0.00148738 

> <ConfTolerance>
0.721322 

> <HETNAM>
     OWQ A 303  OWQ                                                       

> <pdb_OW>
Q_303 -16.5129 3.80749 7.62812 0.15963 1.39178 -0.28144 -3.20151 0 0 0 -1.30514 0 0 0 0 0 0 0 0 -8.31393

$$$$
6yky_lig_1.pdb
 OpenBabel04162415593D

 49 53  0  0  0  0  0  0  0  0999 V2000
    1.9204   -2.8060   -1.3285 C   0  0  0  1  0  0  0  0  0  0  0  0
    3.5115   -2.4880   -2.9646 C   0  0  0  1  0  0  0  0  0  0  0  0
    1.7817   -1.5157   -1.1127 N   0  0  0  1  0  0  0  0  0  0  0  0
    1.9214    1.7374   -1.0765 C   0  0  0  1  0  0  0  0  0  0  0  0
    1.4257    1.4508    0.1814 C   0  0  0  1  0  0  0  0  0  0  0  0
    0.9651    3.9324   -0.9558 C   0  0  0  1  0  0  0  0  0  0  0  0
    1.6886    2.9790   -1.6471 C   0  0  0  1  0  0  0  0  0  0  0  0
    0.4678    3.6452    0.3059 C   0  0  0  1  0  0  0  0  0  0  0  0
    0.7001    2.4071    0.8746 C   0  0  0  1  0  0  0  0  0  0  0  0
    0.1621   -3.0880    0.3886 C   0  0  0  1  0  0  0  0  0  0  0  0
   -0.8297   -4.1849    0.8073 C   0  0  0  1  0  0  0  0  0  0  0  0
   -2.0365   -3.3538    1.2695 C   0  0  0  1  0  0  0  0  0  0  0  0
   -2.2870   -0.7988    1.3425 C   0  0  0  1  0  0  0  0  0  0  0  0
    2.7605   -3.2868   -2.2283 N   0  0  0  1  0  0  0  0  0  0  0  0
    3.4043   -1.1053   -2.7765 C   0  0  0  1  0  0  0  0  0  0  0  0
    2.4954   -0.6369   -1.8057 C   0  0  0  1  0  0  0  0  0  0  0  0
    2.5895    0.7272   -1.8272 N   0  0  0  1  0  0  0  0  0  0  0  0
    3.9994   -0.0286   -3.3346 N   0  0  0  1  0  0  0  0  0  0  0  0
    3.5449    1.0518   -2.8019 N   0  0  0  1  0  0  0  0  0  0  0  0
   -0.2562    4.4939    1.0735 O   0  0  0  1  0  0  0  0  0  0  0  0
    1.1388   -3.5943   -0.5599 N   0  0  0  1  0  0  0  0  0  0  0  0
   -0.6727    5.7297    0.4719 C   0  0  0  1  0  0  0  0  0  0  0  0
   -1.7425   -1.9563    0.8315 N   0  0  0  1  0  0  0  0  0  0  0  0
   -0.7532   -2.0629   -0.2568 C   0  0  0  1  0  0  0  0  0  0  0  0
   -2.0428    0.4509    0.8036 C   0  0  0  1  0  0  0  0  0  0  0  0
   -2.6390    1.5536    1.3853 C   0  0  0  1  0  0  0  0  0  0  0  0
   -3.4426    1.4781    2.4505 N   0  0  0  1  0  0  0  0  0  0  0  0
   -3.6671    0.2608    2.9653 C   0  0  0  1  0  0  0  0  0  0  0  0
   -3.1144   -0.8960    2.4441 C   0  0  0  1  0  0  0  0  0  0  0  0
    4.1689   -2.8784   -3.6695 H   0  0  0  1  0  0  0  0  0  0  0  0
    1.5970    0.5178    0.6078 H   0  0  0  1  0  0  0  0  0  0  0  0
    0.7938    4.8654   -1.3822 H   0  0  0  1  0  0  0  0  0  0  0  0
    2.0583    3.1932   -2.5953 H   0  0  0  1  0  0  0  0  0  0  0  0
    0.3304    2.1929    1.8228 H   0  0  0  1  0  0  0  0  0  0  0  0
    0.6681   -2.6773    1.2373 H   0  0  0  1  0  0  0  0  0  0  0  0
   -1.0843   -4.8162   -0.0182 H   0  0  0  1  0  0  0  0  0  0  0  0
   -0.4382   -4.7808    1.6052 H   0  0  0  1  0  0  0  0  0  0  0  0
   -2.1378   -3.3996    2.3337 H   0  0  0  1  0  0  0  0  0  0  0  0
   -2.9348   -3.7095    0.8096 H   0  0  0  1  0  0  0  0  0  0  0  0
    1.2361   -4.5656   -0.6472 H   0  0  0  1  0  0  0  0  0  0  0  0
    0.1237    6.1226   -0.1250 H   0  0  0  1  0  0  0  0  0  0  0  0
   -0.9236    6.4326    1.2387 H   0  0  0  1  0  0  0  0  0  0  0  0
   -1.5285    5.5547   -0.1460 H   0  0  0  1  0  0  0  0  0  0  0  0
   -0.2544   -1.1348   -0.4431 H   0  0  0  1  0  0  0  0  0  0  0  0
   -1.1880   -2.4234   -1.1656 H   0  0  0  1  0  0  0  0  0  0  0  0
   -1.4222    0.5590   -0.0239 H   0  0  0  1  0  0  0  0  0  0  0  0
   -2.4527    2.4900    0.9731 H   0  0  0  1  0  0  0  0  0  0  0  0
   -4.2868    0.1819    3.7968 H   0  0  0  1  0  0  0  0  0  0  0  0
   -3.3183   -1.8209    2.8738 H   0  0  0  1  0  0  0  0  0  0  0  0
  1  3  4  0  0  0  0
  1 14  4  0  0  0  0
  1 21  1  0  0  0  0
  2 14  4  0  0  0  0
  2 15  4  0  0  0  0
  2 30  1  0  0  0  0
  3 16  4  0  0  0  0
  4  5  4  0  0  0  0
  4  7  4  0  0  0  0
  4 17  1  0  0  0  0
  5  9  4  0  0  0  0
  5 31  1  0  0  0  0
  6  7  4  0  0  0  0
  6  8  4  0  0  0  0
  6 32  1  0  0  0  0
  7 33  1  0  0  0  0
  8  9  4  0  0  0  0
  8 20  1  0  0  0  0
  9 34  1  0  0  0  0
 10 11  1  0  0  0  0
 10 21  1  0  0  0  0
 10 24  1  0  0  0  0
 10 35  1  0  0  0  0
 11 12  1  0  0  0  0
 11 36  1  0  0  0  0
 11 37  1  0  0  0  0
 12 23  1  0  0  0  0
 12 38  1  0  0  0  0
 12 39  1  0  0  0  0
 13 23  1  0  0  0  0
 13 25  4  0  0  0  0
 13 29  4  0  0  0  0
 15 16  4  0  0  0  0
 15 18  4  0  0  0  0
 16 17  4  0  0  0  0
 17 19  4  0  0  0  0
 18 19  4  0  0  0  0
 20 22  1  0  0  0  0
 21 40  1  0  0  0  0
 22 41  1  0  0  0  0
 22 42  1  0  0  0  0
 22 43  1  0  0  0  0
 23 24  1  0  0  0  0
 24 44  1  0  0  0  0
 24 45  1  0  0  0  0
 25 26  4  0  0  0  0
 25 46  1  0  0  0  0
 26 27  4  0  0  0  0
 26 47  1  0  0  0  0
 27 28  4  0  0  0  0
 28 29  4  0  0  0  0
 28 48  1  0  0  0  0
 29 49  1  0  0  0  0
M  END
> <ConfClashScore>
0 

> <ConfOneFourInteractionScore>
-0.987833 

> <ConfScore>
0.214457 

> <ConfScorePBest>
0.00147405 

> <ConfTolerance>
0.888672 

> <HETNAM>
     OWQ A 303  OWQ                                                       

> <pdb_OW>
Q_303 -16.5129 3.80749 7.62812 0.15963 1.39178 -0.28144 -3.20151 0 0 0 -1.30514 0 0 0 0 0 0 0 0 -8.31393

$$$$
6yky_lig_1.pdb
 OpenBabel04162415593D

 49 53  0  0  0  0  0  0  0  0999 V2000
   -0.2559   -0.4136    0.4312 C   0  0  0  1  0  0  0  0  0  0  0  0
   -2.1651   -0.7619   -0.8111 C   0  0  0  1  0  0  0  0  0  0  0  0
    0.5375   -0.7597   -0.5595 N   0  0  0  1  0  0  0  0  0  0  0  0
    1.9045   -1.7122   -3.3573 C   0  0  0  1  0  0  0  0  0  0  0  0
    2.1229   -1.9275   -4.7049 C   0  0  0  1  0  0  0  0  0  0  0  0
    4.2401   -2.0359   -2.9247 C   0  0  0  1  0  0  0  0  0  0  0  0
    2.9641   -1.7691   -2.4654 C   0  0  0  1  0  0  0  0  0  0  0  0
    4.4594   -2.2519   -4.2763 C   0  0  0  1  0  0  0  0  0  0  0  0
    3.4026   -2.1951   -5.1654 C   0  0  0  1  0  0  0  0  0  0  0  0
   -0.2417    0.4959    2.7642 C   0  0  0  1  0  0  0  0  0  0  0  0
   -1.2399   -0.5007    3.3941 C   0  0  0  1  0  0  0  0  0  0  0  0
   -2.4440    0.2868    3.8456 C   0  0  0  1  0  0  0  0  0  0  0  0
   -3.1486    2.6579    3.1284 C   0  0  0  1  0  0  0  0  0  0  0  0
   -1.5725   -0.4122    0.3162 N   0  0  0  1  0  0  0  0  0  0  0  0
   -1.3687   -1.1395   -1.8982 C   0  0  0  1  0  0  0  0  0  0  0  0
    0.0313   -1.1263   -1.7305 C   0  0  0  1  0  0  0  0  0  0  0  0
    0.5587   -1.5316   -2.9253 N   0  0  0  1  0  0  0  0  0  0  0  0
   -1.6267   -1.5438   -3.1611 N   0  0  0  1  0  0  0  0  0  0  0  0
   -0.5240   -1.7791   -3.7825 N   0  0  0  1  0  0  0  0  0  0  0  0
    5.6597   -2.5256   -4.8405 O   0  0  0  1  0  0  0  0  0  0  0  0
    0.3754   -0.0651    1.5580 N   0  0  0  1  0  0  0  0  0  0  0  0
    6.7787   -2.6891   -3.9554 C   0  0  0  1  0  0  0  0  0  0  0  0
   -2.2310    1.6183    3.0929 N   0  0  0  1  0  0  0  0  0  0  0  0
   -1.1232    1.6820    2.4260 C   0  0  0  1  0  0  0  0  0  0  0  0
   -2.7231    3.9733    3.1477 C   0  0  0  1  0  0  0  0  0  0  0  0
   -3.6712    4.9781    3.1790 C   0  0  0  1  0  0  0  0  0  0  0  0
   -4.9874    4.7464    3.1949 N   0  0  0  1  0  0  0  0  0  0  0  0
   -5.3857    3.4664    3.1803 C   0  0  0  1  0  0  0  0  0  0  0  0
   -4.5053    2.3992    3.1452 C   0  0  0  1  0  0  0  0  0  0  0  0
   -3.2021   -0.7568   -0.8893 H   0  0  0  1  0  0  0  0  0  0  0  0
    1.3271   -1.8888   -5.3734 H   0  0  0  1  0  0  0  0  0  0  0  0
    5.0359   -2.0746   -2.2562 H   0  0  0  1  0  0  0  0  0  0  0  0
    2.7991   -1.6110   -1.4509 H   0  0  0  1  0  0  0  0  0  0  0  0
    3.5677   -2.3532   -6.1800 H   0  0  0  1  0  0  0  0  0  0  0  0
    0.5221    0.7697    3.4618 H   0  0  0  1  0  0  0  0  0  0  0  0
   -1.5325   -1.2316    2.6695 H   0  0  0  1  0  0  0  0  0  0  0  0
   -0.7882   -0.9894    4.2320 H   0  0  0  1  0  0  0  0  0  0  0  0
   -2.4429    0.4313    4.9058 H   0  0  0  1  0  0  0  0  0  0  0  0
   -3.3562   -0.1885    3.5508 H   0  0  0  1  0  0  0  0  0  0  0  0
    1.3461   -0.1979    1.5794 H   0  0  0  1  0  0  0  0  0  0  0  0
    7.6742   -2.3757   -4.4501 H   0  0  0  1  0  0  0  0  0  0  0  0
    6.8664   -3.7188   -3.6781 H   0  0  0  1  0  0  0  0  0  0  0  0
    6.6293   -2.0946   -3.0784 H   0  0  0  1  0  0  0  0  0  0  0  0
   -0.6105    2.5868    2.6775 H   0  0  0  1  0  0  0  0  0  0  0  0
   -1.3403    1.6738    1.3782 H   0  0  0  1  0  0  0  0  0  0  0  0
   -1.7086    4.2021    3.1388 H   0  0  0  1  0  0  0  0  0  0  0  0
   -3.3438    5.9652    3.1909 H   0  0  0  1  0  0  0  0  0  0  0  0
   -6.4060    3.2656    3.1961 H   0  0  0  1  0  0  0  0  0  0  0  0
   -4.8584    1.4211    3.1318 H   0  0  0  1  0  0  0  0  0  0  0  0
  1  3  4  0  0  0  0
  1 14  4  0  0  0  0
  1 21  1  0  0  0  0
  2 14  4  0  0  0  0
  2 15  4  0  0  0  0
  2 30  1  0  0  0  0
  3 16  4  0  0  0  0
  4  5  4  0  0  0  0
  4  7  4  0  0  0  0
  4 17  1  0  0  0  0
  5  9  4  0  0  0  0
  5 31  1  0  0  0  0
  6  7  4  0  0  0  0
  6  8  4  0  0  0  0
  6 32  1  0  0  0  0
  7 33  1  0  0  0  0
  8  9  4  0  0  0  0
  8 20  1  0  0  0  0
  9 34  1  0  0  0  0
 10 11  1  0  0  0  0
 10 21  1  0  0  0  0
 10 24  1  0  0  0  0
 10 35  1  0  0  0  0
 11 12  1  0  0  0  0
 11 36  1  0  0  0  0
 11 37  1  0  0  0  0
 12 23  1  0  0  0  0
 12 38  1  0  0  0  0
 12 39  1  0  0  0  0
 13 23  1  0  0  0  0
 13 25  4  0  0  0  0
 13 29  4  0  0  0  0
 15 16  4  0  0  0  0
 15 18  4  0  0  0  0
 16 17  4  0  0  0  0
 17 19  4  0  0  0  0
 18 19  4  0  0  0  0
 20 22  1  0  0  0  0
 21 40  1  0  0  0  0
 22 41  1  0  0  0  0
 22 42  1  0  0  0  0
 22 43  1  0  0  0  0
 23 24  1  0  0  0  0
 24 44  1  0  0  0  0
 24 45  1  0  0  0  0
 25 26  4  0  0  0  0
 25 46  1  0  0  0  0
 26 27  4  0  0  0  0
 26 47  1  0  0  0  0
 27 28  4  0  0  0  0
 28 29  4  0  0  0  0
 28 48  1  0  0  0  0
 29 49  1  0  0  0  0
M  END
> <ConfClashScore>
0 

> <ConfOneFourInteractionScore>
-0.983503 

> <ConfScore>
0.216029 

> <ConfScorePBest>
0.00146072 

> <ConfTolerance>
0.806531 

> <HETNAM>
     OWQ A 303  OWQ                                                       

> <pdb_OW>
Q_303 -16.5129 3.80749 7.62812 0.15963 1.39178 -0.28144 -3.20151 0 0 0 -1.30514 0 0 0 0 0 0 0 0 -8.31393

$$$$
6yky_lig_1.pdb
 OpenBabel04162415593D

 49 53  0  0  0  0  0  0  0  0999 V2000
    3.2655   -0.9776   -0.6377 C   0  0  0  1  0  0  0  0  0  0  0  0
    4.1091   -1.6599   -2.6705 C   0  0  0  1  0  0  0  0  0  0  0  0
    2.0173   -1.0826   -1.0401 N   0  0  0  1  0  0  0  0  0  0  0  0
   -0.7923   -1.4721   -2.7199 C   0  0  0  1  0  0  0  0  0  0  0  0
   -1.1781   -0.7747   -1.5908 C   0  0  0  1  0  0  0  0  0  0  0  0
   -3.0918   -1.9075   -3.2395 C   0  0  0  1  0  0  0  0  0  0  0  0
   -1.7503   -2.0417   -3.5441 C   0  0  0  1  0  0  0  0  0  0  0  0
   -3.4790   -1.2081   -2.1071 C   0  0  0  1  0  0  0  0  0  0  0  0
   -2.5236   -0.6403   -1.2854 C   0  0  0  1  0  0  0  0  0  0  0  0
    2.5248   -0.0607    1.5781 C   0  0  0  1  0  0  0  0  0  0  0  0
    1.5329   -1.1576    1.9965 C   0  0  0  1  0  0  0  0  0  0  0  0
    0.3260   -0.3266    2.4586 C   0  0  0  1  0  0  0  0  0  0  0  0
    0.0776    2.2242    2.5301 C   0  0  0  1  0  0  0  0  0  0  0  0
    4.2890   -1.2569   -1.4258 N   0  0  0  1  0  0  0  0  0  0  0  0
    2.8011   -1.7892   -3.1510 C   0  0  0  1  0  0  0  0  0  0  0  0
    1.7397   -1.4806   -2.2756 C   0  0  0  1  0  0  0  0  0  0  0  0
    0.5906   -1.6882   -2.9871 N   0  0  0  1  0  0  0  0  0  0  0  0
    2.2628   -2.1634   -4.3322 N   0  0  0  1  0  0  0  0  0  0  0  0
    0.9780   -2.1143   -4.2664 N   0  0  0  1  0  0  0  0  0  0  0  0
   -4.8116   -0.9957   -1.8519 O   0  0  0  1  0  0  0  0  0  0  0  0
    3.5103   -0.5714    0.6211 N   0  0  0  1  0  0  0  0  0  0  0  0
   -5.0534   -0.4816   -0.5215 C   0  0  0  1  0  0  0  0  0  0  0  0
    0.6201    1.0710    2.0209 N   0  0  0  1  0  0  0  0  0  0  0  0
    1.6095    0.9646    0.9327 C   0  0  0  1  0  0  0  0  0  0  0  0
    0.6599    2.8529    3.6151 C   0  0  0  1  0  0  0  0  0  0  0  0
    0.1436    4.0629    4.0381 C   0  0  0  1  0  0  0  0  0  0  0  0
   -0.8980    4.6621    3.4532 N   0  0  0  1  0  0  0  0  0  0  0  0
   -1.4556    4.0394    2.4051 C   0  0  0  1  0  0  0  0  0  0  0  0
   -1.0006    2.8284    1.9134 C   0  0  0  1  0  0  0  0  0  0  0  0
    4.9227   -1.8767   -3.2810 H   0  0  0  1  0  0  0  0  0  0  0  0
   -0.4591   -0.3509   -0.9703 H   0  0  0  1  0  0  0  0  0  0  0  0
   -3.8107   -2.3314   -3.8600 H   0  0  0  1  0  0  0  0  0  0  0  0
   -1.4597   -2.5698   -4.3916 H   0  0  0  1  0  0  0  0  0  0  0  0
   -2.8141   -0.1121   -0.4379 H   0  0  0  1  0  0  0  0  0  0  0  0
    3.0307    0.3500    2.4269 H   0  0  0  1  0  0  0  0  0  0  0  0
    1.2784   -1.7888    1.1708 H   0  0  0  1  0  0  0  0  0  0  0  0
    1.9243   -1.7536    2.7943 H   0  0  0  1  0  0  0  0  0  0  0  0
    0.2247   -0.3725    3.5228 H   0  0  0  1  0  0  0  0  0  0  0  0
   -0.5722   -0.6822    1.9986 H   0  0  0  1  0  0  0  0  0  0  0  0
    4.4394   -0.6219    0.9286 H   0  0  0  1  0  0  0  0  0  0  0  0
   -4.7004   -1.1855    0.2029 H   0  0  0  1  0  0  0  0  0  0  0  0
   -6.1031   -0.3258   -0.3850 H   0  0  0  1  0  0  0  0  0  0  0  0
   -4.5355    0.4466   -0.3985 H   0  0  0  1  0  0  0  0  0  0  0  0
    2.1084    1.8927    0.7465 H   0  0  0  1  0  0  0  0  0  0  0  0
    1.1748    0.6042    0.0238 H   0  0  0  1  0  0  0  0  0  0  0  0
    1.4713    2.4232    4.1037 H   0  0  0  1  0  0  0  0  0  0  0  0
    0.5883    4.5312    4.8533 H   0  0  0  1  0  0  0  0  0  0  0  0
   -2.2698    4.4881    1.9388 H   0  0  0  1  0  0  0  0  0  0  0  0
   -1.4616    2.3818    1.0951 H   0  0  0  1  0  0  0  0  0  0  0  0
  1  3  4  0  0  0  0
  1 14  4  0  0  0  0
  1 21  1  0  0  0  0
  2 14  4  0  0  0  0
  2 15  4  0  0  0  0
  2 30  1  0  0  0  0
  3 16  4  0  0  0  0
  4  5  4  0  0  0  0
  4  7  4  0  0  0  0
  4 17  1  0  0  0  0
  5  9  4  0  0  0  0
  5 31  1  0  0  0  0
  6  7  4  0  0  0  0
  6  8  4  0  0  0  0
  6 32  1  0  0  0  0
  7 33  1  0  0  0  0
  8  9  4  0  0  0  0
  8 20  1  0  0  0  0
  9 34  1  0  0  0  0
 10 11  1  0  0  0  0
 10 21  1  0  0  0  0
 10 24  1  0  0  0  0
 10 35  1  0  0  0  0
 11 12  1  0  0  0  0
 11 36  1  0  0  0  0
 11 37  1  0  0  0  0
 12 23  1  0  0  0  0
 12 38  1  0  0  0  0
 12 39  1  0  0  0  0
 13 23  1  0  0  0  0
 13 25  4  0  0  0  0
 13 29  4  0  0  0  0
 15 16  4  0  0  0  0
 15 18  4  0  0  0  0
 16 17  4  0  0  0  0
 17 19  4  0  0  0  0
 18 19  4  0  0  0  0
 20 22  1  0  0  0  0
 21 40  1  0  0  0  0
 22 41  1  0  0  0  0
 22 42  1  0  0  0  0
 22 43  1  0  0  0  0
 23 24  1  0  0  0  0
 24 44  1  0  0  0  0
 24 45  1  0  0  0  0
 25 26  4  0  0  0  0
 25 46  1  0  0  0  0
 26 27  4  0  0  0  0
 26 47  1  0  0  0  0
 27 28  4  0  0  0  0
 28 29  4  0  0  0  0
 28 48  1  0  0  0  0
 29 49  1  0  0  0  0
M  END
> <ConfClashScore>
0 

> <ConfOneFourInteractionScore>
-0.985577 

> <ConfScore>
0.216607 

> <ConfScorePBest>
0.0014474 

> <ConfTolerance>
0.909507 

> <HETNAM>
     OWQ A 303  OWQ                                                       

> <pdb_OW>
Q_303 -16.5129 3.80749 7.62812 0.15963 1.39178 -0.28144 -3.20151 0 0 0 -1.30514 0 0 0 0 0 0 0 0 -8.31393

$$$$
6yky_lig_1.pdb
 OpenBabel04162415593D

 49 53  0  0  0  0  0  0  0  0999 V2000
    0.5846   -0.1912    0.9726 C   0  0  0  1  0  0  0  0  0  0  0  0
    2.1858   -0.5630    2.5873 C   0  0  0  1  0  0  0  0  0  0  0  0
    1.2825   -0.8012    0.0389 N   0  0  0  1  0  0  0  0  0  0  0  0
    3.4723   -2.4050   -1.7600 C   0  0  0  1  0  0  0  0  0  0  0  0
    3.3389   -3.7391   -2.0953 C   0  0  0  1  0  0  0  0  0  0  0  0
    3.8914   -1.8669   -4.0583 C   0  0  0  1  0  0  0  0  0  0  0  0
    3.7516   -1.4678   -2.7424 C   0  0  0  1  0  0  0  0  0  0  0  0
    3.7576   -3.2050   -4.3948 C   0  0  0  1  0  0  0  0  0  0  0  0
    3.4791   -4.1393   -3.4150 C   0  0  0  1  0  0  0  0  0  0  0  0
   -1.6021    0.8175    1.5384 C   0  0  0  1  0  0  0  0  0  0  0  0
   -2.5751   -0.2914    1.9696 C   0  0  0  1  0  0  0  0  0  0  0  0
   -3.7999    0.5237    2.4126 C   0  0  0  1  0  0  0  0  0  0  0  0
   -4.1098    3.0957    2.4529 C   0  0  0  1  0  0  0  0  0  0  0  0
    1.0179   -0.0714    2.2153 N   0  0  0  1  0  0  0  0  0  0  0  0
    2.9701   -1.2223    1.6340 C   0  0  0  1  0  0  0  0  0  0  0  0
    2.4685   -1.3267    0.3204 C   0  0  0  1  0  0  0  0  0  0  0  0
    3.4179   -2.0039   -0.3938 N   0  0  0  1  0  0  0  0  0  0  0  0
    4.1775   -1.8277    1.6613 N   0  0  0  1  0  0  0  0  0  0  0  0
    4.4642   -2.2920    0.4952 N   0  0  0  1  0  0  0  0  0  0  0  0
    3.9942   -3.6057   -5.6665 O   0  0  0  1  0  0  0  0  0  0  0  0
   -0.6111    0.3151    0.6027 N   0  0  0  1  0  0  0  0  0  0  0  0
    4.3777   -2.5953   -6.6123 C   0  0  0  1  0  0  0  0  0  0  0  0
   -3.5303    1.9195    1.9540 N   0  0  0  1  0  0  0  0  0  0  0  0
   -2.5335    1.8147    0.8723 C   0  0  0  1  0  0  0  0  0  0  0  0
   -3.4288    4.1038    3.1098 C   0  0  0  1  0  0  0  0  0  0  0  0
   -4.1347    5.2099    3.5431 C   0  0  0  1  0  0  0  0  0  0  0  0
   -5.4507    5.3585    3.3632 N   0  0  0  1  0  0  0  0  0  0  0  0
   -6.0991    4.3715    2.7287 C   0  0  0  1  0  0  0  0  0  0  0  0
   -5.4705    3.2316    2.2587 C   0  0  0  1  0  0  0  0  0  0  0  0
    2.5159   -0.4623    3.5684 H   0  0  0  1  0  0  0  0  0  0  0  0
    3.1333   -4.4427   -1.3576 H   0  0  0  1  0  0  0  0  0  0  0  0
    4.0970   -1.1633   -4.7960 H   0  0  0  1  0  0  0  0  0  0  0  0
    3.8559   -0.4645   -2.4894 H   0  0  0  1  0  0  0  0  0  0  0  0
    3.3748   -5.1426   -3.6680 H   0  0  0  1  0  0  0  0  0  0  0  0
   -1.1084    1.2512    2.3828 H   0  0  0  1  0  0  0  0  0  0  0  0
   -2.8133   -0.9404    1.1530 H   0  0  0  1  0  0  0  0  0  0  0  0
   -2.1764   -0.8670    2.7787 H   0  0  0  1  0  0  0  0  0  0  0  0
   -3.9057    0.4928    3.4770 H   0  0  0  1  0  0  0  0  0  0  0  0
   -4.6888    0.1436    1.9541 H   0  0  0  1  0  0  0  0  0  0  0  0
   -0.8230    0.3454   -0.3536 H   0  0  0  1  0  0  0  0  0  0  0  0
    5.0005   -1.8718   -6.1292 H   0  0  0  1  0  0  0  0  0  0  0  0
    3.5018   -2.1136   -6.9939 H   0  0  0  1  0  0  0  0  0  0  0  0
    4.9164   -3.0478   -7.4185 H   0  0  0  1  0  0  0  0  0  0  0  0
   -2.9567    1.4316   -0.0328 H   0  0  0  1  0  0  0  0  0  0  0  0
   -2.0515    2.7491    0.6737 H   0  0  0  1  0  0  0  0  0  0  0  0
   -2.4045    4.0310    3.2747 H   0  0  0  1  0  0  0  0  0  0  0  0
   -3.6154    5.9654    4.0342 H   0  0  0  1  0  0  0  0  0  0  0  0
   -7.1243    4.4670    2.5826 H   0  0  0  1  0  0  0  0  0  0  0  0
   -6.0124    2.4915    1.7687 H   0  0  0  1  0  0  0  0  0  0  0  0
  1  3  4  0  0  0  0
  1 14  4  0  0  0  0
  1 21  1  0  0  0  0
  2 14  4  0  0  0  0
  2 15  4  0  0  0  0
  2 30  1  0  0  0  0
  3 16  4  0  0  0  0
  4  5  4  0  0  0  0
  4  7  4  0  0  0  0
  4 17  1  0  0  0  0
  5  9  4  0  0  0  0
  5 31  1  0  0  0  0
  6  7  4  0  0  0  0
  6  8  4  0  0  0  0
  6 32  1  0  0  0  0
  7 33  1  0  0  0  0
  8  9  4  0  0  0  0
  8 20  1  0  0  0  0
  9 34  1  0  0  0  0
 10 11  1  0  0  0  0
 10 21  1  0  0  0  0
 10 24  1  0  0  0  0
 10 35  1  0  0  0  0
 11 12  1  0  0  0  0
 11 36  1  0  0  0  0
 11 37  1  0  0  0  0
 12 23  1  0  0  0  0
 12 38  1  0  0  0  0
 12 39  1  0  0  0  0
 13 23  1  0  0  0  0
 13 25  4  0  0  0  0
 13 29  4  0  0  0  0
 15 16  4  0  0  0  0
 15 18  4  0  0  0  0
 16 17  4  0  0  0  0
 17 19  4  0  0  0  0
 18 19  4  0  0  0  0
 20 22  1  0  0  0  0
 21 40  1  0  0  0  0
 22 41  1  0  0  0  0
 22 42  1  0  0  0  0
 22 43  1  0  0  0  0
 23 24  1  0  0  0  0
 24 44  1  0  0  0  0
 24 45  1  0  0  0  0
 25 26  4  0  0  0  0
 25 46  1  0  0  0  0
 26 27  4  0  0  0  0
 26 47  1  0  0  0  0
 27 28  4  0  0  0  0
 28 29  4  0  0  0  0
 28 48  1  0  0  0  0
 29 49  1  0  0  0  0
M  END
> <ConfClashScore>
0 

> <ConfOneFourInteractionScore>
-0.986948 

> <ConfScore>
0.21738 

> <ConfScorePBest>
0.00143407 

> <ConfTolerance>
1.10494 

> <HETNAM>
     OWQ A 303  OWQ                                                       

> <pdb_OW>
Q_303 -16.5129 3.80749 7.62812 0.15963 1.39178 -0.28144 -3.20151 0 0 0 -1.30514 0 0 0 0 0 0 0 0 -8.31393

$$$$
6yky_lig_1.pdb
 OpenBabel04162415593D

 49 53  0  0  0  0  0  0  0  0999 V2000
    0.0740    0.1178    0.3087 C   0  0  0  1  0  0  0  0  0  0  0  0
    0.6673    2.3409    0.1841 C   0  0  0  1  0  0  0  0  0  0  0  0
    1.0188   -0.2547   -0.5276 N   0  0  0  1  0  0  0  0  0  0  0  0
    3.5089   -0.4973   -2.6119 C   0  0  0  1  0  0  0  0  0  0  0  0
    3.9038   -1.5868   -1.8588 C   0  0  0  1  0  0  0  0  0  0  0  0
    4.4770   -1.4938   -4.5656 C   0  0  0  1  0  0  0  0  0  0  0  0
    3.7982   -0.4493   -3.9667 C   0  0  0  1  0  0  0  0  0  0  0  0
    4.8733   -2.5866   -3.8104 C   0  0  0  1  0  0  0  0  0  0  0  0
    4.5847   -2.6342   -2.4596 C   0  0  0  1  0  0  0  0  0  0  0  0
   -1.7875   -0.3402    1.7758 C   0  0  0  1  0  0  0  0  0  0  0  0
   -2.7551   -1.4515    2.2131 C   0  0  0  1  0  0  0  0  0  0  0  0
   -3.9905   -0.6409    2.6342 C   0  0  0  1  0  0  0  0  0  0  0  0
   -4.3163    1.9173    2.6329 C   0  0  0  1  0  0  0  0  0  0  0  0
   -0.1032    1.3795    0.6598 N   0  0  0  1  0  0  0  0  0  0  0  0
    1.6889    2.0008   -0.7099 C   0  0  0  1  0  0  0  0  0  0  0  0
    1.8415    0.6427   -1.0566 C   0  0  0  1  0  0  0  0  0  0  0  0
    2.8934    0.5913   -1.9289 N   0  0  0  1  0  0  0  0  0  0  0  0
    2.6346    2.7020   -1.3724 N   0  0  0  1  0  0  0  0  0  0  0  0
    3.3505    1.9080   -2.0898 N   0  0  0  1  0  0  0  0  0  0  0  0
    5.6247   -3.5597   -4.3782 O   0  0  0  1  0  0  0  0  0  0  0  0
   -0.7719   -0.8527    0.8448 N   0  0  0  1  0  0  0  0  0  0  0  0
    6.2250   -4.5228   -3.4980 C   0  0  0  1  0  0  0  0  0  0  0  0
   -3.7283    0.7509    2.1595 N   0  0  0  1  0  0  0  0  0  0  0  0
   -2.7210    0.6402    1.0882 C   0  0  0  1  0  0  0  0  0  0  0  0
   -3.6845    2.8701    3.4104 C   0  0  0  1  0  0  0  0  0  0  0  0
   -4.3982    3.9857    3.8052 C   0  0  0  1  0  0  0  0  0  0  0  0
   -5.6767    4.1943    3.4765 N   0  0  0  1  0  0  0  0  0  0  0  0
   -6.2781    3.2603    2.7260 C   0  0  0  1  0  0  0  0  0  0  0  0
   -5.6379    2.1156    2.2841 C   0  0  0  1  0  0  0  0  0  0  0  0
    0.5179    3.3302    0.4680 H   0  0  0  1  0  0  0  0  0  0  0  0
    3.6903   -1.6208   -0.8416 H   0  0  0  1  0  0  0  0  0  0  0  0
    4.6906   -1.4597   -5.5828 H   0  0  0  1  0  0  0  0  0  0  0  0
    3.5045    0.3724   -4.5325 H   0  0  0  1  0  0  0  0  0  0  0  0
    4.8784   -3.4559   -1.8938 H   0  0  0  1  0  0  0  0  0  0  0  0
   -1.3051    0.1087    2.6188 H   0  0  0  1  0  0  0  0  0  0  0  0
   -2.3590   -2.0129    3.0333 H   0  0  0  1  0  0  0  0  0  0  0  0
   -2.9805   -2.1132    1.4030 H   0  0  0  1  0  0  0  0  0  0  0  0
   -4.1057   -0.6586    3.6978 H   0  0  0  1  0  0  0  0  0  0  0  0
   -4.8721   -1.0344    2.1729 H   0  0  0  1  0  0  0  0  0  0  0  0
   -0.6952   -1.8031    0.6183 H   0  0  0  1  0  0  0  0  0  0  0  0
    6.7424   -5.2604   -4.0753 H   0  0  0  1  0  0  0  0  0  0  0  0
    5.4630   -4.9966   -2.9151 H   0  0  0  1  0  0  0  0  0  0  0  0
    6.9168   -4.0290   -2.8481 H   0  0  0  1  0  0  0  0  0  0  0  0
   -3.1328    0.2417    0.1846 H   0  0  0  1  0  0  0  0  0  0  0  0
   -2.2449    1.5759    0.8815 H   0  0  0  1  0  0  0  0  0  0  0  0
   -2.6908    2.7495    3.6929 H   0  0  0  1  0  0  0  0  0  0  0  0
   -3.9157    4.6994    4.3878 H   0  0  0  1  0  0  0  0  0  0  0  0
   -7.2741    3.4028    2.4631 H   0  0  0  1  0  0  0  0  0  0  0  0
   -6.1424    1.4181    1.7005 H   0  0  0  1  0  0  0  0  0  0  0  0
  1  3  4  0  0  0  0
  1 14  4  0  0  0  0
  1 21  1  0  0  0  0
  2 14  4  0  0  0  0
  2 15  4  0  0  0  0
  2 30  1  0  0  0  0
  3 16  4  0  0  0  0
  4  5  4  0  0  0  0
  4  7  4  0  0  0  0
  4 17  1  0  0  0  0
  5  9  4  0  0  0  0
  5 31  1  0  0  0  0
  6  7  4  0  0  0  0
  6  8  4  0  0  0  0
  6 32  1  0  0  0  0
  7 33  1  0  0  0  0
  8  9  4  0  0  0  0
  8 20  1  0  0  0  0
  9 34  1  0  0  0  0
 10 11  1  0  0  0  0
 10 21  1  0  0  0  0
 10 24  1  0  0  0  0
 10 35  1  0  0  0  0
 11 12  1  0  0  0  0
 11 36  1  0  0  0  0
 11 37  1  0  0  0  0
 12 23  1  0  0  0  0
 12 38  1  0  0  0  0
 12 39  1  0  0  0  0
 13 23  1  0  0  0  0
 13 25  4  0  0  0  0
 13 29  4  0  0  0  0
 15 16  4  0  0  0  0
 15 18  4  0  0  0  0
 16 17  4  0  0  0  0
 17 19  4  0  0  0  0
 18 19  4  0  0  0  0
 20 22  1  0  0  0  0
 21 40  1  0  0  0  0
 22 41  1  0  0  0  0
 22 42  1  0  0  0  0
 22 43  1  0  0  0  0
 23 24  1  0  0  0  0
 24 44  1  0  0  0  0
 24 45  1  0  0  0  0
 25 26  4  0  0  0  0
 25 46  1  0  0  0  0
 26 27  4  0  0  0  0
 26 47  1  0  0  0  0
 27 28  4  0  0  0  0
 28 29  4  0  0  0  0
 28 48  1  0  0  0  0
 29 49  1  0  0  0  0
M  END
> <ConfClashScore>
0 

> <ConfOneFourInteractionScore>
-0.984874 

> <ConfScore>
0.221294 

> <ConfScorePBest>
0.00142074 

> <ConfTolerance>
1.18014 

> <HETNAM>
     OWQ A 303  OWQ                                                       

> <pdb_OW>
Q_303 -16.5129 3.80749 7.62812 0.15963 1.39178 -0.28144 -3.20151 0 0 0 -1.30514 0 0 0 0 0 0 0 0 -8.31393

$$$$
6yky_lig_1.pdb
 OpenBabel04162415593D

 49 53  0  0  0  0  0  0  0  0999 V2000
   -0.3805   -0.1696   -0.0013 C   0  0  0  1  0  0  0  0  0  0  0  0
   -2.0326   -0.8809   -1.4414 C   0  0  0  1  0  0  0  0  0  0  0  0
    0.5716   -0.7673   -0.6848 N   0  0  0  1  0  0  0  0  0  0  0  0
    2.4118   -2.4153   -2.7450 C   0  0  0  1  0  0  0  0  0  0  0  0
    3.0528   -2.5110   -3.9657 C   0  0  0  1  0  0  0  0  0  0  0  0
    4.4566   -2.9729   -1.6249 C   0  0  0  1  0  0  0  0  0  0  0  0
    3.1140   -2.6491   -1.5730 C   0  0  0  1  0  0  0  0  0  0  0  0
    5.0998   -3.0690   -2.8491 C   0  0  0  1  0  0  0  0  0  0  0  0
    4.3994   -2.8357   -4.0176 C   0  0  0  1  0  0  0  0  0  0  0  0
   -1.0192    1.0234    2.0643 C   0  0  0  1  0  0  0  0  0  0  0  0
   -2.0139   -0.0713    2.4819 C   0  0  0  1  0  0  0  0  0  0  0  0
   -3.2138    0.7627    2.9568 C   0  0  0  1  0  0  0  0  0  0  0  0
   -3.4656    3.3495    3.0619 C   0  0  0  1  0  0  0  0  0  0  0  0
   -1.6504   -0.2206   -0.3634 N   0  0  0  1  0  0  0  0  0  0  0  0
   -1.0607   -1.5357   -2.2063 C   0  0  0  1  0  0  0  0  0  0  0  0
    0.2817   -1.4548   -1.7827 C   0  0  0  1  0  0  0  0  0  0  0  0
    1.0090   -2.1704   -2.6931 N   0  0  0  1  0  0  0  0  0  0  0  0
   -1.0911   -2.2814   -3.3324 N   0  0  0  1  0  0  0  0  0  0  0  0
    0.0990   -2.6645   -3.6397 N   0  0  0  1  0  0  0  0  0  0  0  0
    6.4115   -3.3971   -2.7752 O   0  0  0  1  0  0  0  0  0  0  0  0
   -0.0508    0.5185    1.1065 N   0  0  0  1  0  0  0  0  0  0  0  0
    7.1004   -3.6302   -4.0136 C   0  0  0  1  0  0  0  0  0  0  0  0
   -2.9155    2.1616    2.5261 N   0  0  0  1  0  0  0  0  0  0  0  0
   -1.9334    2.0572    1.4311 C   0  0  0  1  0  0  0  0  0  0  0  0
   -2.9266    4.5585    2.6626 C   0  0  0  1  0  0  0  0  0  0  0  0
   -3.4588    5.7256    3.1767 C   0  0  0  1  0  0  0  0  0  0  0  0
   -4.4721    5.7500    4.0479 N   0  0  0  1  0  0  0  0  0  0  0  0
   -4.9821    4.5704    4.4297 C   0  0  0  1  0  0  0  0  0  0  0  0
   -4.5128    3.3551    3.9624 C   0  0  0  1  0  0  0  0  0  0  0  0
   -3.0352   -0.9137   -1.7161 H   0  0  0  1  0  0  0  0  0  0  0  0
    2.5249   -2.3394   -4.8452 H   0  0  0  1  0  0  0  0  0  0  0  0
    4.9845   -3.1445   -0.7454 H   0  0  0  1  0  0  0  0  0  0  0  0
    2.6306   -2.5810   -0.6547 H   0  0  0  1  0  0  0  0  0  0  0  0
    4.8828   -2.9038   -4.9359 H   0  0  0  1  0  0  0  0  0  0  0  0
   -0.5061    1.4262    2.9125 H   0  0  0  1  0  0  0  0  0  0  0  0
   -2.2765   -0.6960    1.6539 H   0  0  0  1  0  0  0  0  0  0  0  0
   -1.6205   -0.6742    3.2735 H   0  0  0  1  0  0  0  0  0  0  0  0
   -4.1166    0.4144    2.5001 H   0  0  0  1  0  0  0  0  0  0  0  0
   -3.3088    0.7105    4.0213 H   0  0  0  1  0  0  0  0  0  0  0  0
    0.8989    0.6894    1.2776 H   0  0  0  1  0  0  0  0  0  0  0  0
    6.9724   -2.7857   -4.6580 H   0  0  0  1  0  0  0  0  0  0  0  0
    6.6995   -4.5028   -4.4857 H   0  0  0  1  0  0  0  0  0  0  0  0
    8.1425   -3.7760   -3.8198 H   0  0  0  1  0  0  0  0  0  0  0  0
   -1.4311    2.9841    1.2478 H   0  0  0  1  0  0  0  0  0  0  0  0
   -2.3755    1.7048    0.5226 H   0  0  0  1  0  0  0  0  0  0  0  0
   -2.1356    4.5890    1.9881 H   0  0  0  1  0  0  0  0  0  0  0  0
   -3.0500    6.6314    2.8699 H   0  0  0  1  0  0  0  0  0  0  0  0
   -5.7686    4.5684    5.1101 H   0  0  0  1  0  0  0  0  0  0  0  0
   -4.9406    2.4631    4.2833 H   0  0  0  1  0  0  0  0  0  0  0  0
  1  3  4  0  0  0  0
  1 14  4  0  0  0  0
  1 21  1  0  0  0  0
  2 14  4  0  0  0  0
  2 15  4  0  0  0  0
  2 30  1  0  0  0  0
  3 16  4  0  0  0  0
  4  5  4  0  0  0  0
  4  7  4  0  0  0  0
  4 17  1  0  0  0  0
  5  9  4  0  0  0  0
  5 31  1  0  0  0  0
  6  7  4  0  0  0  0
  6  8  4  0  0  0  0
  6 32  1  0  0  0  0
  7 33  1  0  0  0  0
  8  9  4  0  0  0  0
  8 20  1  0  0  0  0
  9 34  1  0  0  0  0
 10 11  1  0  0  0  0
 10 21  1  0  0  0  0
 10 24  1  0  0  0  0
 10 35  1  0  0  0  0
 11 12  1  0  0  0  0
 11 36  1  0  0  0  0
 11 37  1  0  0  0  0
 12 23  1  0  0  0  0
 12 38  1  0  0  0  0
 12 39  1  0  0  0  0
 13 23  1  0  0  0  0
 13 25  4  0  0  0  0
 13 29  4  0  0  0  0
 15 16  4  0  0  0  0
 15 18  4  0  0  0  0
 16 17  4  0  0  0  0
 17 19  4  0  0  0  0
 18 19  4  0  0  0  0
 20 22  1  0  0  0  0
 21 40  1  0  0  0  0
 22 41  1  0  0  0  0
 22 42  1  0  0  0  0
 22 43  1  0  0  0  0
 23 24  1  0  0  0  0
 24 44  1  0  0  0  0
 24 45  1  0  0  0  0
 25 26  4  0  0  0  0
 25 46  1  0  0  0  0
 26 27  4  0  0  0  0
 26 47  1  0  0  0  0
 27 28  4  0  0  0  0
 28 29  4  0  0  0  0
 28 48  1  0  0  0  0
 29 49  1  0  0  0  0
M  END
> <ConfClashScore>
0 

> <ConfOneFourInteractionScore>
-0.983503 

> <ConfScore>
0.226483 

> <ConfScorePBest>
0.00140741 

> <ConfTolerance>
1.22832 

> <HETNAM>
     OWQ A 303  OWQ                                                       

> <pdb_OW>
Q_303 -16.5129 3.80749 7.62812 0.15963 1.39178 -0.28144 -3.20151 0 0 0 -1.30514 0 0 0 0 0 0 0 0 -8.31393

$$$$
6yky_lig_1.pdb
 OpenBabel04162415593D

 49 53  0  0  0  0  0  0  0  0999 V2000
    1.2727   -0.6492    1.4403 C   0  0  0  1  0  0  0  0  0  0  0  0
    1.5549   -2.8288    2.1324 C   0  0  0  1  0  0  0  0  0  0  0  0
    1.3183   -0.9730    0.1659 N   0  0  0  1  0  0  0  0  0  0  0  0
    1.5154   -2.4210   -2.7440 C   0  0  0  1  0  0  0  0  0  0  0  0
    2.3643   -1.3905   -3.1010 C   0  0  0  1  0  0  0  0  0  0  0  0
    0.5095   -2.3487   -4.9189 C   0  0  0  1  0  0  0  0  0  0  0  0
    0.5848   -2.8991   -3.6533 C   0  0  0  1  0  0  0  0  0  0  0  0
    1.3609   -1.3151   -5.2771 C   0  0  0  1  0  0  0  0  0  0  0  0
    2.2887   -0.8385   -4.3703 C   0  0  0  1  0  0  0  0  0  0  0  0
    0.9292    1.1661    3.1306 C   0  0  0  1  0  0  0  0  0  0  0  0
    0.0318    0.2661    3.9293 C   0  0  0  1  0  0  0  0  0  0  0  0
   -1.1004    1.1392    4.4054 C   0  0  0  1  0  0  0  0  0  0  0  0
   -2.2924    2.7506    2.8115 C   0  0  0  1  0  0  0  0  0  0  0  0
    1.3872   -1.5472    2.4031 N   0  0  0  1  0  0  0  0  0  0  0  0
    1.6107   -3.2294    0.7926 C   0  0  0  1  0  0  0  0  0  0  0  0
    1.4841   -2.2377   -0.2016 C   0  0  0  1  0  0  0  0  0  0  0  0
    1.5728   -2.8905   -1.3999 N   0  0  0  1  0  0  0  0  0  0  0  0
    1.7676   -4.4175    0.1691 N   0  0  0  1  0  0  0  0  0  0  0  0
    1.7496   -4.2512   -1.1074 N   0  0  0  1  0  0  0  0  0  0  0  0
    1.3764   -0.7033   -6.4670 O   0  0  0  1  0  0  0  0  0  0  0  0
    1.1043    0.6350    1.7749 N   0  0  0  1  0  0  0  0  0  0  0  0
    0.6222   -1.2254   -7.6122 C   0  0  0  1  0  0  0  0  0  0  0  0
   -1.1661    2.1920    3.3744 N   0  0  0  1  0  0  0  0  0  0  0  0
    0.2430    2.5133    3.0807 C   0  0  0  1  0  0  0  0  0  0  0  0
   -2.8252    2.2373    1.6435 C   0  0  0  1  0  0  0  0  0  0  0  0
   -3.9585    2.8256    1.1151 C   0  0  0  1  0  0  0  0  0  0  0  0
   -4.5709    3.8739    1.6740 N   0  0  0  1  0  0  0  0  0  0  0  0
   -4.0411    4.3641    2.8037 C   0  0  0  1  0  0  0  0  0  0  0  0
   -2.9115    3.8344    3.4029 C   0  0  0  1  0  0  0  0  0  0  0  0
    1.6438   -3.5260    2.8990 H   0  0  0  1  0  0  0  0  0  0  0  0
    3.0598   -1.0291   -2.4173 H   0  0  0  1  0  0  0  0  0  0  0  0
   -0.1860   -2.7101   -5.6025 H   0  0  0  1  0  0  0  0  0  0  0  0
   -0.0567   -3.6719   -3.3833 H   0  0  0  1  0  0  0  0  0  0  0  0
    2.9302   -0.0658   -4.6403 H   0  0  0  1  0  0  0  0  0  0  0  0
    1.8838    1.2539    3.6059 H   0  0  0  1  0  0  0  0  0  0  0  0
   -0.3415   -0.5278    3.3167 H   0  0  0  1  0  0  0  0  0  0  0  0
    0.5619   -0.1450    4.7629 H   0  0  0  1  0  0  0  0  0  0  0  0
   -0.8857    1.5562    5.3672 H   0  0  0  1  0  0  0  0  0  0  0  0
   -2.0168    0.5887    4.4513 H   0  0  0  1  0  0  0  0  0  0  0  0
    1.0974    1.2851    1.0416 H   0  0  0  1  0  0  0  0  0  0  0  0
   -0.0106   -2.0251   -7.2885 H   0  0  0  1  0  0  0  0  0  0  0  0
    1.3042   -1.5880   -8.3527 H   0  0  0  1  0  0  0  0  0  0  0  0
    0.0231   -0.4438   -8.0306 H   0  0  0  1  0  0  0  0  0  0  0  0
    0.6461    3.1754    3.8182 H   0  0  0  1  0  0  0  0  0  0  0  0
    0.3403    2.9564    2.1116 H   0  0  0  1  0  0  0  0  0  0  0  0
   -2.3815    1.4237    1.1715 H   0  0  0  1  0  0  0  0  0  0  0  0
   -4.3551    2.4326    0.2377 H   0  0  0  1  0  0  0  0  0  0  0  0
   -4.5012    5.1821    3.2516 H   0  0  0  1  0  0  0  0  0  0  0  0
   -2.5361    4.2447    4.2817 H   0  0  0  1  0  0  0  0  0  0  0  0
  1  3  4  0  0  0  0
  1 14  4  0  0  0  0
  1 21  1  0  0  0  0
  2 14  4  0  0  0  0
  2 15  4  0  0  0  0
  2 30  1  0  0  0  0
  3 16  4  0  0  0  0
  4  5  4  0  0  0  0
  4  7  4  0  0  0  0
  4 17  1  0  0  0  0
  5  9  4  0  0  0  0
  5 31  1  0  0  0  0
  6  7  4  0  0  0  0
  6  8  4  0  0  0  0
  6 32  1  0  0  0  0
  7 33  1  0  0  0  0
  8  9  4  0  0  0  0
  8 20  1  0  0  0  0
  9 34  1  0  0  0  0
 10 11  1  0  0  0  0
 10 21  1  0  0  0  0
 10 24  1  0  0  0  0
 10 35  1  0  0  0  0
 11 12  1  0  0  0  0
 11 36  1  0  0  0  0
 11 37  1  0  0  0  0
 12 23  1  0  0  0  0
 12 38  1  0  0  0  0
 12 39  1  0  0  0  0
 13 23  1  0  0  0  0
 13 25  4  0  0  0  0
 13 29  4  0  0  0  0
 15 16  4  0  0  0  0
 15 18  4  0  0  0  0
 16 17  4  0  0  0  0
 17 19  4  0  0  0  0
 18 19  4  0  0  0  0
 20 22  1  0  0  0  0
 21 40  1  0  0  0  0
 22 41  1  0  0  0  0
 22 42  1  0  0  0  0
 22 43  1  0  0  0  0
 23 24  1  0  0  0  0
 24 44  1  0  0  0  0
 24 45  1  0  0  0  0
 25 26  4  0  0  0  0
 25 46  1  0  0  0  0
 26 27  4  0  0  0  0
 26 47  1  0  0  0  0
 27 28  4  0  0  0  0
 28 29  4  0  0  0  0
 28 48  1  0  0  0  0
 29 49  1  0  0  0  0
M  END
> <ConfClashScore>
0 

> <ConfOneFourInteractionScore>
-0.982045 

> <ConfScore>
0.292366 

> <ConfScorePBest>
0.00139408 

> <ConfTolerance>
1.3901 

> <HETNAM>
     OWQ A 303  OWQ                                                       

> <pdb_OW>
Q_303 -16.5129 3.80749 7.62812 0.15963 1.39178 -0.28144 -3.20151 0 0 0 -1.30514 0 0 0 0 0 0 0 0 -8.31393

$$$$
6yky_lig_1.pdb
 OpenBabel04162415593D

 49 53  0  0  0  0  0  0  0  0999 V2000
    0.1787    0.0312    0.6965 C   0  0  0  1  0  0  0  0  0  0  0  0
   -1.9565   -0.2081   -0.1361 C   0  0  0  1  0  0  0  0  0  0  0  0
    0.7170   -0.6498   -0.2921 N   0  0  0  1  0  0  0  0  0  0  0  0
    1.3659   -2.4074   -2.9969 C   0  0  0  1  0  0  0  0  0  0  0  0
    1.7370   -3.7181   -2.7631 C   0  0  0  1  0  0  0  0  0  0  0  0
    3.3720   -2.0630   -4.2635 C   0  0  0  1  0  0  0  0  0  0  0  0
    2.1858   -1.5778   -3.7460 C   0  0  0  1  0  0  0  0  0  0  0  0
    3.7443   -3.3776   -4.0292 C   0  0  0  1  0  0  0  0  0  0  0  0
    2.9266   -4.2046   -3.2823 C   0  0  0  1  0  0  0  0  0  0  0  0
    0.4544    1.0900    2.8999 C   0  0  0  1  0  0  0  0  0  0  0  0
   -0.5579    0.1241    3.5418 C   0  0  0  1  0  0  0  0  0  0  0  0
   -1.6223    1.0378    4.1701 C   0  0  0  1  0  0  0  0  0  0  0  0
   -2.8426    2.8739    2.8803 C   0  0  0  1  0  0  0  0  0  0  0  0
   -1.1220    0.2502    0.7791 N   0  0  0  1  0  0  0  0  0  0  0  0
   -1.4376   -0.9396   -1.2104 C   0  0  0  1  0  0  0  0  0  0  0  0
   -0.0441   -1.1491   -1.2582 C   0  0  0  1  0  0  0  0  0  0  0  0
    0.1895   -1.8800   -2.3902 N   0  0  0  1  0  0  0  0  0  0  0  0
   -1.9799   -1.5395   -2.2926 N   0  0  0  1  0  0  0  0  0  0  0  0
   -1.0568   -2.0951   -2.9974 N   0  0  0  1  0  0  0  0  0  0  0  0
    4.9524   -3.8201   -4.4518 O   0  0  0  1  0  0  0  0  0  0  0  0
    0.9913    0.5299    1.6722 N   0  0  0  1  0  0  0  0  0  0  0  0
    5.7853   -2.8829   -5.1620 C   0  0  0  1  0  0  0  0  0  0  0  0
   -1.6711    2.1288    3.2023 N   0  0  0  1  0  0  0  0  0  0  0  0
   -0.3559    2.3530    2.6088 C   0  0  0  1  0  0  0  0  0  0  0  0
   -2.9796    3.4708    1.6408 C   0  0  0  1  0  0  0  0  0  0  0  0
   -4.1336    4.1808    1.3689 C   0  0  0  1  0  0  0  0  0  0  0  0
   -5.1312    4.3257    2.2464 N   0  0  0  1  0  0  0  0  0  0  0  0
   -4.9831    3.7453    3.4458 C   0  0  0  1  0  0  0  0  0  0  0  0
   -3.8632    3.0137    3.8004 C   0  0  0  1  0  0  0  0  0  0  0  0
   -2.9782   -0.0292   -0.0599 H   0  0  0  1  0  0  0  0  0  0  0  0
    1.1237   -4.3393   -2.1978 H   0  0  0  1  0  0  0  0  0  0  0  0
    3.9852   -1.4419   -4.8289 H   0  0  0  1  0  0  0  0  0  0  0  0
    1.9084   -0.5905   -3.9185 H   0  0  0  1  0  0  0  0  0  0  0  0
    3.2039   -5.1919   -3.1098 H   0  0  0  1  0  0  0  0  0  0  0  0
    1.2560    1.3022    3.5761 H   0  0  0  1  0  0  0  0  0  0  0  0
   -0.0848   -0.4751    4.2914 H   0  0  0  1  0  0  0  0  0  0  0  0
   -0.9958   -0.5112    2.8005 H   0  0  0  1  0  0  0  0  0  0  0  0
   -1.3197    1.3846    5.1360 H   0  0  0  1  0  0  0  0  0  0  0  0
   -2.5671    0.5416    4.2486 H   0  0  0  1  0  0  0  0  0  0  0  0
    1.9623    0.5097    1.5413 H   0  0  0  1  0  0  0  0  0  0  0  0
    6.3401   -2.2954   -4.4607 H   0  0  0  1  0  0  0  0  0  0  0  0
    5.1711   -2.2407   -5.7580 H   0  0  0  1  0  0  0  0  0  0  0  0
    6.4631   -3.4169   -5.7948 H   0  0  0  1  0  0  0  0  0  0  0  0
    0.1124    3.2064    3.0530 H   0  0  0  1  0  0  0  0  0  0  0  0
   -0.4446    2.5033    1.5531 H   0  0  0  1  0  0  0  0  0  0  0  0
   -2.2284    3.3872    0.9265 H   0  0  0  1  0  0  0  0  0  0  0  0
   -4.2308    4.6250    0.4336 H   0  0  0  1  0  0  0  0  0  0  0  0
   -5.7470    3.8500    4.1437 H   0  0  0  1  0  0  0  0  0  0  0  0
   -3.7914    2.5774    4.7418 H   0  0  0  1  0  0  0  0  0  0  0  0
  1  3  4  0  0  0  0
  1 14  4  0  0  0  0
  1 21  1  0  0  0  0
  2 14  4  0  0  0  0
  2 15  4  0  0  0  0
  2 30  1  0  0  0  0
  3 16  4  0  0  0  0
  4  5  4  0  0  0  0
  4  7  4  0  0  0  0
  4 17  1  0  0  0  0
  5  9  4  0  0  0  0
  5 31  1  0  0  0  0
  6  7  4  0  0  0  0
  6  8  4  0  0  0  0
  6 32  1  0  0  0  0
  7 33  1  0  0  0  0
  8  9  4  0  0  0  0
  8 20  1  0  0  0  0
  9 34  1  0  0  0  0
 10 11  1  0  0  0  0
 10 21  1  0  0  0  0
 10 24  1  0  0  0  0
 10 35  1  0  0  0  0
 11 12  1  0  0  0  0
 11 36  1  0  0  0  0
 11 37  1  0  0  0  0
 12 23  1  0  0  0  0
 12 38  1  0  0  0  0
 12 39  1  0  0  0  0
 13 23  1  0  0  0  0
 13 25  4  0  0  0  0
 13 29  4  0  0  0  0
 15 16  4  0  0  0  0
 15 18  4  0  0  0  0
 16 17  4  0  0  0  0
 17 19  4  0  0  0  0
 18 19  4  0  0  0  0
 20 22  1  0  0  0  0
 21 40  1  0  0  0  0
 22 41  1  0  0  0  0
 22 42  1  0  0  0  0
 22 43  1  0  0  0  0
 23 24  1  0  0  0  0
 24 44  1  0  0  0  0
 24 45  1  0  0  0  0
 25 26  4  0  0  0  0
 25 46  1  0  0  0  0
 26 27  4  0  0  0  0
 26 47  1  0  0  0  0
 27 28  4  0  0  0  0
 28 29  4  0  0  0  0
 28 48  1  0  0  0  0
 29 49  1  0  0  0  0
M  END
> <ConfClashScore>
0 

> <ConfOneFourInteractionScore>
-0.988311 

> <ConfScore>
0.336321 

> <ConfScorePBest>
0.00138075 

> <ConfTolerance>
1.34792 

> <HETNAM>
     OWQ A 303  OWQ                                                       

> <pdb_OW>
Q_303 -16.5129 3.80749 7.62812 0.15963 1.39178 -0.28144 -3.20151 0 0 0 -1.30514 0 0 0 0 0 0 0 0 -8.31393

$$$$
6yky_lig_1.pdb
 OpenBabel04162415593D

 49 53  0  0  0  0  0  0  0  0999 V2000
    2.1808    0.4338   -1.9305 C   0  0  0  1  0  0  0  0  0  0  0  0
    3.4226   -1.0097   -3.2281 C   0  0  0  1  0  0  0  0  0  0  0  0
    1.8388   -0.5109   -1.0810 N   0  0  0  1  0  0  0  0  0  0  0  0
    1.3752   -3.2567    0.6068 C   0  0  0  1  0  0  0  0  0  0  0  0
    2.0069   -3.2227    1.8356 C   0  0  0  1  0  0  0  0  0  0  0  0
   -0.6152   -4.0909    1.6506 C   0  0  0  1  0  0  0  0  0  0  0  0
    0.0631   -3.6940    0.5137 C   0  0  0  1  0  0  0  0  0  0  0  0
    0.0183   -4.0569    2.8832 C   0  0  0  1  0  0  0  0  0  0  0  0
    1.3266   -3.6208    2.9758 C   0  0  0  1  0  0  0  0  0  0  0  0
    0.9518    2.1369   -0.6232 C   0  0  0  1  0  0  0  0  0  0  0  0
   -0.1905    1.1523   -0.3265 C   0  0  0  1  0  0  0  0  0  0  0  0
   -1.1817    2.0314    0.4152 C   0  0  0  1  0  0  0  0  0  0  0  0
   -2.3939    3.8096   -1.0150 C   0  0  0  1  0  0  0  0  0  0  0  0
    2.9514    0.1984   -2.9780 N   0  0  0  1  0  0  0  0  0  0  0  0
    3.0901   -2.0528   -2.3564 C   0  0  0  1  0  0  0  0  0  0  0  0
    2.2654   -1.7562   -1.2518 C   0  0  0  1  0  0  0  0  0  0  0  0
    2.0997   -2.9339   -0.5770 N   0  0  0  1  0  0  0  0  0  0  0  0
    3.3841   -3.3704   -2.3065 N   0  0  0  1  0  0  0  0  0  0  0  0
    2.8213   -3.9092   -1.2815 N   0  0  0  1  0  0  0  0  0  0  0  0
   -0.7412   -4.4726    3.9201 O   0  0  0  1  0  0  0  0  0  0  0  0
    1.7504    1.6968   -1.7604 N   0  0  0  1  0  0  0  0  0  0  0  0
   -0.1420   -4.6348    5.2152 C   0  0  0  1  0  0  0  0  0  0  0  0
   -1.2354    3.1427   -0.5526 N   0  0  0  1  0  0  0  0  0  0  0  0
    0.1776    3.4238   -0.9473 C   0  0  0  1  0  0  0  0  0  0  0  0
   -3.4951    3.0929   -1.4455 C   0  0  0  1  0  0  0  0  0  0  0  0
   -4.6077    3.7844   -1.8856 C   0  0  0  1  0  0  0  0  0  0  0  0
   -4.6771    5.1186   -1.9211 N   0  0  0  1  0  0  0  0  0  0  0  0
   -3.6007    5.8008   -1.5049 C   0  0  0  1  0  0  0  0  0  0  0  0
   -2.4472    5.1894   -1.0453 C   0  0  0  1  0  0  0  0  0  0  0  0
    4.0282   -1.1824   -4.0558 H   0  0  0  1  0  0  0  0  0  0  0  0
    2.9927   -2.8984    1.9048 H   0  0  0  1  0  0  0  0  0  0  0  0
   -1.6009   -4.4152    1.5814 H   0  0  0  1  0  0  0  0  0  0  0  0
   -0.4109   -3.7233   -0.4116 H   0  0  0  1  0  0  0  0  0  0  0  0
    1.8006   -3.5914    3.9010 H   0  0  0  1  0  0  0  0  0  0  0  0
    1.5855    2.2673    0.2291 H   0  0  0  1  0  0  0  0  0  0  0  0
   -0.6143    0.7654   -1.2295 H   0  0  0  1  0  0  0  0  0  0  0  0
    0.1447    0.3419    0.2866 H   0  0  0  1  0  0  0  0  0  0  0  0
   -2.1320    1.5554    0.5386 H   0  0  0  1  0  0  0  0  0  0  0  0
   -0.8117    2.3430    1.3697 H   0  0  0  1  0  0  0  0  0  0  0  0
    1.9878    2.3604   -2.4414 H   0  0  0  1  0  0  0  0  0  0  0  0
    0.9013   -4.8437    5.1024 H   0  0  0  1  0  0  0  0  0  0  0  0
   -0.6147   -5.4467    5.7274 H   0  0  0  1  0  0  0  0  0  0  0  0
   -0.2663   -3.7350    5.7806 H   0  0  0  1  0  0  0  0  0  0  0  0
    0.2379    3.6444   -1.9926 H   0  0  0  1  0  0  0  0  0  0  0  0
    0.5670    4.2471   -0.3856 H   0  0  0  1  0  0  0  0  0  0  0  0
   -3.4863    2.0530   -1.4383 H   0  0  0  1  0  0  0  0  0  0  0  0
   -5.4331    3.2387   -2.2056 H   0  0  0  1  0  0  0  0  0  0  0  0
   -3.6340    6.8400   -1.5286 H   0  0  0  1  0  0  0  0  0  0  0  0
   -1.6361    5.7582   -0.7288 H   0  0  0  1  0  0  0  0  0  0  0  0
  1  3  4  0  0  0  0
  1 14  4  0  0  0  0
  1 21  1  0  0  0  0
  2 14  4  0  0  0  0
  2 15  4  0  0  0  0
  2 30  1  0  0  0  0
  3 16  4  0  0  0  0
  4  5  4  0  0  0  0
  4  7  4  0  0  0  0
  4 17  1  0  0  0  0
  5  9  4  0  0  0  0
  5 31  1  0  0  0  0
  6  7  4  0  0  0  0
  6  8  4  0  0  0  0
  6 32  1  0  0  0  0
  7 33  1  0  0  0  0
  8  9  4  0  0  0  0
  8 20  1  0  0  0  0
  9 34  1  0  0  0  0
 10 11  1  0  0  0  0
 10 21  1  0  0  0  0
 10 24  1  0  0  0  0
 10 35  1  0  0  0  0
 11 12  1  0  0  0  0
 11 36  1  0  0  0  0
 11 37  1  0  0  0  0
 12 23  1  0  0  0  0
 12 38  1  0  0  0  0
 12 39  1  0  0  0  0
 13 23  1  0  0  0  0
 13 25  4  0  0  0  0
 13 29  4  0  0  0  0
 15 16  4  0  0  0  0
 15 18  4  0  0  0  0
 16 17  4  0  0  0  0
 17 19  4  0  0  0  0
 18 19  4  0  0  0  0
 20 22  1  0  0  0  0
 21 40  1  0  0  0  0
 22 41  1  0  0  0  0
 22 42  1  0  0  0  0
 22 43  1  0  0  0  0
 23 24  1  0  0  0  0
 24 44  1  0  0  0  0
 24 45  1  0  0  0  0
 25 26  4  0  0  0  0
 25 46  1  0  0  0  0
 26 27  4  0  0  0  0
 26 47  1  0  0  0  0
 27 28  4  0  0  0  0
 28 29  4  0  0  0  0
 28 48  1  0  0  0  0
 29 49  1  0  0  0  0
M  END
> <ConfClashScore>
0 

> <ConfOneFourInteractionScore>
-0.99264 

> <ConfScore>
0.360867 

> <ConfScorePBest>
0.00136743 

> <ConfTolerance>
1.37872 

> <HETNAM>
     OWQ A 303  OWQ                                                       

> <pdb_OW>
Q_303 -16.5129 3.80749 7.62812 0.15963 1.39178 -0.28144 -3.20151 0 0 0 -1.30514 0 0 0 0 0 0 0 0 -8.31393

$$$$
6yky_lig_1.pdb
 OpenBabel04162415593D

 49 53  0  0  0  0  0  0  0  0999 V2000
    3.3601   -1.2053   -0.8540 C   0  0  0  1  0  0  0  0  0  0  0  0
    3.5243   -1.6017   -3.1179 C   0  0  0  1  0  0  0  0  0  0  0  0
    2.0557   -1.0419   -0.9050 N   0  0  0  1  0  0  0  0  0  0  0  0
   -1.0867   -0.7605   -1.7111 C   0  0  0  1  0  0  0  0  0  0  0  0
   -1.8314    0.3671   -2.0010 C   0  0  0  1  0  0  0  0  0  0  0  0
   -2.5466   -1.2555    0.1249 C   0  0  0  1  0  0  0  0  0  0  0  0
   -1.4431   -1.5716   -0.6450 C   0  0  0  1  0  0  0  0  0  0  0  0
   -3.2936   -0.1245   -0.1657 C   0  0  0  1  0  0  0  0  0  0  0  0
   -2.9380    0.6840   -1.2288 C   0  0  0  1  0  0  0  0  0  0  0  0
    3.3292   -0.6470    1.5512 C   0  0  0  1  0  0  0  0  0  0  0  0
    2.2449   -1.6505    1.9839 C   0  0  0  1  0  0  0  0  0  0  0  0
    1.1321   -0.7822    2.5923 C   0  0  0  1  0  0  0  0  0  0  0  0
    0.0811    1.1962    1.3852 C   0  0  0  1  0  0  0  0  0  0  0  0
    4.0817   -1.4780   -1.9271 N   0  0  0  1  0  0  0  0  0  0  0  0
    2.1389   -1.4377   -3.2301 C   0  0  0  1  0  0  0  0  0  0  0  0
    1.4088   -1.1477   -2.0593 C   0  0  0  1  0  0  0  0  0  0  0  0
    0.1018   -1.0390   -2.4463 N   0  0  0  1  0  0  0  0  0  0  0  0
    1.2628   -1.4917   -4.2570 N   0  0  0  1  0  0  0  0  0  0  0  0
    0.0695   -1.2636   -3.8308 N   0  0  0  1  0  0  0  0  0  0  0  0
   -4.3790    0.2428    0.5499 O   0  0  0  1  0  0  0  0  0  0  0  0
    3.9832   -1.0911    0.3327 N   0  0  0  1  0  0  0  0  0  0  0  0
   -5.0439    1.4780    0.2423 C   0  0  0  1  0  0  0  0  0  0  0  0
    1.1960    0.4024    1.7427 N   0  0  0  1  0  0  0  0  0  0  0  0
    2.5678    0.6567    1.3118 C   0  0  0  1  0  0  0  0  0  0  0  0
    0.0274    1.8220    0.1535 C   0  0  0  1  0  0  0  0  0  0  0  0
   -1.0823    2.5850   -0.1565 C   0  0  0  1  0  0  0  0  0  0  0  0
   -2.1134    2.7549    0.6767 N   0  0  0  1  0  0  0  0  0  0  0  0
   -2.0461    2.1459    1.8691 C   0  0  0  1  0  0  0  0  0  0  0  0
   -0.9751    1.3611    2.2598 C   0  0  0  1  0  0  0  0  0  0  0  0
    4.1028   -1.8164   -3.9551 H   0  0  0  1  0  0  0  0  0  0  0  0
   -1.5615    0.9778   -2.7984 H   0  0  0  1  0  0  0  0  0  0  0  0
   -2.8164   -1.8662    0.9223 H   0  0  0  1  0  0  0  0  0  0  0  0
   -0.8803   -2.4179   -0.4245 H   0  0  0  1  0  0  0  0  0  0  0  0
   -3.5008    1.5303   -1.4493 H   0  0  0  1  0  0  0  0  0  0  0  0
    4.0592   -0.5225    2.3235 H   0  0  0  1  0  0  0  0  0  0  0  0
    2.6313   -2.3333    2.7115 H   0  0  0  1  0  0  0  0  0  0  0  0
    1.8784   -2.1972    1.1402 H   0  0  0  1  0  0  0  0  0  0  0  0
    0.1786   -1.2627    2.5229 H   0  0  0  1  0  0  0  0  0  0  0  0
    1.3376   -0.5423    3.6146 H   0  0  0  1  0  0  0  0  0  0  0  0
    4.9348   -1.3210    0.3777 H   0  0  0  1  0  0  0  0  0  0  0  0
   -4.5367    2.2866    0.7258 H   0  0  0  1  0  0  0  0  0  0  0  0
   -6.0555    1.4340    0.5882 H   0  0  0  1  0  0  0  0  0  0  0  0
   -5.0348    1.6337   -0.8163 H   0  0  0  1  0  0  0  0  0  0  0  0
    2.5901    0.9156    0.2739 H   0  0  0  1  0  0  0  0  0  0  0  0
    2.9977    1.4499    1.8871 H   0  0  0  1  0  0  0  0  0  0  0  0
    0.8075    1.7206   -0.5268 H   0  0  0  1  0  0  0  0  0  0  0  0
   -1.1169    3.0507   -1.0857 H   0  0  0  1  0  0  0  0  0  0  0  0
   -2.8371    2.2693    2.5329 H   0  0  0  1  0  0  0  0  0  0  0  0
   -0.9659    0.9043    3.1940 H   0  0  0  1  0  0  0  0  0  0  0  0
  1  3  4  0  0  0  0
  1 14  4  0  0  0  0
  1 21  1  0  0  0  0
  2 14  4  0  0  0  0
  2 15  4  0  0  0  0
  2 30  1  0  0  0  0
  3 16  4  0  0  0  0
  4  5  4  0  0  0  0
  4  7  4  0  0  0  0
  4 17  1  0  0  0  0
  5  9  4  0  0  0  0
  5 31  1  0  0  0  0
  6  7  4  0  0  0  0
  6  8  4  0  0  0  0
  6 32  1  0  0  0  0
  7 33  1  0  0  0  0
  8  9  4  0  0  0  0
  8 20  1  0  0  0  0
  9 34  1  0  0  0  0
 10 11  1  0  0  0  0
 10 21  1  0  0  0  0
 10 24  1  0  0  0  0
 10 35  1  0  0  0  0
 11 12  1  0  0  0  0
 11 36  1  0  0  0  0
 11 37  1  0  0  0  0
 12 23  1  0  0  0  0
 12 38  1  0  0  0  0
 12 39  1  0  0  0  0
 13 23  1  0  0  0  0
 13 25  4  0  0  0  0
 13 29  4  0  0  0  0
 15 16  4  0  0  0  0
 15 18  4  0  0  0  0
 16 17  4  0  0  0  0
 17 19  4  0  0  0  0
 18 19  4  0  0  0  0
 20 22  1  0  0  0  0
 21 40  1  0  0  0  0
 22 41  1  0  0  0  0
 22 42  1  0  0  0  0
 22 43  1  0  0  0  0
 23 24  1  0  0  0  0
 24 44  1  0  0  0  0
 24 45  1  0  0  0  0
 25 26  4  0  0  0  0
 25 46  1  0  0  0  0
 26 27  4  0  0  0  0
 26 47  1  0  0  0  0
 27 28  4  0  0  0  0
 28 29  4  0  0  0  0
 28 48  1  0  0  0  0
 29 49  1  0  0  0  0
M  END
> <ConfClashScore>
0.000761177 

> <ConfOneFourInteractionScore>
-0.983503 

> <ConfScore>
0.39249 

> <ConfScorePBest>
0.0013541 

> <ConfTolerance>
1.77853 

> <HETNAM>
     OWQ A 303  OWQ                                                       

> <pdb_OW>
Q_303 -16.5129 3.80749 7.62812 0.15963 1.39178 -0.28144 -3.20151 0 0 0 -1.30514 0 0 0 0 0 0 0 0 -8.31393

$$$$
6yky_lig_1.pdb
 OpenBabel04162415593D

 49 53  0  0  0  0  0  0  0  0999 V2000
   -0.5196   -1.5210   -0.0970 C   0  0  0  1  0  0  0  0  0  0  0  0
   -0.0587   -3.6414    0.6781 C   0  0  0  1  0  0  0  0  0  0  0  0
    0.7036   -1.3427   -0.5474 N   0  0  0  1  0  0  0  0  0  0  0  0
    3.9002   -1.5505   -1.3260 C   0  0  0  1  0  0  0  0  0  0  0  0
    5.2189   -1.9642   -1.3303 C   0  0  0  1  0  0  0  0  0  0  0  0
    4.5590    0.5667   -2.2375 C   0  0  0  1  0  0  0  0  0  0  0  0
    3.5700   -0.2823   -1.7777 C   0  0  0  1  0  0  0  0  0  0  0  0
    5.8817    0.1519   -2.2418 C   0  0  0  1  0  0  0  0  0  0  0  0
    6.2107   -1.1127   -1.7914 C   0  0  0  1  0  0  0  0  0  0  0  0
   -2.0633    0.0514    0.9537 C   0  0  0  1  0  0  0  0  0  0  0  0
   -3.0691   -0.9447    1.5724 C   0  0  0  1  0  0  0  0  0  0  0  0
   -4.2712   -0.1545    2.0243 C   0  0  0  1  0  0  0  0  0  0  0  0
   -4.9564    2.2197    1.3207 C   0  0  0  1  0  0  0  0  0  0  0  0
   -0.8980   -2.6373    0.5007 N   0  0  0  1  0  0  0  0  0  0  0  0
    1.2560   -3.5057    0.2181 C   0  0  0  1  0  0  0  0  0  0  0  0
    1.6159   -2.2975   -0.4135 C   0  0  0  1  0  0  0  0  0  0  0  0
    2.9327   -2.4291   -0.7582 N   0  0  0  1  0  0  0  0  0  0  0  0
    2.3465   -4.3030    0.2300 N   0  0  0  1  0  0  0  0  0  0  0  0
    3.3375   -3.7027   -0.3314 N   0  0  0  1  0  0  0  0  0  0  0  0
    6.8514    0.9856   -2.6874 O   0  0  0  1  0  0  0  0  0  0  0  0
   -1.4440   -0.5042   -0.2540 N   0  0  0  1  0  0  0  0  0  0  0  0
    8.2130    0.5830   -2.4719 C   0  0  0  1  0  0  0  0  0  0  0  0
   -4.0484    1.1813    1.2819 N   0  0  0  1  0  0  0  0  0  0  0  0
   -2.9376    1.2441    0.6201 C   0  0  0  1  0  0  0  0  0  0  0  0
   -4.6917    3.2243    2.2330 C   0  0  0  1  0  0  0  0  0  0  0  0
   -5.5632    4.2935    2.3157 C   0  0  0  1  0  0  0  0  0  0  0  0
   -6.6582    4.4093    1.5583 N   0  0  0  1  0  0  0  0  0  0  0  0
   -6.9050    3.4260    0.6812 C   0  0  0  1  0  0  0  0  0  0  0  0
   -6.0842    2.3220    0.5299 C   0  0  0  1  0  0  0  0  0  0  0  0
   -0.3685   -4.5149    1.1500 H   0  0  0  1  0  0  0  0  0  0  0  0
    5.4670   -2.9143   -0.9877 H   0  0  0  1  0  0  0  0  0  0  0  0
    4.3109    1.5167   -2.5801 H   0  0  0  1  0  0  0  0  0  0  0  0
    2.5781    0.0304   -1.7707 H   0  0  0  1  0  0  0  0  0  0  0  0
    7.2026   -1.4254   -1.7984 H   0  0  0  1  0  0  0  0  0  0  0  0
   -1.3011    0.3164    1.6563 H   0  0  0  1  0  0  0  0  0  0  0  0
   -2.6234   -1.4415    2.4087 H   0  0  0  1  0  0  0  0  0  0  0  0
   -3.3622   -1.6690    0.8413 H   0  0  0  1  0  0  0  0  0  0  0  0
   -5.1845   -0.6231    1.7224 H   0  0  0  1  0  0  0  0  0  0  0  0
   -4.2738   -0.0174    3.0855 H   0  0  0  1  0  0  0  0  0  0  0  0
   -1.6776   -0.1659   -1.1436 H   0  0  0  1  0  0  0  0  0  0  0  0
    8.8551    1.1265   -3.1331 H   0  0  0  1  0  0  0  0  0  0  0  0
    8.3092   -0.4653   -2.6633 H   0  0  0  1  0  0  0  0  0  0  0  0
    8.4891    0.7879   -1.4586 H   0  0  0  1  0  0  0  0  0  0  0  0
   -2.4215    2.1447    0.8801 H   0  0  0  1  0  0  0  0  0  0  0  0
   -3.1503    1.2444   -0.4286 H   0  0  0  1  0  0  0  0  0  0  0  0
   -3.8525    3.1762    2.8454 H   0  0  0  1  0  0  0  0  0  0  0  0
   -5.3563    5.0466    3.0025 H   0  0  0  1  0  0  0  0  0  0  0  0
   -7.7545    3.4961    0.0854 H   0  0  0  1  0  0  0  0  0  0  0  0
   -6.3122    1.5835   -0.1659 H   0  0  0  1  0  0  0  0  0  0  0  0
  1  3  4  0  0  0  0
  1 14  4  0  0  0  0
  1 21  1  0  0  0  0
  2 14  4  0  0  0  0
  2 15  4  0  0  0  0
  2 30  1  0  0  0  0
  3 16  4  0  0  0  0
  4  5  4  0  0  0  0
  4  7  4  0  0  0  0
  4 17  1  0  0  0  0
  5  9  4  0  0  0  0
  5 31  1  0  0  0  0
  6  7  4  0  0  0  0
  6  8  4  0  0  0  0
  6 32  1  0  0  0  0
  7 33  1  0  0  0  0
  8  9  4  0  0  0  0
  8 20  1  0  0  0  0
  9 34  1  0  0  0  0
 10 11  1  0  0  0  0
 10 21  1  0  0  0  0
 10 24  1  0  0  0  0
 10 35  1  0  0  0  0
 11 12  1  0  0  0  0
 11 36  1  0  0  0  0
 11 37  1  0  0  0  0
 12 23  1  0  0  0  0
 12 38  1  0  0  0  0
 12 39  1  0  0  0  0
 13 23  1  0  0  0  0
 13 25  4  0  0  0  0
 13 29  4  0  0  0  0
 15 16  4  0  0  0  0
 15 18  4  0  0  0  0
 16 17  4  0  0  0  0
 17 19  4  0  0  0  0
 18 19  4  0  0  0  0
 20 22  1  0  0  0  0
 21 40  1  0  0  0  0
 22 41  1  0  0  0  0
 22 42  1  0  0  0  0
 22 43  1  0  0  0  0
 23 24  1  0  0  0  0
 24 44  1  0  0  0  0
 24 45  1  0  0  0  0
 25 26  4  0  0  0  0
 25 46  1  0  0  0  0
 26 27  4  0  0  0  0
 26 47  1  0  0  0  0
 27 28  4  0  0  0  0
 28 29  4  0  0  0  0
 28 48  1  0  0  0  0
 29 49  1  0  0  0  0
M  END
> <ConfClashScore>
0 

> <ConfOneFourInteractionScore>
-0.981795 

> <ConfScore>
0.57851 

> <ConfScorePBest>
0.00134077 

> <ConfTolerance>
3.84237 

> <HETNAM>
     OWQ A 303  OWQ                                                       

> <pdb_OW>
Q_303 -16.5129 3.80749 7.62812 0.15963 1.39178 -0.28144 -3.20151 0 0 0 -1.30514 0 0 0 0 0 0 0 0 -8.31393

$$$$
