6yky_lig_1.pdb
 OpenBabel04162415593D

 49 53  0  0  1  0  0  0  0  0999 V2000
   25.1600    1.8800  -65.3580 C   0  0  0  0  0  0  0  0  0  0  0  0
   26.9190    0.5030  -65.9260 C   0  0  0  0  0  0  0  0  0  0  0  0
   25.4860    1.9080  -64.0670 N   0  0  0  0  0  0  0  0  0  0  0  0
   26.6660    1.5400  -61.1820 C   0  0  0  0  0  0  0  0  0  0  0  0
   27.1430    0.8880  -60.0490 C   0  0  0  0  0  0  0  0  0  0  0  0
   25.2450    2.9240  -59.7730 C   0  0  0  0  0  0  0  0  0  0  0  0
   25.6920    2.5520  -61.0460 C   0  0  0  0  0  0  0  0  0  0  0  0
   25.7330    2.2470  -58.6390 C   0  0  0  0  0  0  0  0  0  0  0  0
   26.6770    1.2430  -58.7880 C   0  0  0  0  0  0  0  0  0  0  0  0
   23.1790    3.0410  -64.6660 C   0  0  1  0  0  0  0  0  0  0  0  0
   22.1430    1.9870  -64.2440 C   0  0  0  0  0  0  0  0  0  0  0  0
   21.0250    2.8650  -63.6610 C   0  0  0  0  0  0  0  0  0  0  0  0
   20.3170    5.1090  -64.3270 C   0  0  0  0  0  0  0  0  0  0  0  0
   25.8310    1.1800  -66.2710 N   0  0  0  0  0  0  0  0  0  0  0  0
   27.3100    0.4970  -64.5790 C   0  0  0  0  0  0  0  0  0  0  0  0
   26.5370    1.2320  -63.6440 C   0  0  0  0  0  0  0  0  0  0  0  0
   27.1220    1.0690  -62.4250 N   0  0  0  0  0  0  0  0  0  0  0  0
   28.3170   -0.0780  -63.9040 N   0  0  0  0  0  0  0  0  0  0  0  0
   28.2130    0.2110  -62.6520 N   0  0  0  0  0  0  0  0  0  0  0  0
   25.3680    2.5410  -57.3540 O   0  0  0  0  0  0  0  0  0  0  0  0
   24.0360    2.5570  -65.7340 N   0  0  0  0  0  0  0  0  0  0  0  0
   24.0040    2.8570  -57.0080 C   0  0  0  0  0  0  0  0  0  0  0  0
   21.3850    4.2640  -64.0410 N   0  0  0  0  0  0  0  0  0  0  0  0
   22.2970    4.1580  -65.1950 C   0  0  0  0  0  0  0  0  0  0  0  0
   19.0480    4.6150  -64.7000 C   0  0  0  0  0  0  0  0  0  0  0  0
   18.0480    5.5180  -64.9880 C   0  0  0  0  0  0  0  0  0  0  0  0
   18.3090    6.8200  -64.8920 N   0  0  0  0  0  0  0  0  0  0  0  0
   19.4750    7.3440  -64.5320 C   0  0  0  0  0  0  0  0  0  0  0  0
   20.5230    6.5010  -64.2420 C   0  0  0  0  0  0  0  0  0  0  0  0
   27.4930   -0.0340  -66.6680 H   0  0  0  0  0  0  0  0  0  0  0  0
   27.8790    0.1030  -60.1470 H   0  0  0  0  0  0  0  0  0  0  0  0
   24.5300    3.7250  -59.6570 H   0  0  0  0  0  0  0  0  0  0  0  0
   25.3220    3.0660  -61.9200 H   0  0  0  0  0  0  0  0  0  0  0  0
   27.0490    0.7330  -57.9120 H   0  0  0  0  0  0  0  0  0  0  0  0
   23.7740    3.3490  -63.8050 H   0  0  0  0  0  0  0  0  0  0  0  0
   21.8060    1.4210  -65.1120 H   0  0  0  0  0  0  0  0  0  0  0  0
   22.5680    1.3180  -63.4950 H   0  0  0  0  0  0  0  0  0  0  0  0
   20.0660    2.5810  -64.0940 H   0  0  0  0  0  0  0  0  0  0  0  0
   20.9910    2.7520  -62.5770 H   0  0  0  0  0  0  0  0  0  0  0  0
   23.8440    2.6930  -66.6750 H   0  0  0  0  0  0  0  0  0  0  0  0
   23.3610    2.0140  -57.2600 H   0  0  0  0  0  0  0  0  0  0  0  0
   23.9370    3.0580  -55.9380 H   0  0  0  0  0  0  0  0  0  0  0  0
   23.6830    3.7380  -57.5640 H   0  0  0  0  0  0  0  0  0  0  0  0
   22.9040    5.0580  -65.2890 H   0  0  0  0  0  0  0  0  0  0  0  0
   21.7370    3.9730  -66.1120 H   0  0  0  0  0  0  0  0  0  0  0  0
   18.8710    3.5510  -64.7580 H   0  0  0  0  0  0  0  0  0  0  0  0
   17.0740    5.1590  -65.2840 H   0  0  0  0  0  0  0  0  0  0  0  0
   19.5810    8.4170  -64.4720 H   0  0  0  0  0  0  0  0  0  0  0  0
   21.4810    6.9010  -63.9420 H   0  0  0  0  0  0  0  0  0  0  0  0
  1  3  2  0  0  0  0
  2 15  1  0  0  0  0
  3 16  1  0  0  0  0
  4  7  2  0  0  0  0
  4  5  1  0  0  0  0
  5  9  2  0  0  0  0
  6 32  1  0  0  0  0
  6  8  2  0  0  0  0
  7  6  1  0  0  0  0
  8 20  1  0  0  0  0
  9  8  1  0  0  0  0
  9 34  1  0  0  0  0
 10 11  1  0  0  0  0
 10 35  1  1  0  0  0
 11 12  1  0  0  0  0
 11 37  1  0  0  0  0
 12 39  1  0  0  0  0
 13 29  1  0  0  0  0
 13 23  1  0  0  0  0
 14  2  2  0  0  0  0
 14  1  1  0  0  0  0
 15 18  1  0  0  0  0
 15 16  2  0  0  0  0
 16 17  1  0  0  0  0
 17  4  1  0  0  0  0
 18 19  2  0  0  0  0
 19 17  1  0  0  0  0
 20 22  1  0  0  0  0
 21  1  1  0  0  0  0
 21 10  1  0  0  0  0
 22 42  1  0  0  0  0
 23 12  1  0  0  0  0
 24 10  1  0  0  0  0
 24 23  1  0  0  0  0
 25 13  2  0  0  0  0
 26 27  2  0  0  0  0
 26 25  1  0  0  0  0
 27 28  1  0  0  0  0
 28 48  1  0  0  0  0
 28 29  2  0  0  0  0
 29 49  1  0  0  0  0
 30  2  1  0  0  0  0
 31  5  1  0  0  0  0
 33  7  1  0  0  0  0
 36 11  1  0  0  0  0
 38 12  1  0  0  0  0
 40 21  1  0  0  0  0
 41 22  1  0  0  0  0
 43 22  1  0  0  0  0
 44 24  1  0  0  0  0
 45 24  1  0  0  0  0
 46 25  1  0  0  0  0
 47 26  1  0  0  0  0
M  END
>  <HETNAM>
     OWQ A 303  OWQ                                                       

>  <pdb_OW>
Q_303 -16.5129 3.80749 7.62812 0.15963 1.39178 -0.28144 -3.20151 0 0 0 -1.30514 0 0 0 0 0 0 0 0 -8.31393

$$$$
