6yky_lig_1.pdb
 OpenBabel04162415593D

 49 53  0  0  0  0  0  0  0  0999 V2000
   25.1047    1.8135  -65.3760 C   0  0  0  1  0  0  0  0  0  0  0  0
   26.9167    0.5034  -65.9326 C   0  0  0  1  0  0  0  0  0  0  0  0
   25.4177    1.8283  -64.0982 N   0  0  0  1  0  0  0  0  0  0  0  0
   26.7238    1.3638  -61.1072 C   0  0  0  1  0  0  0  0  0  0  0  0
   25.8810    2.4355  -60.8808 C   0  0  0  1  0  0  0  0  0  0  0  0
   27.0201    1.0945  -58.7436 C   0  0  0  1  0  0  0  0  0  0  0  0
   27.2965    0.6940  -60.0372 C   0  0  0  1  0  0  0  0  0  0  0  0
   26.1747    2.1694  -58.5163 C   0  0  0  1  0  0  0  0  0  0  0  0
   25.6039    2.8370  -59.5833 C   0  0  0  1  0  0  0  0  0  0  0  0
   23.5018    2.4450  -67.1451 C   0  0  0  1  0  0  0  0  0  0  0  0
   24.0175    3.6219  -67.9201 C   0  0  0  1  0  0  0  0  0  0  0  0
   23.0423    4.7453  -67.4697 C   0  0  0  1  0  0  0  0  0  0  0  0
   20.5927    4.6178  -67.1335 C   0  0  0  1  0  0  0  0  0  0  0  0
   25.8297    1.1707  -66.2748 N   0  0  0  1  0  0  0  0  0  0  0  0
   27.2965    0.4857  -64.5857 C   0  0  0  1  0  0  0  0  0  0  0  0
   26.4936    1.1852  -63.6614 C   0  0  0  1  0  0  0  0  0  0  0  0
   27.0808    1.0061  -62.4394 N   0  0  0  1  0  0  0  0  0  0  0  0
   28.3159   -0.0766  -63.9004 N   0  0  0  1  0  0  0  0  0  0  0  0
   28.2164    0.2092  -62.6490 N   0  0  0  1  0  0  0  0  0  0  0  0
   25.9831    2.4725  -57.2104 O   0  0  0  1  0  0  0  0  0  0  0  0
   24.0075    2.4762  -65.7837 N   0  0  0  1  0  0  0  0  0  0  0  0
   25.0653    3.5360  -56.9116 C   0  0  0  1  0  0  0  0  0  0  0  0
   21.8258    4.0087  -67.2461 N   0  0  0  1  0  0  0  0  0  0  0  0
   22.0049    2.5720  -67.1491 C   0  0  0  1  0  0  0  0  0  0  0  0
   19.7994    4.9112  -68.2272 C   0  0  0  1  0  0  0  0  0  0  0  0
   18.5364    5.4293  -68.0123 C   0  0  0  1  0  0  0  0  0  0  0  0
   18.0368    5.6670  -66.7957 N   0  0  0  1  0  0  0  0  0  0  0  0
   18.8184    5.3820  -65.7445 C   0  0  0  1  0  0  0  0  0  0  0  0
   20.0932    4.8578  -65.8682 C   0  0  0  1  0  0  0  0  0  0  0  0
   27.4790    0.0015  -66.6492 H   0  0  0  1  0  0  0  0  0  0  0  0
   25.4546    2.9404  -61.6838 H   0  0  0  1  0  0  0  0  0  0  0  0
   27.4465    0.5896  -57.9406 H   0  0  0  1  0  0  0  0  0  0  0  0
   27.9339   -0.1099  -60.2078 H   0  0  0  1  0  0  0  0  0  0  0  0
   24.9664    3.6409  -59.4128 H   0  0  0  1  0  0  0  0  0  0  0  0
   23.7988    1.5309  -67.6155 H   0  0  0  1  0  0  0  0  0  0  0  0
   23.9562    3.4517  -68.9747 H   0  0  0  1  0  0  0  0  0  0  0  0
   25.0278    3.8522  -67.6535 H   0  0  0  1  0  0  0  0  0  0  0  0
   23.3815    5.2185  -66.5720 H   0  0  0  1  0  0  0  0  0  0  0  0
   22.9163    5.4816  -68.2359 H   0  0  0  1  0  0  0  0  0  0  0  0
   23.5203    3.0118  -65.1232 H   0  0  0  1  0  0  0  0  0  0  0  0
   25.0718    3.7281  -55.8589 H   0  0  0  1  0  0  0  0  0  0  0  0
   24.0796    3.2521  -57.2160 H   0  0  0  1  0  0  0  0  0  0  0  0
   25.3608    4.4200  -57.4370 H   0  0  0  1  0  0  0  0  0  0  0  0
   21.5742    2.0689  -67.9895 H   0  0  0  1  0  0  0  0  0  0  0  0
   21.5795    2.1871  -66.2459 H   0  0  0  1  0  0  0  0  0  0  0  0
   20.1465    4.7451  -69.1933 H   0  0  0  1  0  0  0  0  0  0  0  0
   17.9443    5.6451  -68.8397 H   0  0  0  1  0  0  0  0  0  0  0  0
   18.4488    5.5637  -64.7895 H   0  0  0  1  0  0  0  0  0  0  0  0
   20.6643    4.6485  -65.0246 H   0  0  0  1  0  0  0  0  0  0  0  0
  1  3  4  0  0  0  0
  1 14  4  0  0  0  0
  1 21  1  0  0  0  0
  2 14  4  0  0  0  0
  2 15  4  0  0  0  0
  2 30  1  0  0  0  0
  3 16  4  0  0  0  0
  4  5  4  0  0  0  0
  4  7  4  0  0  0  0
  4 17  1  0  0  0  0
  5  9  4  0  0  0  0
  5 31  1  0  0  0  0
  6  7  4  0  0  0  0
  6  8  4  0  0  0  0
  6 32  1  0  0  0  0
  7 33  1  0  0  0  0
  8  9  4  0  0  0  0
  8 20  1  0  0  0  0
  9 34  1  0  0  0  0
 10 11  1  0  0  0  0
 10 21  1  0  0  0  0
 10 24  1  0  0  0  0
 10 35  1  0  0  0  0
 11 12  1  0  0  0  0
 11 36  1  0  0  0  0
 11 37  1  0  0  0  0
 12 23  1  0  0  0  0
 12 38  1  0  0  0  0
 12 39  1  0  0  0  0
 13 23  1  0  0  0  0
 13 25  4  0  0  0  0
 13 29  4  0  0  0  0
 15 16  4  0  0  0  0
 15 18  4  0  0  0  0
 16 17  4  0  0  0  0
 17 19  4  0  0  0  0
 18 19  4  0  0  0  0
 20 22  1  0  0  0  0
 21 40  1  0  0  0  0
 22 41  1  0  0  0  0
 22 42  1  0  0  0  0
 22 43  1  0  0  0  0
 23 24  1  0  0  0  0
 24 44  1  0  0  0  0
 24 45  1  0  0  0  0
 25 26  4  0  0  0  0
 25 46  1  0  0  0  0
 26 27  4  0  0  0  0
 26 47  1  0  0  0  0
 27 28  4  0  0  0  0
 28 29  4  0  0  0  0
 28 48  1  0  0  0  0
 29 49  1  0  0  0  0
M  END
> <ConfClashScore>
0 

> <ConfOneFourInteractionScore>
-0.986948 

> <ConfScore>
-0.101809 

> <ConfScorePBest>
0.0053259 

> <ConfTolerance>
0.40029 

> <HETNAM>
     OWQ A 303  OWQ                                                       

> <pdb_OW>
Q_303 -16.5129 3.80749 7.62812 0.15963 1.39178 -0.28144 -3.20151 0 0 0 -1.30514 0 0 0 0 0 0 0 0 -8.31393

$$$$
6yky_lig_1.pdb
 OpenBabel04162415593D

 49 53  0  0  0  0  0  0  0  0999 V2000
   25.1047    1.8134  -65.3759 C   0  0  0  1  0  0  0  0  0  0  0  0
   26.9167    0.5034  -65.9326 C   0  0  0  1  0  0  0  0  0  0  0  0
   25.4177    1.8282  -64.0982 N   0  0  0  1  0  0  0  0  0  0  0  0
   26.7285    1.4698  -61.1391 C   0  0  0  1  0  0  0  0  0  0  0  0
   26.0103    2.6473  -61.0500 C   0  0  0  1  0  0  0  0  0  0  0  0
   26.8673    1.3710  -58.7477 C   0  0  0  1  0  0  0  0  0  0  0  0
   27.1600    0.8320  -59.9864 C   0  0  0  1  0  0  0  0  0  0  0  0
   26.1470    2.5519  -58.6583 C   0  0  0  1  0  0  0  0  0  0  0  0
   25.7169    3.1876  -59.8077 C   0  0  0  1  0  0  0  0  0  0  0  0
   23.5717    2.4834  -67.1796 C   0  0  0  1  0  0  0  0  0  0  0  0
   24.1848    3.6720  -67.9706 C   0  0  0  1  0  0  0  0  0  0  0  0
   23.2150    4.0126  -69.1215 C   0  0  0  1  0  0  0  0  0  0  0  0
   20.8210    3.2430  -69.4745 C   0  0  0  1  0  0  0  0  0  0  0  0
   25.8296    1.1707  -66.2748 N   0  0  0  1  0  0  0  0  0  0  0  0
   27.2965    0.4857  -64.5857 C   0  0  0  1  0  0  0  0  0  0  0  0
   26.4936    1.1851  -63.6614 C   0  0  0  1  0  0  0  0  0  0  0  0
   27.0809    1.0061  -62.4394 N   0  0  0  1  0  0  0  0  0  0  0  0
   28.3158   -0.0766  -63.9004 N   0  0  0  1  0  0  0  0  0  0  0  0
   28.2165    0.2092  -62.6490 N   0  0  0  1  0  0  0  0  0  0  0  0
   25.9258    2.9857  -57.3946 O   0  0  0  1  0  0  0  0  0  0  0  0
   23.9918    2.4854  -65.7895 N   0  0  0  1  0  0  0  0  0  0  0  0
   25.0328    4.0983  -57.2296 C   0  0  0  1  0  0  0  0  0  0  0  0
   21.9515    3.3476  -68.6945 N   0  0  0  1  0  0  0  0  0  0  0  0
   22.0746    2.8176  -67.3267 C   0  0  0  1  0  0  0  0  0  0  0  0
   19.7373    4.0923  -69.3489 C   0  0  0  1  0  0  0  0  0  0  0  0
   18.6494    3.9093  -70.1811 C   0  0  0  1  0  0  0  0  0  0  0  0
   18.5855    2.9468  -71.1062 N   0  0  0  1  0  0  0  0  0  0  0  0
   19.6413    2.1278  -71.2140 C   0  0  0  1  0  0  0  0  0  0  0  0
   20.7724    2.2417  -70.4246 C   0  0  0  1  0  0  0  0  0  0  0  0
   27.4790    0.0014  -66.6492 H   0  0  0  1  0  0  0  0  0  0  0  0
   25.6902    3.1278  -61.9150 H   0  0  0  1  0  0  0  0  0  0  0  0
   27.1875    0.8903  -57.8828 H   0  0  0  1  0  0  0  0  0  0  0  0
   27.7038   -0.0519  -60.0536 H   0  0  0  1  0  0  0  0  0  0  0  0
   25.1730    4.0715  -59.7406 H   0  0  0  1  0  0  0  0  0  0  0  0
   23.8148    1.5413  -67.6248 H   0  0  0  1  0  0  0  0  0  0  0  0
   24.2992    4.5188  -67.3267 H   0  0  0  1  0  0  0  0  0  0  0  0
   25.1387    3.3935  -68.3673 H   0  0  0  1  0  0  0  0  0  0  0  0
   23.5650    3.6147  -70.0511 H   0  0  0  1  0  0  0  0  0  0  0  0
   23.0820    5.0703  -69.2132 H   0  0  0  1  0  0  0  0  0  0  0  0
   23.4623    2.9825  -65.1315 H   0  0  0  1  0  0  0  0  0  0  0  0
   24.8990    4.2972  -56.1868 H   0  0  0  1  0  0  0  0  0  0  0  0
   24.0870    3.8647  -57.6720 H   0  0  0  1  0  0  0  0  0  0  0  0
   25.4470    4.9617  -57.7069 H   0  0  0  1  0  0  0  0  0  0  0  0
   21.7784    3.5526  -66.6077 H   0  0  0  1  0  0  0  0  0  0  0  0
   21.4768    1.9385  -67.2059 H   0  0  0  1  0  0  0  0  0  0  0  0
   19.7409    4.8546  -68.6414 H   0  0  0  1  0  0  0  0  0  0  0  0
   17.8389    4.5535  -70.0826 H   0  0  0  1  0  0  0  0  0  0  0  0
   19.6089    1.3700  -71.9256 H   0  0  0  1  0  0  0  0  0  0  0  0
   21.5705    1.5858  -70.5446 H   0  0  0  1  0  0  0  0  0  0  0  0
  1  3  4  0  0  0  0
  1 14  4  0  0  0  0
  1 21  1  0  0  0  0
  2 14  4  0  0  0  0
  2 15  4  0  0  0  0
  2 30  1  0  0  0  0
  3 16  4  0  0  0  0
  4  5  4  0  0  0  0
  4  7  4  0  0  0  0
  4 17  1  0  0  0  0
  5  9  4  0  0  0  0
  5 31  1  0  0  0  0
  6  7  4  0  0  0  0
  6  8  4  0  0  0  0
  6 32  1  0  0  0  0
  7 33  1  0  0  0  0
  8  9  4  0  0  0  0
  8 20  1  0  0  0  0
  9 34  1  0  0  0  0
 10 11  1  0  0  0  0
 10 21  1  0  0  0  0
 10 24  1  0  0  0  0
 10 35  1  0  0  0  0
 11 12  1  0  0  0  0
 11 36  1  0  0  0  0
 11 37  1  0  0  0  0
 12 23  1  0  0  0  0
 12 38  1  0  0  0  0
 12 39  1  0  0  0  0
 13 23  1  0  0  0  0
 13 25  4  0  0  0  0
 13 29  4  0  0  0  0
 15 16  4  0  0  0  0
 15 18  4  0  0  0  0
 16 17  4  0  0  0  0
 17 19  4  0  0  0  0
 18 19  4  0  0  0  0
 20 22  1  0  0  0  0
 21 40  1  0  0  0  0
 22 41  1  0  0  0  0
 22 42  1  0  0  0  0
 22 43  1  0  0  0  0
 23 24  1  0  0  0  0
 24 44  1  0  0  0  0
 24 45  1  0  0  0  0
 25 26  4  0  0  0  0
 25 46  1  0  0  0  0
 26 27  4  0  0  0  0
 26 47  1  0  0  0  0
 27 28  4  0  0  0  0
 28 29  4  0  0  0  0
 28 48  1  0  0  0  0
 29 49  1  0  0  0  0
M  END
> <ConfClashScore>
0 

> <ConfOneFourInteractionScore>
-0.986948 

> <ConfScore>
-0.0978971 

> <ConfScorePBest>
0.00531257 

> <ConfTolerance>
0.310744 

> <HETNAM>
     OWQ A 303  OWQ                                                       

> <pdb_OW>
Q_303 -16.5129 3.80749 7.62812 0.15963 1.39178 -0.28144 -3.20151 0 0 0 -1.30514 0 0 0 0 0 0 0 0 -8.31393

$$$$
6yky_lig_1.pdb
 OpenBabel04162415593D

 49 53  0  0  0  0  0  0  0  0999 V2000
   25.1048    1.8135  -65.3760 C   0  0  0  1  0  0  0  0  0  0  0  0
   26.9167    0.5034  -65.9326 C   0  0  0  1  0  0  0  0  0  0  0  0
   25.4178    1.8282  -64.0983 N   0  0  0  1  0  0  0  0  0  0  0  0
   26.7286    1.4699  -61.1391 C   0  0  0  1  0  0  0  0  0  0  0  0
   26.0742    2.6780  -60.9889 C   0  0  0  1  0  0  0  0  0  0  0  0
   26.8614    1.2432  -58.7562 C   0  0  0  1  0  0  0  0  0  0  0  0
   27.1252    0.7526  -60.0211 C   0  0  0  1  0  0  0  0  0  0  0  0
   26.2052    2.4549  -58.6054 C   0  0  0  1  0  0  0  0  0  0  0  0
   25.8099    3.1698  -59.7203 C   0  0  0  1  0  0  0  0  0  0  0  0
   23.1198    3.1682  -64.8502 C   0  0  0  1  0  0  0  0  0  0  0  0
   21.8382    2.3810  -64.6229 C   0  0  0  1  0  0  0  0  0  0  0  0
   20.8379    3.4291  -64.1310 C   0  0  0  1  0  0  0  0  0  0  0  0
   20.6642    5.8944  -64.6679 C   0  0  0  1  0  0  0  0  0  0  0  0
   25.8297    1.1706  -66.2748 N   0  0  0  1  0  0  0  0  0  0  0  0
   27.2965    0.4857  -64.5857 C   0  0  0  1  0  0  0  0  0  0  0  0
   26.4937    1.1851  -63.6614 C   0  0  0  1  0  0  0  0  0  0  0  0
   27.0809    1.0061  -62.4395 N   0  0  0  1  0  0  0  0  0  0  0  0
   28.3159   -0.0766  -63.9004 N   0  0  0  1  0  0  0  0  0  0  0  0
   28.2164    0.2092  -62.6490 N   0  0  0  1  0  0  0  0  0  0  0  0
   25.8661    2.8935  -57.3700 O   0  0  0  1  0  0  0  0  0  0  0  0
   23.9919    2.4855  -65.7896 N   0  0  0  1  0  0  0  0  0  0  0  0
   25.2222    4.1742  -57.2821 C   0  0  0  1  0  0  0  0  0  0  0  0
   21.3330    4.6747  -64.7378 N   0  0  0  1  0  0  0  0  0  0  0  0
   22.6171    4.4797  -65.4268 C   0  0  0  1  0  0  0  0  0  0  0  0
   20.8494    6.7389  -63.5889 C   0  0  0  1  0  0  0  0  0  0  0  0
   20.1691    7.9413  -63.5616 C   0  0  0  1  0  0  0  0  0  0  0  0
   19.3330    8.3348  -64.5272 N   0  0  0  1  0  0  0  0  0  0  0  0
   19.1596    7.5043  -65.5653 C   0  0  0  1  0  0  0  0  0  0  0  0
   19.8031    6.2840  -65.6751 C   0  0  0  1  0  0  0  0  0  0  0  0
   27.4790    0.0014  -66.6492 H   0  0  0  1  0  0  0  0  0  0  0  0
   25.7804    3.2179  -61.8278 H   0  0  0  1  0  0  0  0  0  0  0  0
   27.1553    0.7032  -57.9173 H   0  0  0  1  0  0  0  0  0  0  0  0
   27.6210   -0.1546  -60.1341 H   0  0  0  1  0  0  0  0  0  0  0  0
   25.3140    4.0770  -59.6072 H   0  0  0  1  0  0  0  0  0  0  0  0
   23.6413    3.3278  -63.9297 H   0  0  0  1  0  0  0  0  0  0  0  0
   21.5012    1.9330  -65.5342 H   0  0  0  1  0  0  0  0  0  0  0  0
   21.9855    1.6208  -63.8844 H   0  0  0  1  0  0  0  0  0  0  0  0
   20.8437    3.4937  -63.0630 H   0  0  0  1  0  0  0  0  0  0  0  0
   19.8483    3.2040  -64.4699 H   0  0  0  1  0  0  0  0  0  0  0  0
   23.7754    2.5082  -66.7450 H   0  0  0  1  0  0  0  0  0  0  0  0
   24.2670    4.1273  -57.7621 H   0  0  0  1  0  0  0  0  0  0  0  0
   25.8282    4.9117  -57.7654 H   0  0  0  1  0  0  0  0  0  0  0  0
   25.0915    4.4376  -56.2533 H   0  0  0  1  0  0  0  0  0  0  0  0
   22.4780    4.4059  -66.4851 H   0  0  0  1  0  0  0  0  0  0  0  0
   23.2944    5.2792  -65.2105 H   0  0  0  1  0  0  0  0  0  0  0  0
   21.4886    6.4740  -62.8124 H   0  0  0  1  0  0  0  0  0  0  0  0
   20.3152    8.5725  -62.7481 H   0  0  0  1  0  0  0  0  0  0  0  0
   18.5099    7.7910  -66.3251 H   0  0  0  1  0  0  0  0  0  0  0  0
   19.6415    5.6720  -66.5003 H   0  0  0  1  0  0  0  0  0  0  0  0
  1  3  4  0  0  0  0
  1 14  4  0  0  0  0
  1 21  1  0  0  0  0
  2 14  4  0  0  0  0
  2 15  4  0  0  0  0
  2 30  1  0  0  0  0
  3 16  4  0  0  0  0
  4  5  4  0  0  0  0
  4  7  4  0  0  0  0
  4 17  1  0  0  0  0
  5  9  4  0  0  0  0
  5 31  1  0  0  0  0
  6  7  4  0  0  0  0
  6  8  4  0  0  0  0
  6 32  1  0  0  0  0
  7 33  1  0  0  0  0
  8  9  4  0  0  0  0
  8 20  1  0  0  0  0
  9 34  1  0  0  0  0
 10 11  1  0  0  0  0
 10 21  1  0  0  0  0
 10 24  1  0  0  0  0
 10 35  1  0  0  0  0
 11 12  1  0  0  0  0
 11 36  1  0  0  0  0
 11 37  1  0  0  0  0
 12 23  1  0  0  0  0
 12 38  1  0  0  0  0
 12 39  1  0  0  0  0
 13 23  1  0  0  0  0
 13 25  4  0  0  0  0
 13 29  4  0  0  0  0
 15 16  4  0  0  0  0
 15 18  4  0  0  0  0
 16 17  4  0  0  0  0
 17 19  4  0  0  0  0
 18 19  4  0  0  0  0
 20 22  1  0  0  0  0
 21 40  1  0  0  0  0
 22 41  1  0  0  0  0
 22 42  1  0  0  0  0
 22 43  1  0  0  0  0
 23 24  1  0  0  0  0
 24 44  1  0  0  0  0
 24 45  1  0  0  0  0
 25 26  4  0  0  0  0
 25 46  1  0  0  0  0
 26 27  4  0  0  0  0
 26 47  1  0  0  0  0
 27 28  4  0  0  0  0
 28 29  4  0  0  0  0
 28 48  1  0  0  0  0
 29 49  1  0  0  0  0
M  END
> <ConfClashScore>
0 

> <ConfOneFourInteractionScore>
-0.986948 

> <ConfScore>
-0.0978971 

> <ConfScorePBest>
0.00529924 

> <ConfTolerance>
0.38066 

> <HETNAM>
     OWQ A 303  OWQ                                                       

> <pdb_OW>
Q_303 -16.5129 3.80749 7.62812 0.15963 1.39178 -0.28144 -3.20151 0 0 0 -1.30514 0 0 0 0 0 0 0 0 -8.31393

$$$$
6yky_lig_1.pdb
 OpenBabel04162415593D

 49 53  0  0  0  0  0  0  0  0999 V2000
   25.1047    1.8135  -65.3760 C   0  0  0  1  0  0  0  0  0  0  0  0
   26.9167    0.5034  -65.9326 C   0  0  0  1  0  0  0  0  0  0  0  0
   25.4179    1.8284  -64.0983 N   0  0  0  1  0  0  0  0  0  0  0  0
   26.7286    1.4700  -61.1391 C   0  0  0  1  0  0  0  0  0  0  0  0
   26.9399    0.6641  -60.0363 C   0  0  0  1  0  0  0  0  0  0  0  0
   25.6679    3.1054  -59.7437 C   0  0  0  1  0  0  0  0  0  0  0  0
   26.0892    2.6912  -60.9931 C   0  0  0  1  0  0  0  0  0  0  0  0
   25.8797    2.2974  -58.6375 C   0  0  0  1  0  0  0  0  0  0  0  0
   26.5172    1.0797  -58.7832 C   0  0  0  1  0  0  0  0  0  0  0  0
   23.1094    3.1839  -64.8879 C   0  0  0  1  0  0  0  0  0  0  0  0
   22.0735    2.2338  -64.2980 C   0  0  0  1  0  0  0  0  0  0  0  0
   21.0359    2.1110  -65.4093 C   0  0  0  1  0  0  0  0  0  0  0  0
   20.0257    3.9732  -66.8318 C   0  0  0  1  0  0  0  0  0  0  0  0
   25.8297    1.1707  -66.2747 N   0  0  0  1  0  0  0  0  0  0  0  0
   27.2965    0.4857  -64.5857 C   0  0  0  1  0  0  0  0  0  0  0  0
   26.4936    1.1852  -63.6614 C   0  0  0  1  0  0  0  0  0  0  0  0
   27.0809    1.0062  -62.4395 N   0  0  0  1  0  0  0  0  0  0  0  0
   28.3159   -0.0766  -63.9004 N   0  0  0  1  0  0  0  0  0  0  0  0
   28.2164    0.2093  -62.6490 N   0  0  0  1  0  0  0  0  0  0  0  0
   25.5043    2.5966  -57.3559 O   0  0  0  1  0  0  0  0  0  0  0  0
   24.0075    2.4762  -65.7837 N   0  0  0  1  0  0  0  0  0  0  0  0
   24.7311    3.8038  -57.2693 C   0  0  0  1  0  0  0  0  0  0  0  0
   21.0572    3.4616  -66.0102 N   0  0  0  1  0  0  0  0  0  0  0  0
   22.2737    4.2154  -65.6572 C   0  0  0  1  0  0  0  0  0  0  0  0
   18.9358    4.5658  -66.2214 C   0  0  0  1  0  0  0  0  0  0  0  0
   17.9239    5.0727  -67.0145 C   0  0  0  1  0  0  0  0  0  0  0  0
   17.9398    5.0183  -68.3497 N   0  0  0  1  0  0  0  0  0  0  0  0
   19.0004    4.4371  -68.9281 C   0  0  0  1  0  0  0  0  0  0  0  0
   20.0589    3.9074  -68.2110 C   0  0  0  1  0  0  0  0  0  0  0  0
   27.4790    0.0013  -66.6492 H   0  0  0  1  0  0  0  0  0  0  0  0
   27.4160   -0.2538  -60.1465 H   0  0  0  1  0  0  0  0  0  0  0  0
   25.1917    4.0234  -59.6335 H   0  0  0  1  0  0  0  0  0  0  0  0
   25.9267    3.2956  -61.8236 H   0  0  0  1  0  0  0  0  0  0  0  0
   26.6797    0.4752  -57.9527 H   0  0  0  1  0  0  0  0  0  0  0  0
   23.6766    3.6562  -64.1132 H   0  0  0  1  0  0  0  0  0  0  0  0
   22.5096    1.2826  -64.0742 H   0  0  0  1  0  0  0  0  0  0  0  0
   21.6379    2.6445  -63.4111 H   0  0  0  1  0  0  0  0  0  0  0  0
   21.3187    1.3651  -66.1226 H   0  0  0  1  0  0  0  0  0  0  0  0
   20.0696    1.8782  -65.0132 H   0  0  0  1  0  0  0  0  0  0  0  0
   23.8018    2.4819  -66.7419 H   0  0  0  1  0  0  0  0  0  0  0  0
   24.5113    4.0143  -56.2435 H   0  0  0  1  0  0  0  0  0  0  0  0
   23.8170    3.6813  -57.8118 H   0  0  0  1  0  0  0  0  0  0  0  0
   25.2890    4.6152  -57.6881 H   0  0  0  1  0  0  0  0  0  0  0  0
   22.0386    5.0570  -65.0397 H   0  0  0  1  0  0  0  0  0  0  0  0
   22.7873    4.5487  -66.5347 H   0  0  0  1  0  0  0  0  0  0  0  0
   18.8786    4.6289  -65.1849 H   0  0  0  1  0  0  0  0  0  0  0  0
   17.1085    5.5192  -66.5484 H   0  0  0  1  0  0  0  0  0  0  0  0
   19.0293    4.3818  -69.9664 H   0  0  0  1  0  0  0  0  0  0  0  0
   20.8640    3.4679  -68.7013 H   0  0  0  1  0  0  0  0  0  0  0  0
  1  3  4  0  0  0  0
  1 14  4  0  0  0  0
  1 21  1  0  0  0  0
  2 14  4  0  0  0  0
  2 15  4  0  0  0  0
  2 30  1  0  0  0  0
  3 16  4  0  0  0  0
  4  5  4  0  0  0  0
  4  7  4  0  0  0  0
  4 17  1  0  0  0  0
  5  9  4  0  0  0  0
  5 31  1  0  0  0  0
  6  7  4  0  0  0  0
  6  8  4  0  0  0  0
  6 32  1  0  0  0  0
  7 33  1  0  0  0  0
  8  9  4  0  0  0  0
  8 20  1  0  0  0  0
  9 34  1  0  0  0  0
 10 11  1  0  0  0  0
 10 21  1  0  0  0  0
 10 24  1  0  0  0  0
 10 35  1  0  0  0  0
 11 12  1  0  0  0  0
 11 36  1  0  0  0  0
 11 37  1  0  0  0  0
 12 23  1  0  0  0  0
 12 38  1  0  0  0  0
 12 39  1  0  0  0  0
 13 23  1  0  0  0  0
 13 25  4  0  0  0  0
 13 29  4  0  0  0  0
 15 16  4  0  0  0  0
 15 18  4  0  0  0  0
 16 17  4  0  0  0  0
 17 19  4  0  0  0  0
 18 19  4  0  0  0  0
 20 22  1  0  0  0  0
 21 40  1  0  0  0  0
 22 41  1  0  0  0  0
 22 42  1  0  0  0  0
 22 43  1  0  0  0  0
 23 24  1  0  0  0  0
 24 44  1  0  0  0  0
 24 45  1  0  0  0  0
 25 26  4  0  0  0  0
 25 46  1  0  0  0  0
 26 27  4  0  0  0  0
 26 47  1  0  0  0  0
 27 28  4  0  0  0  0
 28 29  4  0  0  0  0
 28 48  1  0  0  0  0
 29 49  1  0  0  0  0
M  END
> <ConfClashScore>
0 

> <ConfOneFourInteractionScore>
-0.986948 

> <ConfScore>
-0.097673 

> <ConfScorePBest>
0.00528591 

> <ConfTolerance>
0.465827 

> <HETNAM>
     OWQ A 303  OWQ                                                       

> <pdb_OW>
Q_303 -16.5129 3.80749 7.62812 0.15963 1.39178 -0.28144 -3.20151 0 0 0 -1.30514 0 0 0 0 0 0 0 0 -8.31393

$$$$
6yky_lig_1.pdb
 OpenBabel04162415593D

 49 53  0  0  0  0  0  0  0  0999 V2000
   25.1048    1.8135  -65.3759 C   0  0  0  1  0  0  0  0  0  0  0  0
   26.9167    0.5034  -65.9326 C   0  0  0  1  0  0  0  0  0  0  0  0
   25.4178    1.8283  -64.0981 N   0  0  0  1  0  0  0  0  0  0  0  0
   26.6376    1.3733  -61.1361 C   0  0  0  1  0  0  0  0  0  0  0  0
   27.1645    0.7452  -60.0234 C   0  0  0  1  0  0  0  0  0  0  0  0
   25.1195    2.5885  -59.7339 C   0  0  0  1  0  0  0  0  0  0  0  0
   25.6117    2.2943  -60.9914 C   0  0  0  1  0  0  0  0  0  0  0  0
   25.6479    1.9587  -58.6179 C   0  0  0  1  0  0  0  0  0  0  0  0
   26.6707    1.0404  -58.7623 C   0  0  0  1  0  0  0  0  0  0  0  0
   23.6207    2.6228  -67.1761 C   0  0  0  1  0  0  0  0  0  0  0  0
   23.9448    4.0203  -67.6819 C   0  0  0  1  0  0  0  0  0  0  0  0
   23.0047    4.1824  -68.8630 C   0  0  0  1  0  0  0  0  0  0  0  0
   20.5376    3.5744  -69.0392 C   0  0  0  1  0  0  0  0  0  0  0  0
   25.8296    1.1706  -66.2747 N   0  0  0  1  0  0  0  0  0  0  0  0
   27.2965    0.4857  -64.5857 C   0  0  0  1  0  0  0  0  0  0  0  0
   26.4936    1.1851  -63.6614 C   0  0  0  1  0  0  0  0  0  0  0  0
   27.0809    1.0061  -62.4395 N   0  0  0  1  0  0  0  0  0  0  0  0
   28.3158   -0.0766  -63.9004 N   0  0  0  1  0  0  0  0  0  0  0  0
   28.2164    0.2092  -62.6490 N   0  0  0  1  0  0  0  0  0  0  0  0
   25.0831    2.3225  -57.4420 O   0  0  0  1  0  0  0  0  0  0  0  0
   24.0074    2.4761  -65.7837 N   0  0  0  1  0  0  0  0  0  0  0  0
   25.5345    1.6441  -56.2595 C   0  0  0  1  0  0  0  0  0  0  0  0
   21.8128    3.4307  -68.4440 N   0  0  0  1  0  0  0  0  0  0  0  0
   22.1028    2.5113  -67.3325 C   0  0  0  1  0  0  0  0  0  0  0  0
   20.1770    2.8023  -70.1280 C   0  0  0  1  0  0  0  0  0  0  0  0
   18.9199    2.9722  -70.6762 C   0  0  0  1  0  0  0  0  0  0  0  0
   18.0276    3.8512  -70.2098 N   0  0  0  1  0  0  0  0  0  0  0  0
   18.3921    4.5962  -69.1566 C   0  0  0  1  0  0  0  0  0  0  0  0
   19.6284    4.4887  -68.5440 C   0  0  0  1  0  0  0  0  0  0  0  0
   27.4789    0.0014  -66.6491 H   0  0  0  1  0  0  0  0  0  0  0  0
   27.9314    0.0512  -60.1324 H   0  0  0  1  0  0  0  0  0  0  0  0
   24.3526    3.2825  -59.6250 H   0  0  0  1  0  0  0  0  0  0  0  0
   25.2126    2.7640  -61.8291 H   0  0  0  1  0  0  0  0  0  0  0  0
   27.0699    0.5707  -57.9246 H   0  0  0  1  0  0  0  0  0  0  0  0
   24.1186    1.8810  -67.7650 H   0  0  0  1  0  0  0  0  0  0  0  0
   24.9666    4.0897  -67.9916 H   0  0  0  1  0  0  0  0  0  0  0  0
   23.7485    4.7562  -66.9304 H   0  0  0  1  0  0  0  0  0  0  0  0
   22.7702    5.2131  -69.0289 H   0  0  0  1  0  0  0  0  0  0  0  0
   23.4291    3.7651  -69.7521 H   0  0  0  1  0  0  0  0  0  0  0  0
   23.4349    2.8842  -65.1008 H   0  0  0  1  0  0  0  0  0  0  0  0
   24.9755    1.9886  -55.4147 H   0  0  0  1  0  0  0  0  0  0  0  0
   26.5738    1.8479  -56.1064 H   0  0  0  1  0  0  0  0  0  0  0  0
   25.3907    0.5903  -56.3764 H   0  0  0  1  0  0  0  0  0  0  0  0
   21.6012    2.8191  -66.4389 H   0  0  0  1  0  0  0  0  0  0  0  0
   21.8146    1.5103  -67.5772 H   0  0  0  1  0  0  0  0  0  0  0  0
   20.8393    2.1067  -70.5268 H   0  0  0  1  0  0  0  0  0  0  0  0
   18.6546    2.3863  -71.4934 H   0  0  0  1  0  0  0  0  0  0  0  0
   17.7128    5.2886  -68.7815 H   0  0  0  1  0  0  0  0  0  0  0  0
   19.8684    5.0850  -67.7265 H   0  0  0  1  0  0  0  0  0  0  0  0
  1  3  4  0  0  0  0
  1 14  4  0  0  0  0
  1 21  1  0  0  0  0
  2 14  4  0  0  0  0
  2 15  4  0  0  0  0
  2 30  1  0  0  0  0
  3 16  4  0  0  0  0
  4  5  4  0  0  0  0
  4  7  4  0  0  0  0
  4 17  1  0  0  0  0
  5  9  4  0  0  0  0
  5 31  1  0  0  0  0
  6  7  4  0  0  0  0
  6  8  4  0  0  0  0
  6 32  1  0  0  0  0
  7 33  1  0  0  0  0
  8  9  4  0  0  0  0
  8 20  1  0  0  0  0
  9 34  1  0  0  0  0
 10 11  1  0  0  0  0
 10 21  1  0  0  0  0
 10 24  1  0  0  0  0
 10 35  1  0  0  0  0
 11 12  1  0  0  0  0
 11 36  1  0  0  0  0
 11 37  1  0  0  0  0
 12 23  1  0  0  0  0
 12 38  1  0  0  0  0
 12 39  1  0  0  0  0
 13 23  1  0  0  0  0
 13 25  4  0  0  0  0
 13 29  4  0  0  0  0
 15 16  4  0  0  0  0
 15 18  4  0  0  0  0
 16 17  4  0  0  0  0
 17 19  4  0  0  0  0
 18 19  4  0  0  0  0
 20 22  1  0  0  0  0
 21 40  1  0  0  0  0
 22 41  1  0  0  0  0
 22 42  1  0  0  0  0
 22 43  1  0  0  0  0
 23 24  1  0  0  0  0
 24 44  1  0  0  0  0
 24 45  1  0  0  0  0
 25 26  4  0  0  0  0
 25 46  1  0  0  0  0
 26 27  4  0  0  0  0
 26 47  1  0  0  0  0
 27 28  4  0  0  0  0
 28 29  4  0  0  0  0
 28 48  1  0  0  0  0
 29 49  1  0  0  0  0
M  END
> <ConfClashScore>
0 

> <ConfOneFourInteractionScore>
-0.986948 

> <ConfScore>
-0.0802913 

> <ConfScorePBest>
0.00527258 

> <ConfTolerance>
0.366978 

> <HETNAM>
     OWQ A 303  OWQ                                                       

> <pdb_OW>
Q_303 -16.5129 3.80749 7.62812 0.15963 1.39178 -0.28144 -3.20151 0 0 0 -1.30514 0 0 0 0 0 0 0 0 -8.31393

$$$$
6yky_lig_1.pdb
 OpenBabel04162415593D

 49 53  0  0  0  0  0  0  0  0999 V2000
   25.1049    1.8136  -65.3761 C   0  0  0  1  0  0  0  0  0  0  0  0
   26.9167    0.5034  -65.9326 C   0  0  0  1  0  0  0  0  0  0  0  0
   25.4179    1.8285  -64.0982 N   0  0  0  1  0  0  0  0  0  0  0  0
   26.7287    1.4701  -61.1392 C   0  0  0  1  0  0  0  0  0  0  0  0
   26.8470    0.6289  -60.0488 C   0  0  0  1  0  0  0  0  0  0  0  0
   25.7569    3.1545  -59.7371 C   0  0  0  1  0  0  0  0  0  0  0  0
   26.1805    2.7337  -60.9837 C   0  0  0  1  0  0  0  0  0  0  0  0
   25.8754    2.3110  -58.6434 C   0  0  0  1  0  0  0  0  0  0  0  0
   26.4221    1.0511  -58.7987 C   0  0  0  1  0  0  0  0  0  0  0  0
   23.1778    3.2850  -64.9077 C   0  0  0  1  0  0  0  0  0  0  0  0
   21.8658    2.5517  -64.5505 C   0  0  0  1  0  0  0  0  0  0  0  0
   20.7527    3.5683  -64.5879 C   0  0  0  1  0  0  0  0  0  0  0  0
   20.7501    5.9078  -65.7103 C   0  0  0  1  0  0  0  0  0  0  0  0
   25.8298    1.1707  -66.2748 N   0  0  0  1  0  0  0  0  0  0  0  0
   27.2965    0.4857  -64.5857 C   0  0  0  1  0  0  0  0  0  0  0  0
   26.4937    1.1853  -63.6614 C   0  0  0  1  0  0  0  0  0  0  0  0
   27.0810    1.0062  -62.4395 N   0  0  0  1  0  0  0  0  0  0  0  0
   28.3159   -0.0766  -63.9004 N   0  0  0  1  0  0  0  0  0  0  0  0
   28.2164    0.2092  -62.6490 N   0  0  0  1  0  0  0  0  0  0  0  0
   25.4941    2.6083  -57.3861 O   0  0  0  1  0  0  0  0  0  0  0  0
   24.0076    2.4764  -65.7838 N   0  0  0  1  0  0  0  0  0  0  0  0
   24.9063    3.9194  -57.2185 C   0  0  0  1  0  0  0  0  0  0  0  0
   21.4322    4.7293  -65.3462 N   0  0  0  1  0  0  0  0  0  0  0  0
   22.6817    4.5283  -65.6192 C   0  0  0  1  0  0  0  0  0  0  0  0
   20.7809    7.0621  -64.9498 C   0  0  0  1  0  0  0  0  0  0  0  0
   20.0819    8.1688  -65.3929 C   0  0  0  1  0  0  0  0  0  0  0  0
   19.3696    8.1839  -66.5236 N   0  0  0  1  0  0  0  0  0  0  0  0
   19.3449    7.0565  -67.2488 C   0  0  0  1  0  0  0  0  0  0  0  0
   20.0183    5.9046  -66.8818 C   0  0  0  1  0  0  0  0  0  0  0  0
   27.4789    0.0013  -66.6492 H   0  0  0  1  0  0  0  0  0  0  0  0
   27.2545   -0.3206  -60.1663 H   0  0  0  1  0  0  0  0  0  0  0  0
   25.3493    4.1040  -59.6195 H   0  0  0  1  0  0  0  0  0  0  0  0
   26.0878    3.3651  -61.8049 H   0  0  0  1  0  0  0  0  0  0  0  0
   26.5148    0.4196  -57.9776 H   0  0  0  1  0  0  0  0  0  0  0  0
   23.7297    3.5389  -64.0270 H   0  0  0  1  0  0  0  0  0  0  0  0
   21.6756    1.7759  -65.2624 H   0  0  0  1  0  0  0  0  0  0  0  0
   21.9397    2.1273  -63.5710 H   0  0  0  1  0  0  0  0  0  0  0  0
   19.9012    3.1978  -65.1197 H   0  0  0  1  0  0  0  0  0  0  0  0
   20.4578    3.8631  -63.6024 H   0  0  0  1  0  0  0  0  0  0  0  0
   23.7530    2.4098  -66.7279 H   0  0  0  1  0  0  0  0  0  0  0  0
   25.5891    4.6645  -57.5699 H   0  0  0  1  0  0  0  0  0  0  0  0
   24.6983    4.0870  -56.1823 H   0  0  0  1  0  0  0  0  0  0  0  0
   23.9968    3.9765  -57.7792 H   0  0  0  1  0  0  0  0  0  0  0  0
   22.7968    4.4011  -66.6754 H   0  0  0  1  0  0  0  0  0  0  0  0
   23.2543    5.3727  -65.2966 H   0  0  0  1  0  0  0  0  0  0  0  0
   21.3199    7.0968  -64.0611 H   0  0  0  1  0  0  0  0  0  0  0  0
   20.1116    9.0343  -64.8168 H   0  0  0  1  0  0  0  0  0  0  0  0
   18.7929    7.0473  -68.1301 H   0  0  0  1  0  0  0  0  0  0  0  0
   19.9742    5.0527  -67.4766 H   0  0  0  1  0  0  0  0  0  0  0  0
  1  3  4  0  0  0  0
  1 14  4  0  0  0  0
  1 21  1  0  0  0  0
  2 14  4  0  0  0  0
  2 15  4  0  0  0  0
  2 30  1  0  0  0  0
  3 16  4  0  0  0  0
  4  5  4  0  0  0  0
  4  7  4  0  0  0  0
  4 17  1  0  0  0  0
  5  9  4  0  0  0  0
  5 31  1  0  0  0  0
  6  7  4  0  0  0  0
  6  8  4  0  0  0  0
  6 32  1  0  0  0  0
  7 33  1  0  0  0  0
  8  9  4  0  0  0  0
  8 20  1  0  0  0  0
  9 34  1  0  0  0  0
 10 11  1  0  0  0  0
 10 21  1  0  0  0  0
 10 24  1  0  0  0  0
 10 35  1  0  0  0  0
 11 12  1  0  0  0  0
 11 36  1  0  0  0  0
 11 37  1  0  0  0  0
 12 23  1  0  0  0  0
 12 38  1  0  0  0  0
 12 39  1  0  0  0  0
 13 23  1  0  0  0  0
 13 25  4  0  0  0  0
 13 29  4  0  0  0  0
 15 16  4  0  0  0  0
 15 18  4  0  0  0  0
 16 17  4  0  0  0  0
 17 19  4  0  0  0  0
 18 19  4  0  0  0  0
 20 22  1  0  0  0  0
 21 40  1  0  0  0  0
 22 41  1  0  0  0  0
 22 42  1  0  0  0  0
 22 43  1  0  0  0  0
 23 24  1  0  0  0  0
 24 44  1  0  0  0  0
 24 45  1  0  0  0  0
 25 26  4  0  0  0  0
 25 46  1  0  0  0  0
 26 27  4  0  0  0  0
 26 47  1  0  0  0  0
 27 28  4  0  0  0  0
 28 29  4  0  0  0  0
 28 48  1  0  0  0  0
 29 49  1  0  0  0  0
M  END
> <ConfClashScore>
0 

> <ConfOneFourInteractionScore>
-0.986948 

> <ConfScore>
-0.0794017 

> <ConfScorePBest>
0.00525926 

> <ConfTolerance>
0.417673 

> <HETNAM>
     OWQ A 303  OWQ                                                       

> <pdb_OW>
Q_303 -16.5129 3.80749 7.62812 0.15963 1.39178 -0.28144 -3.20151 0 0 0 -1.30514 0 0 0 0 0 0 0 0 -8.31393

$$$$
6yky_lig_1.pdb
 OpenBabel04162415593D

 49 53  0  0  0  0  0  0  0  0999 V2000
   25.1049    1.8136  -65.3759 C   0  0  0  1  0  0  0  0  0  0  0  0
   26.9167    0.5034  -65.9326 C   0  0  0  1  0  0  0  0  0  0  0  0
   25.4178    1.8284  -64.0982 N   0  0  0  1  0  0  0  0  0  0  0  0
   26.7287    1.4699  -61.1390 C   0  0  0  1  0  0  0  0  0  0  0  0
   27.4368    1.0360  -60.0343 C   0  0  0  1  0  0  0  0  0  0  0  0
   25.2217    2.6638  -59.7070 C   0  0  0  1  0  0  0  0  0  0  0  0
   25.6179    2.2828  -60.9752 C   0  0  0  1  0  0  0  0  0  0  0  0
   25.9317    2.2287  -58.5989 C   0  0  0  1  0  0  0  0  0  0  0  0
   27.0392    1.4181  -58.7626 C   0  0  0  1  0  0  0  0  0  0  0  0
   23.6319    2.6405  -67.1772 C   0  0  0  1  0  0  0  0  0  0  0  0
   24.2992    3.8919  -67.7900 C   0  0  0  1  0  0  0  0  0  0  0  0
   23.2744    4.5714  -68.6629 C   0  0  0  1  0  0  0  0  0  0  0  0
   20.7202    4.2521  -68.6507 C   0  0  0  1  0  0  0  0  0  0  0  0
   25.8297    1.1707  -66.2747 N   0  0  0  1  0  0  0  0  0  0  0  0
   27.2965    0.4858  -64.5857 C   0  0  0  1  0  0  0  0  0  0  0  0
   26.4937    1.1851  -63.6614 C   0  0  0  1  0  0  0  0  0  0  0  0
   27.0809    1.0062  -62.4395 N   0  0  0  1  0  0  0  0  0  0  0  0
   28.3159   -0.0766  -63.9004 N   0  0  0  1  0  0  0  0  0  0  0  0
   28.2164    0.2092  -62.6490 N   0  0  0  1  0  0  0  0  0  0  0  0
   25.6368    2.5311  -57.3122 O   0  0  0  1  0  0  0  0  0  0  0  0
   24.0075    2.4763  -65.7837 N   0  0  0  1  0  0  0  0  0  0  0  0
   24.5156    3.3987  -57.0825 C   0  0  0  1  0  0  0  0  0  0  0  0
   21.9737    3.8897  -68.1848 N   0  0  0  1  0  0  0  0  0  0  0  0
   22.1541    2.9510  -67.3118 C   0  0  0  1  0  0  0  0  0  0  0  0
   20.0675    5.3553  -68.1327 C   0  0  0  1  0  0  0  0  0  0  0  0
   18.8202    5.6834  -68.6291 C   0  0  0  1  0  0  0  0  0  0  0  0
   18.2040    4.9855  -69.5879 N   0  0  0  1  0  0  0  0  0  0  0  0
   18.8464    3.9156  -70.0779 C   0  0  0  1  0  0  0  0  0  0  0  0
   20.0982    3.5181  -69.6418 C   0  0  0  1  0  0  0  0  0  0  0  0
   27.4789    0.0014  -66.6492 H   0  0  0  1  0  0  0  0  0  0  0  0
   28.2678    0.4228  -60.1571 H   0  0  0  1  0  0  0  0  0  0  0  0
   24.3907    3.2770  -59.5842 H   0  0  0  1  0  0  0  0  0  0  0  0
   25.0828    2.6060  -61.8063 H   0  0  0  1  0  0  0  0  0  0  0  0
   27.5744    1.0950  -57.9314 H   0  0  0  1  0  0  0  0  0  0  0  0
   23.8920    1.7581  -67.7236 H   0  0  0  1  0  0  0  0  0  0  0  0
   25.1456    3.6035  -68.3775 H   0  0  0  1  0  0  0  0  0  0  0  0
   24.6139    4.5558  -67.0120 H   0  0  0  1  0  0  0  0  0  0  0  0
   23.2502    5.6270  -68.4897 H   0  0  0  1  0  0  0  0  0  0  0  0
   23.4568    4.3837  -69.7004 H   0  0  0  1  0  0  0  0  0  0  0  0
   23.4272    2.8717  -65.1001 H   0  0  0  1  0  0  0  0  0  0  0  0
   23.6676    3.0379  -57.6261 H   0  0  0  1  0  0  0  0  0  0  0  0
   24.7566    4.3875  -57.4131 H   0  0  0  1  0  0  0  0  0  0  0  0
   24.2876    3.4172  -56.0372 H   0  0  0  1  0  0  0  0  0  0  0  0
   21.7722    3.2706  -66.3648 H   0  0  0  1  0  0  0  0  0  0  0  0
   21.6350    2.0701  -67.6273 H   0  0  0  1  0  0  0  0  0  0  0  0
   20.5069    5.9275  -67.3837 H   0  0  0  1  0  0  0  0  0  0  0  0
   18.3364    6.5160  -68.2364 H   0  0  0  1  0  0  0  0  0  0  0  0
   18.3814    3.3574  -70.8221 H   0  0  0  1  0  0  0  0  0  0  0  0
   20.5618    2.6825  -70.0525 H   0  0  0  1  0  0  0  0  0  0  0  0
  1  3  4  0  0  0  0
  1 14  4  0  0  0  0
  1 21  1  0  0  0  0
  2 14  4  0  0  0  0
  2 15  4  0  0  0  0
  2 30  1  0  0  0  0
  3 16  4  0  0  0  0
  4  5  4  0  0  0  0
  4  7  4  0  0  0  0
  4 17  1  0  0  0  0
  5  9  4  0  0  0  0
  5 31  1  0  0  0  0
  6  7  4  0  0  0  0
  6  8  4  0  0  0  0
  6 32  1  0  0  0  0
  7 33  1  0  0  0  0
  8  9  4  0  0  0  0
  8 20  1  0  0  0  0
  9 34  1  0  0  0  0
 10 11  1  0  0  0  0
 10 21  1  0  0  0  0
 10 24  1  0  0  0  0
 10 35  1  0  0  0  0
 11 12  1  0  0  0  0
 11 36  1  0  0  0  0
 11 37  1  0  0  0  0
 12 23  1  0  0  0  0
 12 38  1  0  0  0  0
 12 39  1  0  0  0  0
 13 23  1  0  0  0  0
 13 25  4  0  0  0  0
 13 29  4  0  0  0  0
 15 16  4  0  0  0  0
 15 18  4  0  0  0  0
 16 17  4  0  0  0  0
 17 19  4  0  0  0  0
 18 19  4  0  0  0  0
 20 22  1  0  0  0  0
 21 40  1  0  0  0  0
 22 41  1  0  0  0  0
 22 42  1  0  0  0  0
 22 43  1  0  0  0  0
 23 24  1  0  0  0  0
 24 44  1  0  0  0  0
 24 45  1  0  0  0  0
 25 26  4  0  0  0  0
 25 46  1  0  0  0  0
 26 27  4  0  0  0  0
 26 47  1  0  0  0  0
 27 28  4  0  0  0  0
 28 29  4  0  0  0  0
 28 48  1  0  0  0  0
 29 49  1  0  0  0  0
M  END
> <ConfClashScore>
0 

> <ConfOneFourInteractionScore>
-0.986948 

> <ConfScore>
-0.0762798 

> <ConfScorePBest>
0.00524593 

> <ConfTolerance>
0.320362 

> <HETNAM>
     OWQ A 303  OWQ                                                       

> <pdb_OW>
Q_303 -16.5129 3.80749 7.62812 0.15963 1.39178 -0.28144 -3.20151 0 0 0 -1.30514 0 0 0 0 0 0 0 0 -8.31393

$$$$
6yky_lig_1.pdb
 OpenBabel04162415593D

 49 53  0  0  0  0  0  0  0  0999 V2000
   25.1047    1.8134  -65.3760 C   0  0  0  1  0  0  0  0  0  0  0  0
   26.9167    0.5034  -65.9325 C   0  0  0  1  0  0  0  0  0  0  0  0
   25.4177    1.8281  -64.0982 N   0  0  0  1  0  0  0  0  0  0  0  0
   26.7284    1.4697  -61.1391 C   0  0  0  1  0  0  0  0  0  0  0  0
   25.5731    2.2180  -61.0154 C   0  0  0  1  0  0  0  0  0  0  0  0
   27.2055    1.8183  -58.8157 C   0  0  0  1  0  0  0  0  0  0  0  0
   27.5473    1.2719  -60.0382 C   0  0  0  1  0  0  0  0  0  0  0  0
   26.0467    2.5689  -58.6916 C   0  0  0  1  0  0  0  0  0  0  0  0
   25.2304    2.7661  -59.7893 C   0  0  0  1  0  0  0  0  0  0  0  0
   23.0838    3.1443  -64.8836 C   0  0  0  1  0  0  0  0  0  0  0  0
   21.8143    3.4932  -65.6034 C   0  0  0  1  0  0  0  0  0  0  0  0
   22.2185    4.8041  -66.3343 C   0  0  0  1  0  0  0  0  0  0  0  0
   23.5698    6.6909  -65.4778 C   0  0  0  1  0  0  0  0  0  0  0  0
   25.8297    1.1706  -66.2748 N   0  0  0  1  0  0  0  0  0  0  0  0
   27.2965    0.4857  -64.5857 C   0  0  0  1  0  0  0  0  0  0  0  0
   26.4935    1.1851  -63.6615 C   0  0  0  1  0  0  0  0  0  0  0  0
   27.0808    1.0061  -62.4395 N   0  0  0  1  0  0  0  0  0  0  0  0
   28.3159   -0.0766  -63.9004 N   0  0  0  1  0  0  0  0  0  0  0  0
   28.2164    0.2092  -62.6490 N   0  0  0  1  0  0  0  0  0  0  0  0
   25.6973    3.0023  -57.4570 O   0  0  0  1  0  0  0  0  0  0  0  0
   24.0073    2.4760  -65.7837 N   0  0  0  1  0  0  0  0  0  0  0  0
   24.4772    3.7517  -57.3456 C   0  0  0  1  0  0  0  0  0  0  0  0
   23.1672    5.3751  -65.4142 N   0  0  0  1  0  0  0  0  0  0  0  0
   23.6638    4.4483  -64.4141 C   0  0  0  1  0  0  0  0  0  0  0  0
   22.7796    7.6961  -64.9515 C   0  0  0  1  0  0  0  0  0  0  0  0
   23.2235    9.0021  -65.0334 C   0  0  0  1  0  0  0  0  0  0  0  0
   24.3826    9.3502  -65.6004 N   0  0  0  1  0  0  0  0  0  0  0  0
   25.1367    8.3661  -66.1104 C   0  0  0  1  0  0  0  0  0  0  0  0
   24.7709    7.0319  -66.0686 C   0  0  0  1  0  0  0  0  0  0  0  0
   27.4790    0.0014  -66.6492 H   0  0  0  1  0  0  0  0  0  0  0  0
   24.9608    2.3698  -61.8423 H   0  0  0  1  0  0  0  0  0  0  0  0
   27.8177    1.6665  -57.9888 H   0  0  0  1  0  0  0  0  0  0  0  0
   28.4188    0.7120  -60.1323 H   0  0  0  1  0  0  0  0  0  0  0  0
   24.3588    3.3258  -59.6952 H   0  0  0  1  0  0  0  0  0  0  0  0
   22.8753    2.5081  -64.0489 H   0  0  0  1  0  0  0  0  0  0  0  0
   21.5372    2.7285  -66.2986 H   0  0  0  1  0  0  0  0  0  0  0  0
   21.0103    3.6609  -64.9176 H   0  0  0  1  0  0  0  0  0  0  0  0
   21.3753    5.4480  -66.4735 H   0  0  0  1  0  0  0  0  0  0  0  0
   22.6708    4.5979  -67.2818 H   0  0  0  1  0  0  0  0  0  0  0  0
   23.8199    2.5098  -66.7451 H   0  0  0  1  0  0  0  0  0  0  0  0
   24.4888    4.5594  -58.0473 H   0  0  0  1  0  0  0  0  0  0  0  0
   24.3884    4.1426  -56.3535 H   0  0  0  1  0  0  0  0  0  0  0  0
   23.6454    3.1113  -57.5530 H   0  0  0  1  0  0  0  0  0  0  0  0
   23.3083    4.7027  -63.4374 H   0  0  0  1  0  0  0  0  0  0  0  0
   24.7334    4.4185  -64.4084 H   0  0  0  1  0  0  0  0  0  0  0  0
   21.8683    7.4733  -64.5026 H   0  0  0  1  0  0  0  0  0  0  0  0
   22.6250    9.7526  -64.6332 H   0  0  0  1  0  0  0  0  0  0  0  0
   26.0405    8.6174  -66.5594 H   0  0  0  1  0  0  0  0  0  0  0  0
   25.3886    6.3002  -66.4742 H   0  0  0  1  0  0  0  0  0  0  0  0
  1  3  4  0  0  0  0
  1 14  4  0  0  0  0
  1 21  1  0  0  0  0
  2 14  4  0  0  0  0
  2 15  4  0  0  0  0
  2 30  1  0  0  0  0
  3 16  4  0  0  0  0
  4  5  4  0  0  0  0
  4  7  4  0  0  0  0
  4 17  1  0  0  0  0
  5  9  4  0  0  0  0
  5 31  1  0  0  0  0
  6  7  4  0  0  0  0
  6  8  4  0  0  0  0
  6 32  1  0  0  0  0
  7 33  1  0  0  0  0
  8  9  4  0  0  0  0
  8 20  1  0  0  0  0
  9 34  1  0  0  0  0
 10 11  1  0  0  0  0
 10 21  1  0  0  0  0
 10 24  1  0  0  0  0
 10 35  1  0  0  0  0
 11 12  1  0  0  0  0
 11 36  1  0  0  0  0
 11 37  1  0  0  0  0
 12 23  1  0  0  0  0
 12 38  1  0  0  0  0
 12 39  1  0  0  0  0
 13 23  1  0  0  0  0
 13 25  4  0  0  0  0
 13 29  4  0  0  0  0
 15 16  4  0  0  0  0
 15 18  4  0  0  0  0
 16 17  4  0  0  0  0
 17 19  4  0  0  0  0
 18 19  4  0  0  0  0
 20 22  1  0  0  0  0
 21 40  1  0  0  0  0
 22 41  1  0  0  0  0
 22 42  1  0  0  0  0
 22 43  1  0  0  0  0
 23 24  1  0  0  0  0
 24 44  1  0  0  0  0
 24 45  1  0  0  0  0
 25 26  4  0  0  0  0
 25 46  1  0  0  0  0
 26 27  4  0  0  0  0
 26 47  1  0  0  0  0
 27 28  4  0  0  0  0
 28 29  4  0  0  0  0
 28 48  1  0  0  0  0
 29 49  1  0  0  0  0
M  END
> <ConfClashScore>
0 

> <ConfOneFourInteractionScore>
-0.986948 

> <ConfScore>
-0.0752854 

> <ConfScorePBest>
0.0052326 

> <ConfTolerance>
0.480032 

> <HETNAM>
     OWQ A 303  OWQ                                                       

> <pdb_OW>
Q_303 -16.5129 3.80749 7.62812 0.15963 1.39178 -0.28144 -3.20151 0 0 0 -1.30514 0 0 0 0 0 0 0 0 -8.31393

$$$$
6yky_lig_1.pdb
 OpenBabel04162415593D

 49 53  0  0  0  0  0  0  0  0999 V2000
   25.1047    1.8134  -65.3759 C   0  0  0  1  0  0  0  0  0  0  0  0
   26.9167    0.5034  -65.9326 C   0  0  0  1  0  0  0  0  0  0  0  0
   25.4178    1.8282  -64.0982 N   0  0  0  1  0  0  0  0  0  0  0  0
   26.6876    1.3783  -61.1215 C   0  0  0  1  0  0  0  0  0  0  0  0
   27.4114    0.9330  -60.0316 C   0  0  0  1  0  0  0  0  0  0  0  0
   25.0944    2.3988  -59.6493 C   0  0  0  1  0  0  0  0  0  0  0  0
   25.5259    2.1101  -60.9302 C   0  0  0  1  0  0  0  0  0  0  0  0
   25.8202    1.9522  -58.5560 C   0  0  0  1  0  0  0  0  0  0  0  0
   26.9785    1.2226  -58.7470 C   0  0  0  1  0  0  0  0  0  0  0  0
   23.5490    2.7537  -67.0538 C   0  0  0  1  0  0  0  0  0  0  0  0
   22.5305    3.8554  -67.0797 C   0  0  0  1  0  0  0  0  0  0  0  0
   21.2342    3.0931  -66.6866 C   0  0  0  1  0  0  0  0  0  0  0  0
   20.4817    0.8606  -67.4264 C   0  0  0  1  0  0  0  0  0  0  0  0
   25.8296    1.1707  -66.2747 N   0  0  0  1  0  0  0  0  0  0  0  0
   27.2965    0.4857  -64.5857 C   0  0  0  1  0  0  0  0  0  0  0  0
   26.4936    1.1851  -63.6614 C   0  0  0  1  0  0  0  0  0  0  0  0
   27.0809    1.0061  -62.4395 N   0  0  0  1  0  0  0  0  0  0  0  0
   28.3159   -0.0766  -63.9004 N   0  0  0  1  0  0  0  0  0  0  0  0
   28.2164    0.2093  -62.6490 N   0  0  0  1  0  0  0  0  0  0  0  0
   25.3406    2.2641  -57.3286 O   0  0  0  1  0  0  0  0  0  0  0  0
   23.9888    2.5046  -65.6920 N   0  0  0  1  0  0  0  0  0  0  0  0
   24.3193    3.2716  -57.2599 C   0  0  0  1  0  0  0  0  0  0  0  0
   21.4759    1.7896  -67.2481 N   0  0  0  1  0  0  0  0  0  0  0  0
   22.8589    1.5405  -67.6097 C   0  0  0  1  0  0  0  0  0  0  0  0
   20.1213    0.0726  -66.3489 C   0  0  0  1  0  0  0  0  0  0  0  0
   19.1185   -0.8634  -66.5160 C   0  0  0  1  0  0  0  0  0  0  0  0
   18.4749   -1.0525  -67.6719 N   0  0  0  1  0  0  0  0  0  0  0  0
   18.8374   -0.2846  -68.7094 C   0  0  0  1  0  0  0  0  0  0  0  0
   19.8278    0.6788  -68.6293 C   0  0  0  1  0  0  0  0  0  0  0  0
   27.4789    0.0014  -66.6492 H   0  0  0  1  0  0  0  0  0  0  0  0
   28.2808    0.3806  -60.1752 H   0  0  0  1  0  0  0  0  0  0  0  0
   24.2250    2.9512  -59.5056 H   0  0  0  1  0  0  0  0  0  0  0  0
   24.9792    2.4418  -61.7503 H   0  0  0  1  0  0  0  0  0  0  0  0
   27.5252    0.8909  -57.9269 H   0  0  0  1  0  0  0  0  0  0  0  0
   24.3921    3.0123  -67.6597 H   0  0  0  1  0  0  0  0  0  0  0  0
   22.4482    4.2879  -68.0549 H   0  0  0  1  0  0  0  0  0  0  0  0
   22.7644    4.6199  -66.3686 H   0  0  0  1  0  0  0  0  0  0  0  0
   21.1187    3.0439  -65.6240 H   0  0  0  1  0  0  0  0  0  0  0  0
   20.3683    3.5489  -67.1194 H   0  0  0  1  0  0  0  0  0  0  0  0
   23.4432    2.8593  -64.9592 H   0  0  0  1  0  0  0  0  0  0  0  0
   24.7068    4.1987  -57.6277 H   0  0  0  1  0  0  0  0  0  0  0  0
   24.0071    3.3939  -56.2437 H   0  0  0  1  0  0  0  0  0  0  0  0
   23.4832    2.9728  -57.8569 H   0  0  0  1  0  0  0  0  0  0  0  0
   22.9781    1.4778  -68.6713 H   0  0  0  1  0  0  0  0  0  0  0  0
   23.2241    0.6432  -67.1557 H   0  0  0  1  0  0  0  0  0  0  0  0
   20.5960    0.1823  -65.4301 H   0  0  0  1  0  0  0  0  0  0  0  0
   18.8511   -1.4509  -65.7005 H   0  0  0  1  0  0  0  0  0  0  0  0
   18.3508   -0.4195  -69.6186 H   0  0  0  1  0  0  0  0  0  0  0  0
   20.0751    1.2547  -69.4592 H   0  0  0  1  0  0  0  0  0  0  0  0
  1  3  4  0  0  0  0
  1 14  4  0  0  0  0
  1 21  1  0  0  0  0
  2 14  4  0  0  0  0
  2 15  4  0  0  0  0
  2 30  1  0  0  0  0
  3 16  4  0  0  0  0
  4  5  4  0  0  0  0
  4  7  4  0  0  0  0
  4 17  1  0  0  0  0
  5  9  4  0  0  0  0
  5 31  1  0  0  0  0
  6  7  4  0  0  0  0
  6  8  4  0  0  0  0
  6 32  1  0  0  0  0
  7 33  1  0  0  0  0
  8  9  4  0  0  0  0
  8 20  1  0  0  0  0
  9 34  1  0  0  0  0
 10 11  1  0  0  0  0
 10 21  1  0  0  0  0
 10 24  1  0  0  0  0
 10 35  1  0  0  0  0
 11 12  1  0  0  0  0
 11 36  1  0  0  0  0
 11 37  1  0  0  0  0
 12 23  1  0  0  0  0
 12 38  1  0  0  0  0
 12 39  1  0  0  0  0
 13 23  1  0  0  0  0
 13 25  4  0  0  0  0
 13 29  4  0  0  0  0
 15 16  4  0  0  0  0
 15 18  4  0  0  0  0
 16 17  4  0  0  0  0
 17 19  4  0  0  0  0
 18 19  4  0  0  0  0
 20 22  1  0  0  0  0
 21 40  1  0  0  0  0
 22 41  1  0  0  0  0
 22 42  1  0  0  0  0
 22 43  1  0  0  0  0
 23 24  1  0  0  0  0
 24 44  1  0  0  0  0
 24 45  1  0  0  0  0
 25 26  4  0  0  0  0
 25 46  1  0  0  0  0
 26 27  4  0  0  0  0
 26 47  1  0  0  0  0
 27 28  4  0  0  0  0
 28 29  4  0  0  0  0
 28 48  1  0  0  0  0
 29 49  1  0  0  0  0
M  END
> <ConfClashScore>
0 

> <ConfOneFourInteractionScore>
-0.986948 

> <ConfScore>
-0.0747058 

> <ConfScorePBest>
0.00521927 

> <ConfTolerance>
0.44997 

> <HETNAM>
     OWQ A 303  OWQ                                                       

> <pdb_OW>
Q_303 -16.5129 3.80749 7.62812 0.15963 1.39178 -0.28144 -3.20151 0 0 0 -1.30514 0 0 0 0 0 0 0 0 -8.31393

$$$$
6yky_lig_1.pdb
 OpenBabel04162415593D

 49 53  0  0  0  0  0  0  0  0999 V2000
   25.1049    1.8136  -65.3761 C   0  0  0  1  0  0  0  0  0  0  0  0
   26.9167    0.5034  -65.9326 C   0  0  0  1  0  0  0  0  0  0  0  0
   25.4179    1.8285  -64.0984 N   0  0  0  1  0  0  0  0  0  0  0  0
   26.7670    1.4475  -61.1216 C   0  0  0  1  0  0  0  0  0  0  0  0
   26.1336    2.6609  -60.9306 C   0  0  0  1  0  0  0  0  0  0  0  0
   26.9547    1.1693  -58.7478 C   0  0  0  1  0  0  0  0  0  0  0  0
   27.1806    0.7017  -60.0287 C   0  0  0  1  0  0  0  0  0  0  0  0
   26.3195    2.3864  -58.5561 C   0  0  0  1  0  0  0  0  0  0  0  0
   25.9071    3.1298  -59.6459 C   0  0  0  1  0  0  0  0  0  0  0  0
   23.1167    3.1951  -64.8896 C   0  0  0  1  0  0  0  0  0  0  0  0
   21.9037    2.3245  -64.4594 C   0  0  0  1  0  0  0  0  0  0  0  0
   20.7329    3.2808  -64.1499 C   0  0  0  1  0  0  0  0  0  0  0  0
   20.4997    5.7561  -64.6892 C   0  0  0  1  0  0  0  0  0  0  0  0
   25.8297    1.1708  -66.2748 N   0  0  0  1  0  0  0  0  0  0  0  0
   27.2965    0.4858  -64.5858 C   0  0  0  1  0  0  0  0  0  0  0  0
   26.4937    1.1853  -63.6615 C   0  0  0  1  0  0  0  0  0  0  0  0
   27.0810    1.0062  -62.4396 N   0  0  0  1  0  0  0  0  0  0  0  0
   28.3158   -0.0766  -63.9005 N   0  0  0  1  0  0  0  0  0  0  0  0
   28.2164    0.2092  -62.6490 N   0  0  0  1  0  0  0  0  0  0  0  0
   25.9680    2.8303  -57.3260 O   0  0  0  1  0  0  0  0  0  0  0  0
   24.0076    2.4764  -65.7839 N   0  0  0  1  0  0  0  0  0  0  0  0
   25.0599    3.9411  -57.2639 C   0  0  0  1  0  0  0  0  0  0  0  0
   21.1585    4.5465  -64.8118 N   0  0  0  1  0  0  0  0  0  0  0  0
   22.3748    4.3352  -65.6138 C   0  0  0  1  0  0  0  0  0  0  0  0
   19.4737    5.9105  -63.7753 C   0  0  0  1  0  0  0  0  0  0  0  0
   18.8449    7.1376  -63.6829 C   0  0  0  1  0  0  0  0  0  0  0  0
   19.1747    8.1909  -64.4366 N   0  0  0  1  0  0  0  0  0  0  0  0
   20.1683    8.0258  -65.3214 C   0  0  0  1  0  0  0  0  0  0  0  0
   20.8538    6.8338  -65.4774 C   0  0  0  1  0  0  0  0  0  0  0  0
   27.4790    0.0013  -66.6492 H   0  0  0  1  0  0  0  0  0  0  0  0
   25.8268    3.2222  -61.7506 H   0  0  0  1  0  0  0  0  0  0  0  0
   27.2614    0.6080  -57.9278 H   0  0  0  1  0  0  0  0  0  0  0  0
   27.6608   -0.2095  -60.1725 H   0  0  0  1  0  0  0  0  0  0  0  0
   25.4269    4.0409  -59.5021 H   0  0  0  1  0  0  0  0  0  0  0  0
   23.6694    3.5524  -64.0460 H   0  0  0  1  0  0  0  0  0  0  0  0
   21.6322    1.6592  -65.2522 H   0  0  0  1  0  0  0  0  0  0  0  0
   22.1525    1.7574  -63.5867 H   0  0  0  1  0  0  0  0  0  0  0  0
   20.6156    3.4179  -63.0953 H   0  0  0  1  0  0  0  0  0  0  0  0
   19.8173    2.9167  -64.5670 H   0  0  0  1  0  0  0  0  0  0  0  0
   23.7968    2.4743  -66.7409 H   0  0  0  1  0  0  0  0  0  0  0  0
   24.1026    3.6411  -57.6360 H   0  0  0  1  0  0  0  0  0  0  0  0
   25.4384    4.7447  -57.8605 H   0  0  0  1  0  0  0  0  0  0  0  0
   24.9621    4.2653  -56.2488 H   0  0  0  1  0  0  0  0  0  0  0  0
   22.9727    5.2222  -65.6356 H   0  0  0  1  0  0  0  0  0  0  0  0
   22.1240    4.0487  -66.6137 H   0  0  0  1  0  0  0  0  0  0  0  0
   19.1807    5.1180  -63.1688 H   0  0  0  1  0  0  0  0  0  0  0  0
   18.0758    7.2471  -62.9915 H   0  0  0  1  0  0  0  0  0  0  0  0
   20.4369    8.8330  -65.9198 H   0  0  0  1  0  0  0  0  0  0  0  0
   21.6208    6.7509  -66.1747 H   0  0  0  1  0  0  0  0  0  0  0  0
  1  3  4  0  0  0  0
  1 14  4  0  0  0  0
  1 21  1  0  0  0  0
  2 14  4  0  0  0  0
  2 15  4  0  0  0  0
  2 30  1  0  0  0  0
  3 16  4  0  0  0  0
  4  5  4  0  0  0  0
  4  7  4  0  0  0  0
  4 17  1  0  0  0  0
  5  9  4  0  0  0  0
  5 31  1  0  0  0  0
  6  7  4  0  0  0  0
  6  8  4  0  0  0  0
  6 32  1  0  0  0  0
  7 33  1  0  0  0  0
  8  9  4  0  0  0  0
  8 20  1  0  0  0  0
  9 34  1  0  0  0  0
 10 11  1  0  0  0  0
 10 21  1  0  0  0  0
 10 24  1  0  0  0  0
 10 35  1  0  0  0  0
 11 12  1  0  0  0  0
 11 36  1  0  0  0  0
 11 37  1  0  0  0  0
 12 23  1  0  0  0  0
 12 38  1  0  0  0  0
 12 39  1  0  0  0  0
 13 23  1  0  0  0  0
 13 25  4  0  0  0  0
 13 29  4  0  0  0  0
 15 16  4  0  0  0  0
 15 18  4  0  0  0  0
 16 17  4  0  0  0  0
 17 19  4  0  0  0  0
 18 19  4  0  0  0  0
 20 22  1  0  0  0  0
 21 40  1  0  0  0  0
 22 41  1  0  0  0  0
 22 42  1  0  0  0  0
 22 43  1  0  0  0  0
 23 24  1  0  0  0  0
 24 44  1  0  0  0  0
 24 45  1  0  0  0  0
 25 26  4  0  0  0  0
 25 46  1  0  0  0  0
 26 27  4  0  0  0  0
 26 47  1  0  0  0  0
 27 28  4  0  0  0  0
 28 29  4  0  0  0  0
 28 48  1  0  0  0  0
 29 49  1  0  0  0  0
M  END
> <ConfClashScore>
0 

> <ConfOneFourInteractionScore>
-0.986948 

> <ConfScore>
-0.0745008 

> <ConfScorePBest>
0.00520594 

> <ConfTolerance>
0.358736 

> <HETNAM>
     OWQ A 303  OWQ                                                       

> <pdb_OW>
Q_303 -16.5129 3.80749 7.62812 0.15963 1.39178 -0.28144 -3.20151 0 0 0 -1.30514 0 0 0 0 0 0 0 0 -8.31393

$$$$
6yky_lig_1.pdb
 OpenBabel04162415593D

 49 53  0  0  0  0  0  0  0  0999 V2000
   25.1048    1.8135  -65.3760 C   0  0  0  1  0  0  0  0  0  0  0  0
   26.9167    0.5034  -65.9325 C   0  0  0  1  0  0  0  0  0  0  0  0
   25.4178    1.8284  -64.0982 N   0  0  0  1  0  0  0  0  0  0  0  0
   26.7286    1.4699  -61.1390 C   0  0  0  1  0  0  0  0  0  0  0  0
   26.9529    0.6698  -60.0347 C   0  0  0  1  0  0  0  0  0  0  0  0
   25.6554    3.0979  -59.7443 C   0  0  0  1  0  0  0  0  0  0  0  0
   26.0765    2.6845  -60.9942 C   0  0  0  1  0  0  0  0  0  0  0  0
   25.8804    2.2955  -58.6366 C   0  0  0  1  0  0  0  0  0  0  0  0
   26.5305    1.0845  -58.7813 C   0  0  0  1  0  0  0  0  0  0  0  0
   23.0846    3.1207  -64.8420 C   0  0  0  1  0  0  0  0  0  0  0  0
   22.0138    2.1579  -64.4197 C   0  0  0  1  0  0  0  0  0  0  0  0
   21.0159    2.2586  -65.6071 C   0  0  0  1  0  0  0  0  0  0  0  0
   20.2564    4.2943  -66.8560 C   0  0  0  1  0  0  0  0  0  0  0  0
   25.8297    1.1706  -66.2748 N   0  0  0  1  0  0  0  0  0  0  0  0
   27.2965    0.4857  -64.5857 C   0  0  0  1  0  0  0  0  0  0  0  0
   26.4936    1.1852  -63.6614 C   0  0  0  1  0  0  0  0  0  0  0  0
   27.0809    1.0062  -62.4395 N   0  0  0  1  0  0  0  0  0  0  0  0
   28.3159   -0.0766  -63.9004 N   0  0  0  1  0  0  0  0  0  0  0  0
   28.2164    0.2092  -62.6490 N   0  0  0  1  0  0  0  0  0  0  0  0
   25.5105    2.5914  -57.3680 O   0  0  0  1  0  0  0  0  0  0  0  0
   23.9919    2.4856  -65.7896 N   0  0  0  1  0  0  0  0  0  0  0  0
   24.6840    3.7505  -57.1788 C   0  0  0  1  0  0  0  0  0  0  0  0
   21.1797    3.6293  -66.0157 N   0  0  0  1  0  0  0  0  0  0  0  0
   22.3714    4.2716  -65.4931 C   0  0  0  1  0  0  0  0  0  0  0  0
   19.1597    3.6252  -67.3670 C   0  0  0  1  0  0  0  0  0  0  0  0
   18.2806    4.3140  -68.1807 C   0  0  0  1  0  0  0  0  0  0  0  0
   18.4350    5.6012  -68.5059 N   0  0  0  1  0  0  0  0  0  0  0  0
   19.5050    6.2364  -68.0071 C   0  0  0  1  0  0  0  0  0  0  0  0
   20.4327    5.6249  -67.1820 C   0  0  0  1  0  0  0  0  0  0  0  0
   27.4790    0.0013  -66.6492 H   0  0  0  1  0  0  0  0  0  0  0  0
   27.4385   -0.2434  -60.1441 H   0  0  0  1  0  0  0  0  0  0  0  0
   25.1698    4.0111  -59.6350 H   0  0  0  1  0  0  0  0  0  0  0  0
   25.9042    3.2848  -61.8259 H   0  0  0  1  0  0  0  0  0  0  0  0
   26.7028    0.4842  -57.9497 H   0  0  0  1  0  0  0  0  0  0  0  0
   23.6371    3.4594  -63.9905 H   0  0  0  1  0  0  0  0  0  0  0  0
   21.5579    2.4603  -63.5002 H   0  0  0  1  0  0  0  0  0  0  0  0
   22.3999    1.1653  -64.3176 H   0  0  0  1  0  0  0  0  0  0  0  0
   20.0126    2.0642  -65.2900 H   0  0  0  1  0  0  0  0  0  0  0  0
   21.2786    1.5836  -66.3947 H   0  0  0  1  0  0  0  0  0  0  0  0
   23.7977    2.5429  -66.7484 H   0  0  0  1  0  0  0  0  0  0  0  0
   23.8643    3.7207  -57.8659 H   0  0  0  1  0  0  0  0  0  0  0  0
   25.2631    4.6334  -57.3529 H   0  0  0  1  0  0  0  0  0  0  0  0
   24.3090    3.7613  -56.1767 H   0  0  0  1  0  0  0  0  0  0  0  0
   22.1236    5.0294  -64.7796 H   0  0  0  1  0  0  0  0  0  0  0  0
   22.9589    4.6989  -66.2786 H   0  0  0  1  0  0  0  0  0  0  0  0
   18.9995    2.6222  -67.1432 H   0  0  0  1  0  0  0  0  0  0  0  0
   17.4566    3.8048  -68.5595 H   0  0  0  1  0  0  0  0  0  0  0  0
   19.6446    7.2375  -68.2518 H   0  0  0  1  0  0  0  0  0  0  0  0
   21.2472    6.1571  -66.8146 H   0  0  0  1  0  0  0  0  0  0  0  0
  1  3  4  0  0  0  0
  1 14  4  0  0  0  0
  1 21  1  0  0  0  0
  2 14  4  0  0  0  0
  2 15  4  0  0  0  0
  2 30  1  0  0  0  0
  3 16  4  0  0  0  0
  4  5  4  0  0  0  0
  4  7  4  0  0  0  0
  4 17  1  0  0  0  0
  5  9  4  0  0  0  0
  5 31  1  0  0  0  0
  6  7  4  0  0  0  0
  6  8  4  0  0  0  0
  6 32  1  0  0  0  0
  7 33  1  0  0  0  0
  8  9  4  0  0  0  0
  8 20  1  0  0  0  0
  9 34  1  0  0  0  0
 10 11  1  0  0  0  0
 10 21  1  0  0  0  0
 10 24  1  0  0  0  0
 10 35  1  0  0  0  0
 11 12  1  0  0  0  0
 11 36  1  0  0  0  0
 11 37  1  0  0  0  0
 12 23  1  0  0  0  0
 12 38  1  0  0  0  0
 12 39  1  0  0  0  0
 13 23  1  0  0  0  0
 13 25  4  0  0  0  0
 13 29  4  0  0  0  0
 15 16  4  0  0  0  0
 15 18  4  0  0  0  0
 16 17  4  0  0  0  0
 17 19  4  0  0  0  0
 18 19  4  0  0  0  0
 20 22  1  0  0  0  0
 21 40  1  0  0  0  0
 22 41  1  0  0  0  0
 22 42  1  0  0  0  0
 22 43  1  0  0  0  0
 23 24  1  0  0  0  0
 24 44  1  0  0  0  0
 24 45  1  0  0  0  0
 25 26  4  0  0  0  0
 25 46  1  0  0  0  0
 26 27  4  0  0  0  0
 26 47  1  0  0  0  0
 27 28  4  0  0  0  0
 28 29  4  0  0  0  0
 28 48  1  0  0  0  0
 29 49  1  0  0  0  0
M  END
> <ConfClashScore>
0 

> <ConfOneFourInteractionScore>
-0.986948 

> <ConfScore>
-0.0742768 

> <ConfScorePBest>
0.00519261 

> <ConfTolerance>
0.498178 

> <HETNAM>
     OWQ A 303  OWQ                                                       

> <pdb_OW>
Q_303 -16.5129 3.80749 7.62812 0.15963 1.39178 -0.28144 -3.20151 0 0 0 -1.30514 0 0 0 0 0 0 0 0 -8.31393

$$$$
6yky_lig_1.pdb
 OpenBabel04162415593D

 49 53  0  0  0  0  0  0  0  0999 V2000
   25.1048    1.8136  -65.3760 C   0  0  0  1  0  0  0  0  0  0  0  0
   26.9167    0.5034  -65.9325 C   0  0  0  1  0  0  0  0  0  0  0  0
   25.4179    1.8284  -64.0982 N   0  0  0  1  0  0  0  0  0  0  0  0
   26.8199    1.5226  -61.1374 C   0  0  0  1  0  0  0  0  0  0  0  0
   25.9258    2.5635  -60.9723 C   0  0  0  1  0  0  0  0  0  0  0  0
   27.3452    1.6002  -58.7996 C   0  0  0  1  0  0  0  0  0  0  0  0
   27.5326    1.0420  -60.0500 C   0  0  0  1  0  0  0  0  0  0  0  0
   26.4485    2.6443  -58.6339 C   0  0  0  1  0  0  0  0  0  0  0  0
   25.7380    3.1233  -59.7183 C   0  0  0  1  0  0  0  0  0  0  0  0
   23.0213    3.0521  -64.8816 C   0  0  0  1  0  0  0  0  0  0  0  0
   22.0233    1.9798  -64.3907 C   0  0  0  1  0  0  0  0  0  0  0  0
   20.6515    2.6057  -64.3834 C   0  0  0  1  0  0  0  0  0  0  0  0
   19.8831    4.7359  -65.5926 C   0  0  0  1  0  0  0  0  0  0  0  0
   25.8297    1.1707  -66.2748 N   0  0  0  1  0  0  0  0  0  0  0  0
   27.2965    0.4857  -64.5857 C   0  0  0  1  0  0  0  0  0  0  0  0
   26.4937    1.1852  -63.6614 C   0  0  0  1  0  0  0  0  0  0  0  0
   27.0809    1.0061  -62.4395 N   0  0  0  1  0  0  0  0  0  0  0  0
   28.3159   -0.0766  -63.9004 N   0  0  0  1  0  0  0  0  0  0  0  0
   28.2164    0.2093  -62.6490 N   0  0  0  1  0  0  0  0  0  0  0  0
   26.1864    3.2702  -57.4658 O   0  0  0  1  0  0  0  0  0  0  0  0
   24.0035    2.4788  -65.7852 N   0  0  0  1  0  0  0  0  0  0  0  0
   26.9278    2.9113  -56.2894 C   0  0  0  1  0  0  0  0  0  0  0  0
   20.8925    3.8667  -65.2420 N   0  0  0  1  0  0  0  0  0  0  0  0
   22.1236    4.0374  -65.6040 C   0  0  0  1  0  0  0  0  0  0  0  0
   19.3520    4.6428  -66.8658 C   0  0  0  1  0  0  0  0  0  0  0  0
   18.3362    5.5072  -67.2271 C   0  0  0  1  0  0  0  0  0  0  0  0
   17.8371    6.4377  -66.4079 N   0  0  0  1  0  0  0  0  0  0  0  0
   18.3643    6.5197  -65.1780 C   0  0  0  1  0  0  0  0  0  0  0  0
   19.3802    5.6922  -64.7324 C   0  0  0  1  0  0  0  0  0  0  0  0
   27.4790    0.0014  -66.6492 H   0  0  0  1  0  0  0  0  0  0  0  0
   25.3940    2.9268  -61.7890 H   0  0  0  1  0  0  0  0  0  0  0  0
   27.8770    1.2370  -57.9830 H   0  0  0  1  0  0  0  0  0  0  0  0
   28.2083    0.2613  -60.1751 H   0  0  0  1  0  0  0  0  0  0  0  0
   25.0621    3.9040  -59.5933 H   0  0  0  1  0  0  0  0  0  0  0  0
   23.5221    3.5183  -64.0589 H   0  0  0  1  0  0  0  0  0  0  0  0
   22.2852    1.6624  -63.4031 H   0  0  0  1  0  0  0  0  0  0  0  0
   22.0372    1.1385  -65.0517 H   0  0  0  1  0  0  0  0  0  0  0  0
   20.3421    2.8604  -63.3912 H   0  0  0  1  0  0  0  0  0  0  0  0
   19.9239    1.9606  -64.8299 H   0  0  0  1  0  0  0  0  0  0  0  0
   23.8581    2.5808  -66.7491 H   0  0  0  1  0  0  0  0  0  0  0  0
   27.9706    3.0809  -56.4589 H   0  0  0  1  0  0  0  0  0  0  0  0
   26.7662    1.8771  -56.0679 H   0  0  0  1  0  0  0  0  0  0  0  0
   26.5990    3.5088  -55.4648 H   0  0  0  1  0  0  0  0  0  0  0  0
   22.4277    5.0347  -65.3640 H   0  0  0  1  0  0  0  0  0  0  0  0
   22.2064    3.8830  -66.6596 H   0  0  0  1  0  0  0  0  0  0  0  0
   19.7103    3.9354  -67.5388 H   0  0  0  1  0  0  0  0  0  0  0  0
   17.9399    5.4297  -68.1855 H   0  0  0  1  0  0  0  0  0  0  0  0
   17.9917    7.2402  -64.5271 H   0  0  0  1  0  0  0  0  0  0  0  0
   19.7577    5.7888  -63.7681 H   0  0  0  1  0  0  0  0  0  0  0  0
  1  3  4  0  0  0  0
  1 14  4  0  0  0  0
  1 21  1  0  0  0  0
  2 14  4  0  0  0  0
  2 15  4  0  0  0  0
  2 30  1  0  0  0  0
  3 16  4  0  0  0  0
  4  5  4  0  0  0  0
  4  7  4  0  0  0  0
  4 17  1  0  0  0  0
  5  9  4  0  0  0  0
  5 31  1  0  0  0  0
  6  7  4  0  0  0  0
  6  8  4  0  0  0  0
  6 32  1  0  0  0  0
  7 33  1  0  0  0  0
  8  9  4  0  0  0  0
  8 20  1  0  0  0  0
  9 34  1  0  0  0  0
 10 11  1  0  0  0  0
 10 21  1  0  0  0  0
 10 24  1  0  0  0  0
 10 35  1  0  0  0  0
 11 12  1  0  0  0  0
 11 36  1  0  0  0  0
 11 37  1  0  0  0  0
 12 23  1  0  0  0  0
 12 38  1  0  0  0  0
 12 39  1  0  0  0  0
 13 23  1  0  0  0  0
 13 25  4  0  0  0  0
 13 29  4  0  0  0  0
 15 16  4  0  0  0  0
 15 18  4  0  0  0  0
 16 17  4  0  0  0  0
 17 19  4  0  0  0  0
 18 19  4  0  0  0  0
 20 22  1  0  0  0  0
 21 40  1  0  0  0  0
 22 41  1  0  0  0  0
 22 42  1  0  0  0  0
 22 43  1  0  0  0  0
 23 24  1  0  0  0  0
 24 44  1  0  0  0  0
 24 45  1  0  0  0  0
 25 26  4  0  0  0  0
 25 46  1  0  0  0  0
 26 27  4  0  0  0  0
 26 47  1  0  0  0  0
 27 28  4  0  0  0  0
 28 29  4  0  0  0  0
 28 48  1  0  0  0  0
 29 49  1  0  0  0  0
M  END
> <ConfClashScore>
0 

> <ConfOneFourInteractionScore>
-0.986948 

> <ConfScore>
-0.0630073 

> <ConfScorePBest>
0.00517929 

> <ConfTolerance>
0.429273 

> <HETNAM>
     OWQ A 303  OWQ                                                       

> <pdb_OW>
Q_303 -16.5129 3.80749 7.62812 0.15963 1.39178 -0.28144 -3.20151 0 0 0 -1.30514 0 0 0 0 0 0 0 0 -8.31393

$$$$
6yky_lig_1.pdb
 OpenBabel04162415593D

 49 53  0  0  0  0  0  0  0  0999 V2000
   25.1046    1.8134  -65.3759 C   0  0  0  1  0  0  0  0  0  0  0  0
   26.9167    0.5034  -65.9326 C   0  0  0  1  0  0  0  0  0  0  0  0
   25.4177    1.8282  -64.0981 N   0  0  0  1  0  0  0  0  0  0  0  0
   26.7286    1.4697  -61.1390 C   0  0  0  1  0  0  0  0  0  0  0  0
   26.0929    2.6876  -60.9873 C   0  0  0  1  0  0  0  0  0  0  0  0
   26.8440    1.2305  -58.7564 C   0  0  0  1  0  0  0  0  0  0  0  0
   27.1070    0.7413  -60.0220 C   0  0  0  1  0  0  0  0  0  0  0  0
   26.2064    2.4520  -58.6041 C   0  0  0  1  0  0  0  0  0  0  0  0
   25.8291    3.1781  -59.7179 C   0  0  0  1  0  0  0  0  0  0  0  0
   23.5629    2.5336  -67.1653 C   0  0  0  1  0  0  0  0  0  0  0  0
   23.9605    3.8570  -67.8121 C   0  0  0  1  0  0  0  0  0  0  0  0
   22.8939    4.8319  -67.3159 C   0  0  0  1  0  0  0  0  0  0  0  0
   20.3930    4.4636  -66.9915 C   0  0  0  1  0  0  0  0  0  0  0  0
   25.8296    1.1706  -66.2747 N   0  0  0  1  0  0  0  0  0  0  0  0
   27.2965    0.4857  -64.5857 C   0  0  0  1  0  0  0  0  0  0  0  0
   26.4936    1.1850  -63.6613 C   0  0  0  1  0  0  0  0  0  0  0  0
   27.0809    1.0060  -62.4394 N   0  0  0  1  0  0  0  0  0  0  0  0
   28.3158   -0.0766  -63.9004 N   0  0  0  1  0  0  0  0  0  0  0  0
   28.2164    0.2092  -62.6490 N   0  0  0  1  0  0  0  0  0  0  0  0
   26.0073    2.8302  -57.3191 O   0  0  0  1  0  0  0  0  0  0  0  0
   24.0073    2.4761  -65.7836 N   0  0  0  1  0  0  0  0  0  0  0  0
   25.4191    4.1217  -57.0988 C   0  0  0  1  0  0  0  0  0  0  0  0
   21.7017    3.9734  -67.1748 N   0  0  0  1  0  0  0  0  0  0  0  0
   22.0436    2.5444  -67.2487 C   0  0  0  1  0  0  0  0  0  0  0  0
   19.2922    3.6392  -66.8493 C   0  0  0  1  0  0  0  0  0  0  0  0
   18.0491    4.2152  -66.6700 C   0  0  0  1  0  0  0  0  0  0  0  0
   17.8503    5.5362  -66.6292 N   0  0  0  1  0  0  0  0  0  0  0  0
   18.9256    6.3238  -66.7727 C   0  0  0  1  0  0  0  0  0  0  0  0
   20.2065    5.8316  -66.9526 C   0  0  0  1  0  0  0  0  0  0  0  0
   27.4789    0.0014  -66.6491 H   0  0  0  1  0  0  0  0  0  0  0  0
   25.8126    3.2359  -61.8254 H   0  0  0  1  0  0  0  0  0  0  0  0
   27.1243    0.6822  -57.9183 H   0  0  0  1  0  0  0  0  0  0  0  0
   27.5888   -0.1733  -60.1363 H   0  0  0  1  0  0  0  0  0  0  0  0
   25.3473    4.0926  -59.6037 H   0  0  0  1  0  0  0  0  0  0  0  0
   23.9703    1.7052  -67.7064 H   0  0  0  1  0  0  0  0  0  0  0  0
   24.9350    4.1613  -67.4920 H   0  0  0  1  0  0  0  0  0  0  0  0
   23.9424    3.7814  -68.8793 H   0  0  0  1  0  0  0  0  0  0  0  0
   23.1723    5.2610  -66.3760 H   0  0  0  1  0  0  0  0  0  0  0  0
   22.7242    5.6119  -68.0285 H   0  0  0  1  0  0  0  0  0  0  0  0
   23.4763    2.9479  -65.1084 H   0  0  0  1  0  0  0  0  0  0  0  0
   25.9565    4.8590  -57.6578 H   0  0  0  1  0  0  0  0  0  0  0  0
   25.4647    4.3611  -56.0570 H   0  0  0  1  0  0  0  0  0  0  0  0
   24.3978    4.1072  -57.4175 H   0  0  0  1  0  0  0  0  0  0  0  0
   21.7090    2.1193  -68.1719 H   0  0  0  1  0  0  0  0  0  0  0  0
   21.6126    2.0062  -66.4306 H   0  0  0  1  0  0  0  0  0  0  0  0
   19.3980    2.6049  -66.8769 H   0  0  0  1  0  0  0  0  0  0  0  0
   17.2260    3.5888  -66.5612 H   0  0  0  1  0  0  0  0  0  0  0  0
   18.7907    7.3547  -66.7475 H   0  0  0  1  0  0  0  0  0  0  0  0
   21.0134    6.4796  -67.0568 H   0  0  0  1  0  0  0  0  0  0  0  0
  1  3  4  0  0  0  0
  1 14  4  0  0  0  0
  1 21  1  0  0  0  0
  2 14  4  0  0  0  0
  2 15  4  0  0  0  0
  2 30  1  0  0  0  0
  3 16  4  0  0  0  0
  4  5  4  0  0  0  0
  4  7  4  0  0  0  0
  4 17  1  0  0  0  0
  5  9  4  0  0  0  0
  5 31  1  0  0  0  0
  6  7  4  0  0  0  0
  6  8  4  0  0  0  0
  6 32  1  0  0  0  0
  7 33  1  0  0  0  0
  8  9  4  0  0  0  0
  8 20  1  0  0  0  0
  9 34  1  0  0  0  0
 10 11  1  0  0  0  0
 10 21  1  0  0  0  0
 10 24  1  0  0  0  0
 10 35  1  0  0  0  0
 11 12  1  0  0  0  0
 11 36  1  0  0  0  0
 11 37  1  0  0  0  0
 12 23  1  0  0  0  0
 12 38  1  0  0  0  0
 12 39  1  0  0  0  0
 13 23  1  0  0  0  0
 13 25  4  0  0  0  0
 13 29  4  0  0  0  0
 15 16  4  0  0  0  0
 15 18  4  0  0  0  0
 16 17  4  0  0  0  0
 17 19  4  0  0  0  0
 18 19  4  0  0  0  0
 20 22  1  0  0  0  0
 21 40  1  0  0  0  0
 22 41  1  0  0  0  0
 22 42  1  0  0  0  0
 22 43  1  0  0  0  0
 23 24  1  0  0  0  0
 24 44  1  0  0  0  0
 24 45  1  0  0  0  0
 25 26  4  0  0  0  0
 25 46  1  0  0  0  0
 26 27  4  0  0  0  0
 26 47  1  0  0  0  0
 27 28  4  0  0  0  0
 28 29  4  0  0  0  0
 28 48  1  0  0  0  0
 29 49  1  0  0  0  0
M  END
> <ConfClashScore>
0 

> <ConfOneFourInteractionScore>
-0.986948 

> <ConfScore>
-0.0601651 

> <ConfScorePBest>
0.00516596 

> <ConfTolerance>
0.428768 

> <HETNAM>
     OWQ A 303  OWQ                                                       

> <pdb_OW>
Q_303 -16.5129 3.80749 7.62812 0.15963 1.39178 -0.28144 -3.20151 0 0 0 -1.30514 0 0 0 0 0 0 0 0 -8.31393

$$$$
6yky_lig_1.pdb
 OpenBabel04162415593D

 49 53  0  0  0  0  0  0  0  0999 V2000
   25.1047    1.8133  -65.3760 C   0  0  0  1  0  0  0  0  0  0  0  0
   26.9167    0.5034  -65.9326 C   0  0  0  1  0  0  0  0  0  0  0  0
   25.4177    1.8281  -64.0981 N   0  0  0  1  0  0  0  0  0  0  0  0
   26.7284    1.4695  -61.1390 C   0  0  0  1  0  0  0  0  0  0  0  0
   25.6126    0.9607  -60.5017 C   0  0  0  1  0  0  0  0  0  0  0  0
   27.0614    3.0089  -59.3315 C   0  0  0  1  0  0  0  0  0  0  0  0
   27.4524    2.4971  -60.5544 C   0  0  0  1  0  0  0  0  0  0  0  0
   25.9423    2.4985  -58.6922 C   0  0  0  1  0  0  0  0  0  0  0  0
   25.2206    1.4742  -59.2753 C   0  0  0  1  0  0  0  0  0  0  0  0
   23.5465    2.6280  -67.1647 C   0  0  0  1  0  0  0  0  0  0  0  0
   23.9611    4.0000  -67.7647 C   0  0  0  1  0  0  0  0  0  0  0  0
   22.9187    4.3695  -68.8407 C   0  0  0  1  0  0  0  0  0  0  0  0
   20.6345    3.3237  -69.3010 C   0  0  0  1  0  0  0  0  0  0  0  0
   25.8296    1.1706  -66.2747 N   0  0  0  1  0  0  0  0  0  0  0  0
   27.2965    0.4857  -64.5857 C   0  0  0  1  0  0  0  0  0  0  0  0
   26.4935    1.1850  -63.6614 C   0  0  0  1  0  0  0  0  0  0  0  0
   27.0808    1.0060  -62.4395 N   0  0  0  1  0  0  0  0  0  0  0  0
   28.3159   -0.0766  -63.9004 N   0  0  0  1  0  0  0  0  0  0  0  0
   28.2164    0.2092  -62.6490 N   0  0  0  1  0  0  0  0  0  0  0  0
   25.5890    2.8811  -57.4421 O   0  0  0  1  0  0  0  0  0  0  0  0
   24.0072    2.4759  -65.7837 N   0  0  0  1  0  0  0  0  0  0  0  0
   24.3208    2.4214  -56.9491 C   0  0  0  1  0  0  0  0  0  0  0  0
   21.7755    3.4713  -68.5133 N   0  0  0  1  0  0  0  0  0  0  0  0
   22.0135    2.7609  -67.2462 C   0  0  0  1  0  0  0  0  0  0  0  0
   20.5930    2.3716  -70.3027 C   0  0  0  1  0  0  0  0  0  0  0  0
   19.4123    2.1883  -70.9970 C   0  0  0  1  0  0  0  0  0  0  0  0
   18.3003    2.8884  -70.7534 N   0  0  0  1  0  0  0  0  0  0  0  0
   18.3559    3.8111  -69.7825 C   0  0  0  1  0  0  0  0  0  0  0  0
   19.4948    4.0575  -69.0358 C   0  0  0  1  0  0  0  0  0  0  0  0
   27.4790    0.0015  -66.6492 H   0  0  0  1  0  0  0  0  0  0  0  0
   25.0672    0.1925  -60.9423 H   0  0  0  1  0  0  0  0  0  0  0  0
   27.6068    3.7771  -58.8910 H   0  0  0  1  0  0  0  0  0  0  0  0
   28.2897    2.8827  -61.0359 H   0  0  0  1  0  0  0  0  0  0  0  0
   24.3833    1.0885  -58.7939 H   0  0  0  1  0  0  0  0  0  0  0  0
   23.9071    1.8106  -67.7535 H   0  0  0  1  0  0  0  0  0  0  0  0
   23.9737    4.7454  -66.9972 H   0  0  0  1  0  0  0  0  0  0  0  0
   24.9325    3.9265  -68.2073 H   0  0  0  1  0  0  0  0  0  0  0  0
   22.6345    5.3984  -68.7649 H   0  0  0  1  0  0  0  0  0  0  0  0
   23.2934    4.1740  -69.8237 H   0  0  0  1  0  0  0  0  0  0  0  0
   23.4625    2.8986  -65.0874 H   0  0  0  1  0  0  0  0  0  0  0  0
   24.2302    1.3695  -57.1224 H   0  0  0  1  0  0  0  0  0  0  0  0
   23.5328    2.9358  -57.4583 H   0  0  0  1  0  0  0  0  0  0  0  0
   24.2547    2.6167  -55.8992 H   0  0  0  1  0  0  0  0  0  0  0  0
   21.5500    1.7966  -67.2598 H   0  0  0  1  0  0  0  0  0  0  0  0
   21.6379    3.3261  -66.4189 H   0  0  0  1  0  0  0  0  0  0  0  0
   21.4346    1.8042  -70.5295 H   0  0  0  1  0  0  0  0  0  0  0  0
   19.3878    1.4687  -71.7474 H   0  0  0  1  0  0  0  0  0  0  0  0
   17.5017    4.3690  -69.5805 H   0  0  0  1  0  0  0  0  0  0  0  0
   19.4925    4.7815  -68.2891 H   0  0  0  1  0  0  0  0  0  0  0  0
  1  3  4  0  0  0  0
  1 14  4  0  0  0  0
  1 21  1  0  0  0  0
  2 14  4  0  0  0  0
  2 15  4  0  0  0  0
  2 30  1  0  0  0  0
  3 16  4  0  0  0  0
  4  5  4  0  0  0  0
  4  7  4  0  0  0  0
  4 17  1  0  0  0  0
  5  9  4  0  0  0  0
  5 31  1  0  0  0  0
  6  7  4  0  0  0  0
  6  8  4  0  0  0  0
  6 32  1  0  0  0  0
  7 33  1  0  0  0  0
  8  9  4  0  0  0  0
  8 20  1  0  0  0  0
  9 34  1  0  0  0  0
 10 11  1  0  0  0  0
 10 21  1  0  0  0  0
 10 24  1  0  0  0  0
 10 35  1  0  0  0  0
 11 12  1  0  0  0  0
 11 36  1  0  0  0  0
 11 37  1  0  0  0  0
 12 23  1  0  0  0  0
 12 38  1  0  0  0  0
 12 39  1  0  0  0  0
 13 23  1  0  0  0  0
 13 25  4  0  0  0  0
 13 29  4  0  0  0  0
 15 16  4  0  0  0  0
 15 18  4  0  0  0  0
 16 17  4  0  0  0  0
 17 19  4  0  0  0  0
 18 19  4  0  0  0  0
 20 22  1  0  0  0  0
 21 40  1  0  0  0  0
 22 41  1  0  0  0  0
 22 42  1  0  0  0  0
 22 43  1  0  0  0  0
 23 24  1  0  0  0  0
 24 44  1  0  0  0  0
 24 45  1  0  0  0  0
 25 26  4  0  0  0  0
 25 46  1  0  0  0  0
 26 27  4  0  0  0  0
 26 47  1  0  0  0  0
 27 28  4  0  0  0  0
 28 29  4  0  0  0  0
 28 48  1  0  0  0  0
 29 49  1  0  0  0  0
M  END
> <ConfClashScore>
0 

> <ConfOneFourInteractionScore>
-0.986948 

> <ConfScore>
-0.0581425 

> <ConfScorePBest>
0.00515263 

> <ConfTolerance>
0.395439 

> <HETNAM>
     OWQ A 303  OWQ                                                       

> <pdb_OW>
Q_303 -16.5129 3.80749 7.62812 0.15963 1.39178 -0.28144 -3.20151 0 0 0 -1.30514 0 0 0 0 0 0 0 0 -8.31393

$$$$
6yky_lig_1.pdb
 OpenBabel04162415593D

 49 53  0  0  0  0  0  0  0  0999 V2000
   25.1046    1.8133  -65.3760 C   0  0  0  1  0  0  0  0  0  0  0  0
   26.9167    0.5034  -65.9326 C   0  0  0  1  0  0  0  0  0  0  0  0
   25.4177    1.8282  -64.0982 N   0  0  0  1  0  0  0  0  0  0  0  0
   26.8115    1.5871  -61.1666 C   0  0  0  1  0  0  0  0  0  0  0  0
   26.9989    0.8470  -60.0145 C   0  0  0  1  0  0  0  0  0  0  0  0
   25.9299    3.3962  -59.8638 C   0  0  0  1  0  0  0  0  0  0  0  0
   26.2737    2.8625  -61.0916 C   0  0  0  1  0  0  0  0  0  0  0  0
   26.1179    2.6540  -58.7082 C   0  0  0  1  0  0  0  0  0  0  0  0
   26.6541    1.3824  -58.7832 C   0  0  0  1  0  0  0  0  0  0  0  0
   23.0521    3.0937  -64.8803 C   0  0  0  1  0  0  0  0  0  0  0  0
   21.7691    3.4668  -65.6145 C   0  0  0  1  0  0  0  0  0  0  0  0
   22.1114    4.7883  -66.3148 C   0  0  0  1  0  0  0  0  0  0  0  0
   23.7180    6.6412  -65.6396 C   0  0  0  1  0  0  0  0  0  0  0  0
   25.8296    1.1705  -66.2748 N   0  0  0  1  0  0  0  0  0  0  0  0
   27.2964    0.4857  -64.5857 C   0  0  0  1  0  0  0  0  0  0  0  0
   26.4935    1.1851  -63.6614 C   0  0  0  1  0  0  0  0  0  0  0  0
   27.0809    1.0060  -62.4395 N   0  0  0  1  0  0  0  0  0  0  0  0
   28.3159   -0.0766  -63.9004 N   0  0  0  1  0  0  0  0  0  0  0  0
   28.2164    0.2092  -62.6490 N   0  0  0  1  0  0  0  0  0  0  0  0
   25.7398    3.2777  -57.5672 O   0  0  0  1  0  0  0  0  0  0  0  0
   24.0072    2.4760  -65.7837 N   0  0  0  1  0  0  0  0  0  0  0  0
   25.9444    2.5679  -56.3299 C   0  0  0  1  0  0  0  0  0  0  0  0
   23.1627    5.3590  -65.4536 N   0  0  0  1  0  0  0  0  0  0  0  0
   23.5696    4.4358  -64.3728 C   0  0  0  1  0  0  0  0  0  0  0  0
   23.0982    7.7605  -65.1154 C   0  0  0  1  0  0  0  0  0  0  0  0
   23.6789    8.9980  -65.3180 C   0  0  0  1  0  0  0  0  0  0  0  0
   24.8142    9.1740  -66.0009 N   0  0  0  1  0  0  0  0  0  0  0  0
   25.4021    8.0807  -66.5073 C   0  0  0  1  0  0  0  0  0  0  0  0
   24.8918    6.8040  -66.3490 C   0  0  0  1  0  0  0  0  0  0  0  0
   27.4789    0.0014  -66.6492 H   0  0  0  1  0  0  0  0  0  0  0  0
   27.3987   -0.1114  -60.0713 H   0  0  0  1  0  0  0  0  0  0  0  0
   25.5301    4.3546  -59.8070 H   0  0  0  1  0  0  0  0  0  0  0  0
   26.1289    3.4178  -61.9589 H   0  0  0  1  0  0  0  0  0  0  0  0
   26.7989    0.8271  -57.9160 H   0  0  0  1  0  0  0  0  0  0  0  0
   22.8484    2.4292  -64.0669 H   0  0  0  1  0  0  0  0  0  0  0  0
   21.5079    2.7146  -66.3293 H   0  0  0  1  0  0  0  0  0  0  0  0
   20.9618    3.6002  -64.9250 H   0  0  0  1  0  0  0  0  0  0  0  0
   21.2582    5.4327  -66.3577 H   0  0  0  1  0  0  0  0  0  0  0  0
   22.4780    4.6148  -67.3050 H   0  0  0  1  0  0  0  0  0  0  0  0
   23.8425    2.5461  -66.7472 H   0  0  0  1  0  0  0  0  0  0  0  0
   26.9929    2.4320  -56.1652 H   0  0  0  1  0  0  0  0  0  0  0  0
   25.4654    1.6126  -56.3836 H   0  0  0  1  0  0  0  0  0  0  0  0
   25.5269    3.1319  -55.5222 H   0  0  0  1  0  0  0  0  0  0  0  0
   24.6331    4.4216  -64.2553 H   0  0  0  1  0  0  0  0  0  0  0  0
   23.1110    4.7014  -63.4432 H   0  0  0  1  0  0  0  0  0  0  0  0
   22.2117    7.6728  -64.5787 H   0  0  0  1  0  0  0  0  0  0  0  0
   23.2085    9.8351  -64.9187 H   0  0  0  1  0  0  0  0  0  0  0  0
   26.2845    8.1977  -67.0451 H   0  0  0  1  0  0  0  0  0  0  0  0
   25.3830    5.9828  -66.7566 H   0  0  0  1  0  0  0  0  0  0  0  0
  1  3  4  0  0  0  0
  1 14  4  0  0  0  0
  1 21  1  0  0  0  0
  2 14  4  0  0  0  0
  2 15  4  0  0  0  0
  2 30  1  0  0  0  0
  3 16  4  0  0  0  0
  4  5  4  0  0  0  0
  4  7  4  0  0  0  0
  4 17  1  0  0  0  0
  5  9  4  0  0  0  0
  5 31  1  0  0  0  0
  6  7  4  0  0  0  0
  6  8  4  0  0  0  0
  6 32  1  0  0  0  0
  7 33  1  0  0  0  0
  8  9  4  0  0  0  0
  8 20  1  0  0  0  0
  9 34  1  0  0  0  0
 10 11  1  0  0  0  0
 10 21  1  0  0  0  0
 10 24  1  0  0  0  0
 10 35  1  0  0  0  0
 11 12  1  0  0  0  0
 11 36  1  0  0  0  0
 11 37  1  0  0  0  0
 12 23  1  0  0  0  0
 12 38  1  0  0  0  0
 12 39  1  0  0  0  0
 13 23  1  0  0  0  0
 13 25  4  0  0  0  0
 13 29  4  0  0  0  0
 15 16  4  0  0  0  0
 15 18  4  0  0  0  0
 16 17  4  0  0  0  0
 17 19  4  0  0  0  0
 18 19  4  0  0  0  0
 20 22  1  0  0  0  0
 21 40  1  0  0  0  0
 22 41  1  0  0  0  0
 22 42  1  0  0  0  0
 22 43  1  0  0  0  0
 23 24  1  0  0  0  0
 24 44  1  0  0  0  0
 24 45  1  0  0  0  0
 25 26  4  0  0  0  0
 25 46  1  0  0  0  0
 26 27  4  0  0  0  0
 26 47  1  0  0  0  0
 27 28  4  0  0  0  0
 28 29  4  0  0  0  0
 28 48  1  0  0  0  0
 29 49  1  0  0  0  0
M  END
> <ConfClashScore>
0 

> <ConfOneFourInteractionScore>
-0.986948 

> <ConfScore>
-0.0581038 

> <ConfScorePBest>
0.0051393 

> <ConfTolerance>
0.497426 

> <HETNAM>
     OWQ A 303  OWQ                                                       

> <pdb_OW>
Q_303 -16.5129 3.80749 7.62812 0.15963 1.39178 -0.28144 -3.20151 0 0 0 -1.30514 0 0 0 0 0 0 0 0 -8.31393

$$$$
6yky_lig_1.pdb
 OpenBabel04162415593D

 49 53  0  0  0  0  0  0  0  0999 V2000
   25.1048    1.8136  -65.3759 C   0  0  0  1  0  0  0  0  0  0  0  0
   26.9167    0.5034  -65.9326 C   0  0  0  1  0  0  0  0  0  0  0  0
   25.4179    1.8285  -64.0982 N   0  0  0  1  0  0  0  0  0  0  0  0
   26.6855    1.4951  -61.1608 C   0  0  0  1  0  0  0  0  0  0  0  0
   25.5161    0.9983  -60.6170 C   0  0  0  1  0  0  0  0  0  0  0  0
   26.9068    3.0047  -59.3116 C   0  0  0  1  0  0  0  0  0  0  0  0
   27.3807    2.5016  -60.5086 C   0  0  0  1  0  0  0  0  0  0  0  0
   25.7339    2.5066  -58.7662 C   0  0  0  1  0  0  0  0  0  0  0  0
   25.0410    1.5031  -59.4166 C   0  0  0  1  0  0  0  0  0  0  0  0
   23.6242    2.4649  -67.2477 C   0  0  0  1  0  0  0  0  0  0  0  0
   24.2277    3.6435  -67.9535 C   0  0  0  1  0  0  0  0  0  0  0  0
   23.2442    4.7813  -67.5611 C   0  0  0  1  0  0  0  0  0  0  0  0
   20.7089    4.7395  -67.4271 C   0  0  0  1  0  0  0  0  0  0  0  0
   25.8296    1.1707  -66.2748 N   0  0  0  1  0  0  0  0  0  0  0  0
   27.2965    0.4857  -64.5856 C   0  0  0  1  0  0  0  0  0  0  0  0
   26.4937    1.1853  -63.6614 C   0  0  0  1  0  0  0  0  0  0  0  0
   27.0810    1.0062  -62.4395 N   0  0  0  1  0  0  0  0  0  0  0  0
   28.3159   -0.0766  -63.9004 N   0  0  0  1  0  0  0  0  0  0  0  0
   28.2164    0.2092  -62.6490 N   0  0  0  1  0  0  0  0  0  0  0  0
   25.3661    3.0794  -57.5955 O   0  0  0  1  0  0  0  0  0  0  0  0
   24.0170    2.4584  -65.8492 N   0  0  0  1  0  0  0  0  0  0  0  0
   24.2057    2.5450  -56.9394 C   0  0  0  1  0  0  0  0  0  0  0  0
   21.9973    4.0699  -67.4526 N   0  0  0  1  0  0  0  0  0  0  0  0
   22.1359    2.6277  -67.3711 C   0  0  0  1  0  0  0  0  0  0  0  0
   19.9981    4.8366  -68.6090 C   0  0  0  1  0  0  0  0  0  0  0  0
   18.7691    5.4683  -68.5954 C   0  0  0  1  0  0  0  0  0  0  0  0
   18.2268    5.9973  -67.4944 N   0  0  0  1  0  0  0  0  0  0  0  0
   18.9288    5.8997  -66.3564 C   0  0  0  1  0  0  0  0  0  0  0  0
   20.1644    5.2812  -66.2791 C   0  0  0  1  0  0  0  0  0  0  0  0
   27.4789    0.0014  -66.6492 H   0  0  0  1  0  0  0  0  0  0  0  0
   24.9925    0.2460  -61.1085 H   0  0  0  1  0  0  0  0  0  0  0  0
   27.4304    3.7571  -58.8203 H   0  0  0  1  0  0  0  0  0  0  0  0
   28.2585    2.8781  -60.9199 H   0  0  0  1  0  0  0  0  0  0  0  0
   24.1630    1.1265  -59.0054 H   0  0  0  1  0  0  0  0  0  0  0  0
   23.9382    1.5531  -67.7111 H   0  0  0  1  0  0  0  0  0  0  0  0
   25.2177    3.8446  -67.6007 H   0  0  0  1  0  0  0  0  0  0  0  0
   24.2494    3.4947  -69.0129 H   0  0  0  1  0  0  0  0  0  0  0  0
   23.5192    5.2292  -66.6290 H   0  0  0  1  0  0  0  0  0  0  0  0
   23.1980    5.5346  -68.3195 H   0  0  0  1  0  0  0  0  0  0  0  0
   23.4596    2.9514  -65.2115 H   0  0  0  1  0  0  0  0  0  0  0  0
   23.9536    3.1611  -56.1017 H   0  0  0  1  0  0  0  0  0  0  0  0
   24.4134    1.5513  -56.6014 H   0  0  0  1  0  0  0  0  0  0  0  0
   23.3857    2.5246  -57.6264 H   0  0  0  1  0  0  0  0  0  0  0  0
   21.6293    2.2363  -66.5137 H   0  0  0  1  0  0  0  0  0  0  0  0
   21.7643    2.1509  -68.2540 H   0  0  0  1  0  0  0  0  0  0  0  0
   20.3812    4.4418  -69.4916 H   0  0  0  1  0  0  0  0  0  0  0  0
   18.2390    5.5355  -69.4877 H   0  0  0  1  0  0  0  0  0  0  0  0
   18.5252    6.3087  -65.4896 H   0  0  0  1  0  0  0  0  0  0  0  0
   20.6733    5.2254  -65.3738 H   0  0  0  1  0  0  0  0  0  0  0  0
  1  3  4  0  0  0  0
  1 14  4  0  0  0  0
  1 21  1  0  0  0  0
  2 14  4  0  0  0  0
  2 15  4  0  0  0  0
  2 30  1  0  0  0  0
  3 16  4  0  0  0  0
  4  5  4  0  0  0  0
  4  7  4  0  0  0  0
  4 17  1  0  0  0  0
  5  9  4  0  0  0  0
  5 31  1  0  0  0  0
  6  7  4  0  0  0  0
  6  8  4  0  0  0  0
  6 32  1  0  0  0  0
  7 33  1  0  0  0  0
  8  9  4  0  0  0  0
  8 20  1  0  0  0  0
  9 34  1  0  0  0  0
 10 11  1  0  0  0  0
 10 21  1  0  0  0  0
 10 24  1  0  0  0  0
 10 35  1  0  0  0  0
 11 12  1  0  0  0  0
 11 36  1  0  0  0  0
 11 37  1  0  0  0  0
 12 23  1  0  0  0  0
 12 38  1  0  0  0  0
 12 39  1  0  0  0  0
 13 23  1  0  0  0  0
 13 25  4  0  0  0  0
 13 29  4  0  0  0  0
 15 16  4  0  0  0  0
 15 18  4  0  0  0  0
 16 17  4  0  0  0  0
 17 19  4  0  0  0  0
 18 19  4  0  0  0  0
 20 22  1  0  0  0  0
 21 40  1  0  0  0  0
 22 41  1  0  0  0  0
 22 42  1  0  0  0  0
 22 43  1  0  0  0  0
 23 24  1  0  0  0  0
 24 44  1  0  0  0  0
 24 45  1  0  0  0  0
 25 26  4  0  0  0  0
 25 46  1  0  0  0  0
 26 27  4  0  0  0  0
 26 47  1  0  0  0  0
 27 28  4  0  0  0  0
 28 29  4  0  0  0  0
 28 48  1  0  0  0  0
 29 49  1  0  0  0  0
M  END
> <ConfClashScore>
0 

> <ConfOneFourInteractionScore>
-0.986948 

> <ConfScore>
-0.0579184 

> <ConfScorePBest>
0.00512597 

> <ConfTolerance>
0.491715 

> <HETNAM>
     OWQ A 303  OWQ                                                       

> <pdb_OW>
Q_303 -16.5129 3.80749 7.62812 0.15963 1.39178 -0.28144 -3.20151 0 0 0 -1.30514 0 0 0 0 0 0 0 0 -8.31393

$$$$
6yky_lig_1.pdb
 OpenBabel04162415593D

 49 53  0  0  0  0  0  0  0  0999 V2000
   25.1047    1.8133  -65.3760 C   0  0  0  1  0  0  0  0  0  0  0  0
   26.9167    0.5034  -65.9326 C   0  0  0  1  0  0  0  0  0  0  0  0
   25.4177    1.8281  -64.0982 N   0  0  0  1  0  0  0  0  0  0  0  0
   26.6875    1.3784  -61.1215 C   0  0  0  1  0  0  0  0  0  0  0  0
   27.5501    1.0766  -60.0847 C   0  0  0  1  0  0  0  0  0  0  0  0
   25.0776    2.1989  -59.5461 C   0  0  0  1  0  0  0  0  0  0  0  0
   25.4483    1.9379  -60.8518 C   0  0  0  1  0  0  0  0  0  0  0  0
   25.9426    1.8963  -58.5061 C   0  0  0  1  0  0  0  0  0  0  0  0
   27.1782    1.3384  -58.7753 C   0  0  0  1  0  0  0  0  0  0  0  0
   23.0505    3.1713  -64.9259 C   0  0  0  1  0  0  0  0  0  0  0  0
   21.7654    2.3293  -64.6940 C   0  0  0  1  0  0  0  0  0  0  0  0
   20.6057    3.3143  -64.4371 C   0  0  0  1  0  0  0  0  0  0  0  0
   20.5158    5.8544  -64.8030 C   0  0  0  1  0  0  0  0  0  0  0  0
   25.8297    1.1705  -66.2748 N   0  0  0  1  0  0  0  0  0  0  0  0
   27.2964    0.4857  -64.5857 C   0  0  0  1  0  0  0  0  0  0  0  0
   26.4936    1.1851  -63.6614 C   0  0  0  1  0  0  0  0  0  0  0  0
   27.0809    1.0061  -62.4394 N   0  0  0  1  0  0  0  0  0  0  0  0
   28.3159   -0.0766  -63.9004 N   0  0  0  1  0  0  0  0  0  0  0  0
   28.2164    0.2092  -62.6490 N   0  0  0  1  0  0  0  0  0  0  0  0
   25.4692    2.1910  -57.2721 O   0  0  0  1  0  0  0  0  0  0  0  0
   24.0134    2.4723  -65.7815 N   0  0  0  1  0  0  0  0  0  0  0  0
   26.2877    1.8245  -56.1504 C   0  0  0  1  0  0  0  0  0  0  0  0
   21.1490    4.6033  -64.9511 N   0  0  0  1  0  0  0  0  0  0  0  0
   22.4361    4.3941  -65.6342 C   0  0  0  1  0  0  0  0  0  0  0  0
   19.2432    5.9367  -64.2687 C   0  0  0  1  0  0  0  0  0  0  0  0
   18.6943    7.1857  -64.0485 C   0  0  0  1  0  0  0  0  0  0  0  0
   19.3299    8.3275  -64.3284 N   0  0  0  1  0  0  0  0  0  0  0  0
   20.5612    8.2329  -64.8500 C   0  0  0  1  0  0  0  0  0  0  0  0
   21.1877    7.0243  -65.0994 C   0  0  0  1  0  0  0  0  0  0  0  0
   27.4789    0.0014  -66.6491 H   0  0  0  1  0  0  0  0  0  0  0  0
   28.4783    0.6530  -60.2869 H   0  0  0  1  0  0  0  0  0  0  0  0
   24.1494    2.6224  -59.3440 H   0  0  0  1  0  0  0  0  0  0  0  0
   24.7977    2.1612  -61.6318 H   0  0  0  1  0  0  0  0  0  0  0  0
   27.8288    1.1150  -57.9953 H   0  0  0  1  0  0  0  0  0  0  0  0
   23.5218    3.4406  -64.0037 H   0  0  0  1  0  0  0  0  0  0  0  0
   21.5561    1.7366  -65.5599 H   0  0  0  1  0  0  0  0  0  0  0  0
   21.8959    1.6897  -63.8463 H   0  0  0  1  0  0  0  0  0  0  0  0
   19.7273    3.0244  -64.9750 H   0  0  0  1  0  0  0  0  0  0  0  0
   20.3798    3.3800  -63.3932 H   0  0  0  1  0  0  0  0  0  0  0  0
   23.8408    2.4893  -66.7460 H   0  0  0  1  0  0  0  0  0  0  0  0
   26.2593    0.7630  -56.0192 H   0  0  0  1  0  0  0  0  0  0  0  0
   25.9176    2.3027  -55.2677 H   0  0  0  1  0  0  0  0  0  0  0  0
   27.2961    2.1348  -56.3286 H   0  0  0  1  0  0  0  0  0  0  0  0
   22.2845    4.1927  -66.6741 H   0  0  0  1  0  0  0  0  0  0  0  0
   23.0668    5.2516  -65.5247 H   0  0  0  1  0  0  0  0  0  0  0  0
   18.7091    5.0749  -64.0372 H   0  0  0  1  0  0  0  0  0  0  0  0
   17.7376    7.2398  -63.6441 H   0  0  0  1  0  0  0  0  0  0  0  0
   21.0706    9.1104  -65.0782 H   0  0  0  1  0  0  0  0  0  0  0  0
   22.1460    6.9973  -65.5025 H   0  0  0  1  0  0  0  0  0  0  0  0
  1  3  4  0  0  0  0
  1 14  4  0  0  0  0
  1 21  1  0  0  0  0
  2 14  4  0  0  0  0
  2 15  4  0  0  0  0
  2 30  1  0  0  0  0
  3 16  4  0  0  0  0
  4  5  4  0  0  0  0
  4  7  4  0  0  0  0
  4 17  1  0  0  0  0
  5  9  4  0  0  0  0
  5 31  1  0  0  0  0
  6  7  4  0  0  0  0
  6  8  4  0  0  0  0
  6 32  1  0  0  0  0
  7 33  1  0  0  0  0
  8  9  4  0  0  0  0
  8 20  1  0  0  0  0
  9 34  1  0  0  0  0
 10 11  1  0  0  0  0
 10 21  1  0  0  0  0
 10 24  1  0  0  0  0
 10 35  1  0  0  0  0
 11 12  1  0  0  0  0
 11 36  1  0  0  0  0
 11 37  1  0  0  0  0
 12 23  1  0  0  0  0
 12 38  1  0  0  0  0
 12 39  1  0  0  0  0
 13 23  1  0  0  0  0
 13 25  4  0  0  0  0
 13 29  4  0  0  0  0
 15 16  4  0  0  0  0
 15 18  4  0  0  0  0
 16 17  4  0  0  0  0
 17 19  4  0  0  0  0
 18 19  4  0  0  0  0
 20 22  1  0  0  0  0
 21 40  1  0  0  0  0
 22 41  1  0  0  0  0
 22 42  1  0  0  0  0
 22 43  1  0  0  0  0
 23 24  1  0  0  0  0
 24 44  1  0  0  0  0
 24 45  1  0  0  0  0
 25 26  4  0  0  0  0
 25 46  1  0  0  0  0
 26 27  4  0  0  0  0
 26 47  1  0  0  0  0
 27 28  4  0  0  0  0
 28 29  4  0  0  0  0
 28 48  1  0  0  0  0
 29 49  1  0  0  0  0
M  END
> <ConfClashScore>
0 

> <ConfOneFourInteractionScore>
-0.986948 

> <ConfScore>
-0.0566682 

> <ConfScorePBest>
0.00511265 

> <ConfTolerance>
0.381444 

> <HETNAM>
     OWQ A 303  OWQ                                                       

> <pdb_OW>
Q_303 -16.5129 3.80749 7.62812 0.15963 1.39178 -0.28144 -3.20151 0 0 0 -1.30514 0 0 0 0 0 0 0 0 -8.31393

$$$$
6yky_lig_1.pdb
 OpenBabel04162415593D

 49 53  0  0  0  0  0  0  0  0999 V2000
   25.1047    1.8135  -65.3760 C   0  0  0  1  0  0  0  0  0  0  0  0
   26.9167    0.5034  -65.9326 C   0  0  0  1  0  0  0  0  0  0  0  0
   25.4178    1.8284  -64.0982 N   0  0  0  1  0  0  0  0  0  0  0  0
   26.7669    1.4473  -61.1214 C   0  0  0  1  0  0  0  0  0  0  0  0
   27.2320    0.7432  -60.0269 C   0  0  0  1  0  0  0  0  0  0  0  0
   25.5420    2.9057  -59.6656 C   0  0  0  1  0  0  0  0  0  0  0  0
   25.9185    2.5286  -60.9408 C   0  0  0  1  0  0  0  0  0  0  0  0
   26.0083    2.1997  -58.5677 C   0  0  0  1  0  0  0  0  0  0  0  0
   26.8542    1.1216  -58.7480 C   0  0  0  1  0  0  0  0  0  0  0  0
   23.1203    3.2007  -64.8903 C   0  0  0  1  0  0  0  0  0  0  0  0
   22.0877    2.2524  -64.2413 C   0  0  0  1  0  0  0  0  0  0  0  0
   20.7614    2.9697  -64.2225 C   0  0  0  1  0  0  0  0  0  0  0  0
   20.0404    5.0382  -65.6028 C   0  0  0  1  0  0  0  0  0  0  0  0
   25.8297    1.1707  -66.2747 N   0  0  0  1  0  0  0  0  0  0  0  0
   27.2965    0.4858  -64.5857 C   0  0  0  1  0  0  0  0  0  0  0  0
   26.4936    1.1852  -63.6614 C   0  0  0  1  0  0  0  0  0  0  0  0
   27.0809    1.0061  -62.4395 N   0  0  0  1  0  0  0  0  0  0  0  0
   28.3158   -0.0766  -63.9004 N   0  0  0  1  0  0  0  0  0  0  0  0
   28.2164    0.2092  -62.6490 N   0  0  0  1  0  0  0  0  0  0  0  0
   25.7053    2.4715  -57.2761 O   0  0  0  1  0  0  0  0  0  0  0  0
   24.0074    2.4762  -65.7837 N   0  0  0  1  0  0  0  0  0  0  0  0
   24.7883    3.5491  -57.0300 C   0  0  0  1  0  0  0  0  0  0  0  0
   21.0298    4.1223  -65.2148 N   0  0  0  1  0  0  0  0  0  0  0  0
   22.2450    4.1714  -65.6582 C   0  0  0  1  0  0  0  0  0  0  0  0
   18.7468    5.0688  -65.1156 C   0  0  0  1  0  0  0  0  0  0  0  0
   17.8807    6.0354  -65.5902 C   0  0  0  1  0  0  0  0  0  0  0  0
   18.2266    6.9475  -66.5038 N   0  0  0  1  0  0  0  0  0  0  0  0
   19.4825    6.9034  -66.9707 C   0  0  0  1  0  0  0  0  0  0  0  0
   20.4156    5.9726  -66.5483 C   0  0  0  1  0  0  0  0  0  0  0  0
   27.4789    0.0014  -66.6492 H   0  0  0  1  0  0  0  0  0  0  0  0
   27.8653   -0.0705  -60.1628 H   0  0  0  1  0  0  0  0  0  0  0  0
   24.9086    3.7194  -59.5298 H   0  0  0  1  0  0  0  0  0  0  0  0
   25.5654    3.0558  -61.7647 H   0  0  0  1  0  0  0  0  0  0  0  0
   27.2074    0.5942  -57.9242 H   0  0  0  1  0  0  0  0  0  0  0  0
   23.6987    3.7081  -64.1467 H   0  0  0  1  0  0  0  0  0  0  0  0
   22.0079    1.3523  -64.8145 H   0  0  0  1  0  0  0  0  0  0  0  0
   22.3881    2.0142  -63.2423 H   0  0  0  1  0  0  0  0  0  0  0  0
   19.9686    2.3366  -64.5623 H   0  0  0  1  0  0  0  0  0  0  0  0
   20.5297    3.3395  -63.2456 H   0  0  0  1  0  0  0  0  0  0  0  0
   23.7938    2.4699  -66.7401 H   0  0  0  1  0  0  0  0  0  0  0  0
   24.4782    3.5275  -56.0062 H   0  0  0  1  0  0  0  0  0  0  0  0
   23.9331    3.4411  -57.6639 H   0  0  0  1  0  0  0  0  0  0  0  0
   25.2705    4.4816  -57.2368 H   0  0  0  1  0  0  0  0  0  0  0  0
   22.6261    5.1638  -65.5361 H   0  0  0  1  0  0  0  0  0  0  0  0
   22.2537    3.9108  -66.6959 H   0  0  0  1  0  0  0  0  0  0  0  0
   18.4317    4.3776  -64.4055 H   0  0  0  1  0  0  0  0  0  0  0  0
   16.9100    6.0539  -65.2173 H   0  0  0  1  0  0  0  0  0  0  0  0
   19.7696    7.6025  -67.6851 H   0  0  0  1  0  0  0  0  0  0  0  0
   21.3809    5.9768  -66.9353 H   0  0  0  1  0  0  0  0  0  0  0  0
  1  3  4  0  0  0  0
  1 14  4  0  0  0  0
  1 21  1  0  0  0  0
  2 14  4  0  0  0  0
  2 15  4  0  0  0  0
  2 30  1  0  0  0  0
  3 16  4  0  0  0  0
  4  5  4  0  0  0  0
  4  7  4  0  0  0  0
  4 17  1  0  0  0  0
  5  9  4  0  0  0  0
  5 31  1  0  0  0  0
  6  7  4  0  0  0  0
  6  8  4  0  0  0  0
  6 32  1  0  0  0  0
  7 33  1  0  0  0  0
  8  9  4  0  0  0  0
  8 20  1  0  0  0  0
  9 34  1  0  0  0  0
 10 11  1  0  0  0  0
 10 21  1  0  0  0  0
 10 24  1  0  0  0  0
 10 35  1  0  0  0  0
 11 12  1  0  0  0  0
 11 36  1  0  0  0  0
 11 37  1  0  0  0  0
 12 23  1  0  0  0  0
 12 38  1  0  0  0  0
 12 39  1  0  0  0  0
 13 23  1  0  0  0  0
 13 25  4  0  0  0  0
 13 29  4  0  0  0  0
 15 16  4  0  0  0  0
 15 18  4  0  0  0  0
 16 17  4  0  0  0  0
 17 19  4  0  0  0  0
 18 19  4  0  0  0  0
 20 22  1  0  0  0  0
 21 40  1  0  0  0  0
 22 41  1  0  0  0  0
 22 42  1  0  0  0  0
 22 43  1  0  0  0  0
 23 24  1  0  0  0  0
 24 44  1  0  0  0  0
 24 45  1  0  0  0  0
 25 26  4  0  0  0  0
 25 46  1  0  0  0  0
 26 27  4  0  0  0  0
 26 47  1  0  0  0  0
 27 28  4  0  0  0  0
 28 29  4  0  0  0  0
 28 48  1  0  0  0  0
 29 49  1  0  0  0  0
M  END
> <ConfClashScore>
0 

> <ConfOneFourInteractionScore>
-0.986948 

> <ConfScore>
-0.0560055 

> <ConfScorePBest>
0.00509932 

> <ConfTolerance>
0.394154 

> <HETNAM>
     OWQ A 303  OWQ                                                       

> <pdb_OW>
Q_303 -16.5129 3.80749 7.62812 0.15963 1.39178 -0.28144 -3.20151 0 0 0 -1.30514 0 0 0 0 0 0 0 0 -8.31393

$$$$
6yky_lig_1.pdb
 OpenBabel04162415593D

 49 53  0  0  0  0  0  0  0  0999 V2000
   25.1047    1.8134  -65.3760 C   0  0  0  1  0  0  0  0  0  0  0  0
   26.9167    0.5034  -65.9326 C   0  0  0  1  0  0  0  0  0  0  0  0
   25.4177    1.8282  -64.0982 N   0  0  0  1  0  0  0  0  0  0  0  0
   26.6876    1.3783  -61.1215 C   0  0  0  1  0  0  0  0  0  0  0  0
   27.0789    0.5593  -60.0792 C   0  0  0  1  0  0  0  0  0  0  0  0
   25.4356    2.7327  -59.5901 C   0  0  0  1  0  0  0  0  0  0  0  0
   25.8625    2.4651  -60.8771 C   0  0  0  1  0  0  0  0  0  0  0  0
   25.8279    1.9114  -58.5446 C   0  0  0  1  0  0  0  0  0  0  0  0
   26.6506    0.8278  -58.7886 C   0  0  0  1  0  0  0  0  0  0  0  0
   23.5916    2.5771  -67.1718 C   0  0  0  1  0  0  0  0  0  0  0  0
   22.9376    3.9523  -67.4808 C   0  0  0  1  0  0  0  0  0  0  0  0
   21.9466    3.7435  -68.6450 C   0  0  0  1  0  0  0  0  0  0  0  0
   21.0401    1.5564  -69.6383 C   0  0  0  1  0  0  0  0  0  0  0  0
   25.8296    1.1706  -66.2747 N   0  0  0  1  0  0  0  0  0  0  0  0
   27.2965    0.4857  -64.5857 C   0  0  0  1  0  0  0  0  0  0  0  0
   26.4936    1.1850  -63.6613 C   0  0  0  1  0  0  0  0  0  0  0  0
   27.0809    1.0060  -62.4395 N   0  0  0  1  0  0  0  0  0  0  0  0
   28.3158   -0.0766  -63.9004 N   0  0  0  1  0  0  0  0  0  0  0  0
   28.2164    0.2092  -62.6490 N   0  0  0  1  0  0  0  0  0  0  0  0
   25.4705    2.0702  -57.2482 O   0  0  0  1  0  0  0  0  0  0  0  0
   24.0074    2.4760  -65.7837 N   0  0  0  1  0  0  0  0  0  0  0  0
   24.6255    3.1877  -56.9326 C   0  0  0  1  0  0  0  0  0  0  0  0
   21.7517    2.2660  -68.6499 N   0  0  0  1  0  0  0  0  0  0  0  0
   22.4025    1.6477  -67.4833 C   0  0  0  1  0  0  0  0  0  0  0  0
   20.5451    2.2601  -70.7208 C   0  0  0  1  0  0  0  0  0  0  0  0
   19.8494    1.5737  -71.6977 C   0  0  0  1  0  0  0  0  0  0  0  0
   19.6242    0.2571  -71.6520 N   0  0  0  1  0  0  0  0  0  0  0  0
   20.1060   -0.4118  -70.5948 C   0  0  0  1  0  0  0  0  0  0  0  0
   20.8164    0.1949  -69.5737 C   0  0  0  1  0  0  0  0  0  0  0  0
   27.4790    0.0014  -66.6492 H   0  0  0  1  0  0  0  0  0  0  0  0
   27.6946   -0.2584  -60.2633 H   0  0  0  1  0  0  0  0  0  0  0  0
   24.8198    3.5504  -59.4060 H   0  0  0  1  0  0  0  0  0  0  0  0
   25.5648    3.0790  -61.6621 H   0  0  0  1  0  0  0  0  0  0  0  0
   26.9483    0.2139  -58.0037 H   0  0  0  1  0  0  0  0  0  0  0  0
   24.4277    2.3815  -67.8103 H   0  0  0  1  0  0  0  0  0  0  0  0
   23.6896    4.6591  -67.7635 H   0  0  0  1  0  0  0  0  0  0  0  0
   22.4167    4.3111  -66.6177 H   0  0  0  1  0  0  0  0  0  0  0  0
   21.0240    4.2535  -68.4621 H   0  0  0  1  0  0  0  0  0  0  0  0
   22.3635    4.0805  -69.5711 H   0  0  0  1  0  0  0  0  0  0  0  0
   23.4558    2.9168  -65.1040 H   0  0  0  1  0  0  0  0  0  0  0  0
   25.1502    4.0991  -57.1295 H   0  0  0  1  0  0  0  0  0  0  0  0
   24.3545    3.1488  -55.8982 H   0  0  0  1  0  0  0  0  0  0  0  0
   23.7420    3.1477  -57.5349 H   0  0  0  1  0  0  0  0  0  0  0  0
   21.7289    1.6035  -66.6532 H   0  0  0  1  0  0  0  0  0  0  0  0
   22.7443    0.6616  -67.7188 H   0  0  0  1  0  0  0  0  0  0  0  0
   20.6936    3.2865  -70.7982 H   0  0  0  1  0  0  0  0  0  0  0  0
   19.4822    2.1092  -72.5102 H   0  0  0  1  0  0  0  0  0  0  0  0
   19.9377   -1.4366  -70.5393 H   0  0  0  1  0  0  0  0  0  0  0  0
   21.1749   -0.3635  -68.7730 H   0  0  0  1  0  0  0  0  0  0  0  0
  1  3  4  0  0  0  0
  1 14  4  0  0  0  0
  1 21  1  0  0  0  0
  2 14  4  0  0  0  0
  2 15  4  0  0  0  0
  2 30  1  0  0  0  0
  3 16  4  0  0  0  0
  4  5  4  0  0  0  0
  4  7  4  0  0  0  0
  4 17  1  0  0  0  0
  5  9  4  0  0  0  0
  5 31  1  0  0  0  0
  6  7  4  0  0  0  0
  6  8  4  0  0  0  0
  6 32  1  0  0  0  0
  7 33  1  0  0  0  0
  8  9  4  0  0  0  0
  8 20  1  0  0  0  0
  9 34  1  0  0  0  0
 10 11  1  0  0  0  0
 10 21  1  0  0  0  0
 10 24  1  0  0  0  0
 10 35  1  0  0  0  0
 11 12  1  0  0  0  0
 11 36  1  0  0  0  0
 11 37  1  0  0  0  0
 12 23  1  0  0  0  0
 12 38  1  0  0  0  0
 12 39  1  0  0  0  0
 13 23  1  0  0  0  0
 13 25  4  0  0  0  0
 13 29  4  0  0  0  0
 15 16  4  0  0  0  0
 15 18  4  0  0  0  0
 16 17  4  0  0  0  0
 17 19  4  0  0  0  0
 18 19  4  0  0  0  0
 20 22  1  0  0  0  0
 21 40  1  0  0  0  0
 22 41  1  0  0  0  0
 22 42  1  0  0  0  0
 22 43  1  0  0  0  0
 23 24  1  0  0  0  0
 24 44  1  0  0  0  0
 24 45  1  0  0  0  0
 25 26  4  0  0  0  0
 25 46  1  0  0  0  0
 26 27  4  0  0  0  0
 26 47  1  0  0  0  0
 27 28  4  0  0  0  0
 28 29  4  0  0  0  0
 28 48  1  0  0  0  0
 29 49  1  0  0  0  0
M  END
> <ConfClashScore>
0 

> <ConfOneFourInteractionScore>
-0.986948 

> <ConfScore>
-0.0546555 

> <ConfScorePBest>
0.00508599 

> <ConfTolerance>
0.35473 

> <HETNAM>
     OWQ A 303  OWQ                                                       

> <pdb_OW>
Q_303 -16.5129 3.80749 7.62812 0.15963 1.39178 -0.28144 -3.20151 0 0 0 -1.30514 0 0 0 0 0 0 0 0 -8.31393

$$$$
6yky_lig_1.pdb
 OpenBabel04162415593D

 49 53  0  0  0  0  0  0  0  0999 V2000
   25.1048    1.8134  -65.3760 C   0  0  0  1  0  0  0  0  0  0  0  0
   26.9167    0.5034  -65.9326 C   0  0  0  1  0  0  0  0  0  0  0  0
   25.4178    1.8283  -64.0983 N   0  0  0  1  0  0  0  0  0  0  0  0
   26.7669    1.4472  -61.1215 C   0  0  0  1  0  0  0  0  0  0  0  0
   26.9998    0.6183  -60.0404 C   0  0  0  1  0  0  0  0  0  0  0  0
   25.7575    3.0639  -59.6672 C   0  0  0  1  0  0  0  0  0  0  0  0
   26.1425    2.6707  -60.9351 C   0  0  0  1  0  0  0  0  0  0  0  0
   25.9911    2.2325  -58.5828 C   0  0  0  1  0  0  0  0  0  0  0  0
   26.6137    1.0127  -58.7689 C   0  0  0  1  0  0  0  0  0  0  0  0
   23.0546    3.1788  -64.9335 C   0  0  0  1  0  0  0  0  0  0  0  0
   21.8844    2.2567  -64.4919 C   0  0  0  1  0  0  0  0  0  0  0  0
   20.6544    3.1550  -64.2439 C   0  0  0  1  0  0  0  0  0  0  0  0
   20.2839    5.6021  -64.8862 C   0  0  0  1  0  0  0  0  0  0  0  0
   25.8297    1.1707  -66.2748 N   0  0  0  1  0  0  0  0  0  0  0  0
   27.2965    0.4858  -64.5857 C   0  0  0  1  0  0  0  0  0  0  0  0
   26.4936    1.1851  -63.6614 C   0  0  0  1  0  0  0  0  0  0  0  0
   27.0808    1.0060  -62.4395 N   0  0  0  1  0  0  0  0  0  0  0  0
   28.3159   -0.0766  -63.9004 N   0  0  0  1  0  0  0  0  0  0  0  0
   28.2164    0.2092  -62.6490 N   0  0  0  1  0  0  0  0  0  0  0  0
   25.5662    2.7209  -57.3933 O   0  0  0  1  0  0  0  0  0  0  0  0
   24.0075    2.4761  -65.7837 N   0  0  0  1  0  0  0  0  0  0  0  0
   25.9528    2.0007  -56.2125 C   0  0  0  1  0  0  0  0  0  0  0  0
   21.0210    4.4163  -64.9480 N   0  0  0  1  0  0  0  0  0  0  0  0
   22.2644    4.2448  -65.7171 C   0  0  0  1  0  0  0  0  0  0  0  0
   19.0062    5.6110  -64.3577 C   0  0  0  1  0  0  0  0  0  0  0  0
   18.3141    6.8062  -64.3122 C   0  0  0  1  0  0  0  0  0  0  0  0
   18.8148    7.9627  -64.7573 N   0  0  0  1  0  0  0  0  0  0  0  0
   20.0528    7.9386  -65.2712 C   0  0  0  1  0  0  0  0  0  0  0  0
   20.8173    6.7879  -65.3519 C   0  0  0  1  0  0  0  0  0  0  0  0
   27.4790    0.0014  -66.6492 H   0  0  0  1  0  0  0  0  0  0  0  0
   27.4646   -0.3014  -60.1810 H   0  0  0  1  0  0  0  0  0  0  0  0
   25.2928    3.9836  -59.5267 H   0  0  0  1  0  0  0  0  0  0  0  0
   25.9636    3.2927  -61.7492 H   0  0  0  1  0  0  0  0  0  0  0  0
   26.7926    0.3906  -57.9549 H   0  0  0  1  0  0  0  0  0  0  0  0
   23.5676    3.6004  -64.0946 H   0  0  0  1  0  0  0  0  0  0  0  0
   21.6685    1.5464  -65.2625 H   0  0  0  1  0  0  0  0  0  0  0  0
   22.1464    1.7397  -63.5926 H   0  0  0  1  0  0  0  0  0  0  0  0
   19.7703    2.7223  -64.6635 H   0  0  0  1  0  0  0  0  0  0  0  0
   20.5067    3.3261  -63.1982 H   0  0  0  1  0  0  0  0  0  0  0  0
   23.8314    2.4877  -66.7478 H   0  0  0  1  0  0  0  0  0  0  0  0
   25.5365    1.0154  -56.2427 H   0  0  0  1  0  0  0  0  0  0  0  0
   25.5900    2.5144  -55.3468 H   0  0  0  1  0  0  0  0  0  0  0  0
   27.0199    1.9356  -56.1681 H   0  0  0  1  0  0  0  0  0  0  0  0
   22.8110    5.1634  -65.7632 H   0  0  0  1  0  0  0  0  0  0  0  0
   22.0520    3.9053  -66.7094 H   0  0  0  1  0  0  0  0  0  0  0  0
   18.5743    4.7347  -64.0012 H   0  0  0  1  0  0  0  0  0  0  0  0
   17.3546    6.8058  -63.9111 H   0  0  0  1  0  0  0  0  0  0  0  0
   20.4584    8.8280  -65.6263 H   0  0  0  1  0  0  0  0  0  0  0  0
   21.7755    6.8155  -65.7556 H   0  0  0  1  0  0  0  0  0  0  0  0
  1  3  4  0  0  0  0
  1 14  4  0  0  0  0
  1 21  1  0  0  0  0
  2 14  4  0  0  0  0
  2 15  4  0  0  0  0
  2 30  1  0  0  0  0
  3 16  4  0  0  0  0
  4  5  4  0  0  0  0
  4  7  4  0  0  0  0
  4 17  1  0  0  0  0
  5  9  4  0  0  0  0
  5 31  1  0  0  0  0
  6  7  4  0  0  0  0
  6  8  4  0  0  0  0
  6 32  1  0  0  0  0
  7 33  1  0  0  0  0
  8  9  4  0  0  0  0
  8 20  1  0  0  0  0
  9 34  1  0  0  0  0
 10 11  1  0  0  0  0
 10 21  1  0  0  0  0
 10 24  1  0  0  0  0
 10 35  1  0  0  0  0
 11 12  1  0  0  0  0
 11 36  1  0  0  0  0
 11 37  1  0  0  0  0
 12 23  1  0  0  0  0
 12 38  1  0  0  0  0
 12 39  1  0  0  0  0
 13 23  1  0  0  0  0
 13 25  4  0  0  0  0
 13 29  4  0  0  0  0
 15 16  4  0  0  0  0
 15 18  4  0  0  0  0
 16 17  4  0  0  0  0
 17 19  4  0  0  0  0
 18 19  4  0  0  0  0
 20 22  1  0  0  0  0
 21 40  1  0  0  0  0
 22 41  1  0  0  0  0
 22 42  1  0  0  0  0
 22 43  1  0  0  0  0
 23 24  1  0  0  0  0
 24 44  1  0  0  0  0
 24 45  1  0  0  0  0
 25 26  4  0  0  0  0
 25 46  1  0  0  0  0
 26 27  4  0  0  0  0
 26 47  1  0  0  0  0
 27 28  4  0  0  0  0
 28 29  4  0  0  0  0
 28 48  1  0  0  0  0
 29 49  1  0  0  0  0
M  END
> <ConfClashScore>
0 

> <ConfOneFourInteractionScore>
-0.986948 

> <ConfScore>
-0.0541973 

> <ConfScorePBest>
0.00507266 

> <ConfTolerance>
0.398577 

> <HETNAM>
     OWQ A 303  OWQ                                                       

> <pdb_OW>
Q_303 -16.5129 3.80749 7.62812 0.15963 1.39178 -0.28144 -3.20151 0 0 0 -1.30514 0 0 0 0 0 0 0 0 -8.31393

$$$$
6yky_lig_1.pdb
 OpenBabel04162415593D

 49 53  0  0  0  0  0  0  0  0999 V2000
   25.1048    1.8136  -65.3759 C   0  0  0  1  0  0  0  0  0  0  0  0
   26.9167    0.5034  -65.9326 C   0  0  0  1  0  0  0  0  0  0  0  0
   25.4179    1.8284  -64.0982 N   0  0  0  1  0  0  0  0  0  0  0  0
   26.7670    1.4474  -61.1215 C   0  0  0  1  0  0  0  0  0  0  0  0
   25.6582    2.2433  -60.9039 C   0  0  0  1  0  0  0  0  0  0  0  0
   27.3712    1.6535  -58.8107 C   0  0  0  1  0  0  0  0  0  0  0  0
   27.6263    1.1542  -60.0739 C   0  0  0  1  0  0  0  0  0  0  0  0
   26.2591    2.4518  -58.5923 C   0  0  0  1  0  0  0  0  0  0  0  0
   25.4025    2.7439  -59.6369 C   0  0  0  1  0  0  0  0  0  0  0  0
   23.1413    3.2094  -64.8518 C   0  0  0  1  0  0  0  0  0  0  0  0
   21.6674    3.0348  -65.2049 C   0  0  0  1  0  0  0  0  0  0  0  0
   21.4509    4.0347  -66.3395 C   0  0  0  1  0  0  0  0  0  0  0  0
   22.3865    6.3931  -66.6220 C   0  0  0  1  0  0  0  0  0  0  0  0
   25.8297    1.1708  -66.2747 N   0  0  0  1  0  0  0  0  0  0  0  0
   27.2965    0.4858  -64.5857 C   0  0  0  1  0  0  0  0  0  0  0  0
   26.4937    1.1852  -63.6614 C   0  0  0  1  0  0  0  0  0  0  0  0
   27.0810    1.0062  -62.4395 N   0  0  0  1  0  0  0  0  0  0  0  0
   28.3159   -0.0766  -63.9004 N   0  0  0  1  0  0  0  0  0  0  0  0
   28.2164    0.2092  -62.6490 N   0  0  0  1  0  0  0  0  0  0  0  0
   26.0121    2.9453  -57.3557 O   0  0  0  1  0  0  0  0  0  0  0  0
   23.9920    2.4858  -65.7895 N   0  0  0  1  0  0  0  0  0  0  0  0
   24.9440    3.8971  -57.2303 C   0  0  0  1  0  0  0  0  0  0  0  0
   22.3978    5.1177  -66.0104 N   0  0  0  1  0  0  0  0  0  0  0  0
   23.3551    4.7114  -64.9698 C   0  0  0  1  0  0  0  0  0  0  0  0
   21.8880    7.4931  -65.9488 C   0  0  0  1  0  0  0  0  0  0  0  0
   21.8996    8.7213  -66.5821 C   0  0  0  1  0  0  0  0  0  0  0  0
   22.3671    8.9051  -67.8206 N   0  0  0  1  0  0  0  0  0  0  0  0
   22.8433    7.8292  -68.4631 C   0  0  0  1  0  0  0  0  0  0  0  0
   22.8732    6.5639  -67.9032 C   0  0  0  1  0  0  0  0  0  0  0  0
   27.4789    0.0014  -66.6491 H   0  0  0  1  0  0  0  0  0  0  0  0
   25.0158    2.4665  -61.6907 H   0  0  0  1  0  0  0  0  0  0  0  0
   28.0136    1.4303  -58.0239 H   0  0  0  1  0  0  0  0  0  0  0  0
   28.4628    0.5586  -60.2386 H   0  0  0  1  0  0  0  0  0  0  0  0
   24.5660    3.3396  -59.4723 H   0  0  0  1  0  0  0  0  0  0  0  0
   23.3392    2.8716  -63.8560 H   0  0  0  1  0  0  0  0  0  0  0  0
   21.4687    2.0358  -65.5327 H   0  0  0  1  0  0  0  0  0  0  0  0
   21.0436    3.2665  -64.3670 H   0  0  0  1  0  0  0  0  0  0  0  0
   21.6821    3.5965  -67.2879 H   0  0  0  1  0  0  0  0  0  0  0  0
   20.4431    4.3943  -66.3483 H   0  0  0  1  0  0  0  0  0  0  0  0
   23.7583    2.4821  -66.7412 H   0  0  0  1  0  0  0  0  0  0  0  0
   24.0513    3.4907  -57.6578 H   0  0  0  1  0  0  0  0  0  0  0  0
   25.2073    4.7979  -57.7442 H   0  0  0  1  0  0  0  0  0  0  0  0
   24.7776    4.1120  -56.1954 H   0  0  0  1  0  0  0  0  0  0  0  0
   24.3589    4.9317  -65.2677 H   0  0  0  1  0  0  0  0  0  0  0  0
   23.1418    5.2012  -64.0429 H   0  0  0  1  0  0  0  0  0  0  0  0
   21.5115    7.3980  -64.9840 H   0  0  0  1  0  0  0  0  0  0  0  0
   21.5253    9.5447  -66.0687 H   0  0  0  1  0  0  0  0  0  0  0  0
   23.2080    7.9514  -69.4294 H   0  0  0  1  0  0  0  0  0  0  0  0
   23.2547    5.7571  -68.4371 H   0  0  0  1  0  0  0  0  0  0  0  0
  1  3  4  0  0  0  0
  1 14  4  0  0  0  0
  1 21  1  0  0  0  0
  2 14  4  0  0  0  0
  2 15  4  0  0  0  0
  2 30  1  0  0  0  0
  3 16  4  0  0  0  0
  4  5  4  0  0  0  0
  4  7  4  0  0  0  0
  4 17  1  0  0  0  0
  5  9  4  0  0  0  0
  5 31  1  0  0  0  0
  6  7  4  0  0  0  0
  6  8  4  0  0  0  0
  6 32  1  0  0  0  0
  7 33  1  0  0  0  0
  8  9  4  0  0  0  0
  8 20  1  0  0  0  0
  9 34  1  0  0  0  0
 10 11  1  0  0  0  0
 10 21  1  0  0  0  0
 10 24  1  0  0  0  0
 10 35  1  0  0  0  0
 11 12  1  0  0  0  0
 11 36  1  0  0  0  0
 11 37  1  0  0  0  0
 12 23  1  0  0  0  0
 12 38  1  0  0  0  0
 12 39  1  0  0  0  0
 13 23  1  0  0  0  0
 13 25  4  0  0  0  0
 13 29  4  0  0  0  0
 15 16  4  0  0  0  0
 15 18  4  0  0  0  0
 16 17  4  0  0  0  0
 17 19  4  0  0  0  0
 18 19  4  0  0  0  0
 20 22  1  0  0  0  0
 21 40  1  0  0  0  0
 22 41  1  0  0  0  0
 22 42  1  0  0  0  0
 22 43  1  0  0  0  0
 23 24  1  0  0  0  0
 24 44  1  0  0  0  0
 24 45  1  0  0  0  0
 25 26  4  0  0  0  0
 25 46  1  0  0  0  0
 26 27  4  0  0  0  0
 26 47  1  0  0  0  0
 27 28  4  0  0  0  0
 28 29  4  0  0  0  0
 28 48  1  0  0  0  0
 29 49  1  0  0  0  0
M  END
> <ConfClashScore>
0 

> <ConfOneFourInteractionScore>
-0.986948 

> <ConfScore>
-0.0516933 

> <ConfScorePBest>
0.00505933 

> <ConfTolerance>
0.521486 

> <HETNAM>
     OWQ A 303  OWQ                                                       

> <pdb_OW>
Q_303 -16.5129 3.80749 7.62812 0.15963 1.39178 -0.28144 -3.20151 0 0 0 -1.30514 0 0 0 0 0 0 0 0 -8.31393

$$$$
6yky_lig_1.pdb
 OpenBabel04162415593D

 49 53  0  0  0  0  0  0  0  0999 V2000
   25.1048    1.8136  -65.3759 C   0  0  0  1  0  0  0  0  0  0  0  0
   26.9167    0.5034  -65.9326 C   0  0  0  1  0  0  0  0  0  0  0  0
   25.4179    1.8284  -64.0982 N   0  0  0  1  0  0  0  0  0  0  0  0
   26.6877    1.3785  -61.1215 C   0  0  0  1  0  0  0  0  0  0  0  0
   25.5256    2.1000  -60.9240 C   0  0  0  1  0  0  0  0  0  0  0  0
   27.1837    1.5323  -58.7811 C   0  0  0  1  0  0  0  0  0  0  0  0
   27.5194    1.0964  -60.0490 C   0  0  0  1  0  0  0  0  0  0  0  0
   26.0181    2.2560  -58.5827 C   0  0  0  1  0  0  0  0  0  0  0  0
   25.1890    2.5371  -59.6523 C   0  0  0  1  0  0  0  0  0  0  0  0
   23.2060    3.2686  -64.7284 C   0  0  0  1  0  0  0  0  0  0  0  0
   21.7469    3.4899  -65.2147 C   0  0  0  1  0  0  0  0  0  0  0  0
   21.2383    4.7988  -64.5752 C   0  0  0  1  0  0  0  0  0  0  0  0
   22.5577    6.6415  -63.3594 C   0  0  0  1  0  0  0  0  0  0  0  0
   25.8297    1.1708  -66.2748 N   0  0  0  1  0  0  0  0  0  0  0  0
   27.2965    0.4857  -64.5857 C   0  0  0  1  0  0  0  0  0  0  0  0
   26.4937    1.1852  -63.6614 C   0  0  0  1  0  0  0  0  0  0  0  0
   27.0809    1.0062  -62.4395 N   0  0  0  1  0  0  0  0  0  0  0  0
   28.3159   -0.0767  -63.9004 N   0  0  0  1  0  0  0  0  0  0  0  0
   28.2164    0.2093  -62.6490 N   0  0  0  1  0  0  0  0  0  0  0  0
   25.7977    2.6324  -57.3042 O   0  0  0  1  0  0  0  0  0  0  0  0
   23.9889    2.5049  -65.6920 N   0  0  0  1  0  0  0  0  0  0  0  0
   24.6173    3.3840  -56.9818 C   0  0  0  1  0  0  0  0  0  0  0  0
   22.4992    5.4650  -64.1426 N   0  0  0  1  0  0  0  0  0  0  0  0
   23.6758    4.7335  -64.6405 C   0  0  0  1  0  0  0  0  0  0  0  0
   23.7743    7.1598  -62.9558 C   0  0  0  1  0  0  0  0  0  0  0  0
   23.7857    8.3133  -62.1949 C   0  0  0  1  0  0  0  0  0  0  0  0
   22.6764    8.9588  -61.8223 N   0  0  0  1  0  0  0  0  0  0  0  0
   21.5037    8.4429  -62.2170 C   0  0  0  1  0  0  0  0  0  0  0  0
   21.4005    7.2949  -62.9830 C   0  0  0  1  0  0  0  0  0  0  0  0
   27.4788    0.0014  -66.6491 H   0  0  0  1  0  0  0  0  0  0  0  0
   24.9037    2.3151  -61.7294 H   0  0  0  1  0  0  0  0  0  0  0  0
   27.8056    1.3172  -57.9758 H   0  0  0  1  0  0  0  0  0  0  0  0
   28.3959    0.5569  -60.1984 H   0  0  0  1  0  0  0  0  0  0  0  0
   24.3126    3.0766  -59.5030 H   0  0  0  1  0  0  0  0  0  0  0  0
   23.2387    2.7821  -63.7759 H   0  0  0  1  0  0  0  0  0  0  0  0
   21.1314    2.6701  -64.9078 H   0  0  0  1  0  0  0  0  0  0  0  0
   21.7260    3.5723  -66.2813 H   0  0  0  1  0  0  0  0  0  0  0  0
   20.7113    5.3971  -65.2888 H   0  0  0  1  0  0  0  0  0  0  0  0
   20.6022    4.5974  -63.7388 H   0  0  0  1  0  0  0  0  0  0  0  0
   23.6876    2.4926  -66.6244 H   0  0  0  1  0  0  0  0  0  0  0  0
   24.7064    4.3752  -57.3752 H   0  0  0  1  0  0  0  0  0  0  0  0
   24.5040    3.4314  -55.9189 H   0  0  0  1  0  0  0  0  0  0  0  0
   23.7618    2.9058  -57.4113 H   0  0  0  1  0  0  0  0  0  0  0  0
   24.4961    4.8279  -63.9599 H   0  0  0  1  0  0  0  0  0  0  0  0
   23.9674    5.0962  -65.6039 H   0  0  0  1  0  0  0  0  0  0  0  0
   24.6639    6.6903  -63.2198 H   0  0  0  1  0  0  0  0  0  0  0  0
   24.7046    8.6987  -61.8971 H   0  0  0  1  0  0  0  0  0  0  0  0
   20.6290    8.9289  -61.9337 H   0  0  0  1  0  0  0  0  0  0  0  0
   20.4693    6.9312  -63.2697 H   0  0  0  1  0  0  0  0  0  0  0  0
  1  3  4  0  0  0  0
  1 14  4  0  0  0  0
  1 21  1  0  0  0  0
  2 14  4  0  0  0  0
  2 15  4  0  0  0  0
  2 30  1  0  0  0  0
  3 16  4  0  0  0  0
  4  5  4  0  0  0  0
  4  7  4  0  0  0  0
  4 17  1  0  0  0  0
  5  9  4  0  0  0  0
  5 31  1  0  0  0  0
  6  7  4  0  0  0  0
  6  8  4  0  0  0  0
  6 32  1  0  0  0  0
  7 33  1  0  0  0  0
  8  9  4  0  0  0  0
  8 20  1  0  0  0  0
  9 34  1  0  0  0  0
 10 11  1  0  0  0  0
 10 21  1  0  0  0  0
 10 24  1  0  0  0  0
 10 35  1  0  0  0  0
 11 12  1  0  0  0  0
 11 36  1  0  0  0  0
 11 37  1  0  0  0  0
 12 23  1  0  0  0  0
 12 38  1  0  0  0  0
 12 39  1  0  0  0  0
 13 23  1  0  0  0  0
 13 25  4  0  0  0  0
 13 29  4  0  0  0  0
 15 16  4  0  0  0  0
 15 18  4  0  0  0  0
 16 17  4  0  0  0  0
 17 19  4  0  0  0  0
 18 19  4  0  0  0  0
 20 22  1  0  0  0  0
 21 40  1  0  0  0  0
 22 41  1  0  0  0  0
 22 42  1  0  0  0  0
 22 43  1  0  0  0  0
 23 24  1  0  0  0  0
 24 44  1  0  0  0  0
 24 45  1  0  0  0  0
 25 26  4  0  0  0  0
 25 46  1  0  0  0  0
 26 27  4  0  0  0  0
 26 47  1  0  0  0  0
 27 28  4  0  0  0  0
 28 29  4  0  0  0  0
 28 48  1  0  0  0  0
 29 49  1  0  0  0  0
M  END
> <ConfClashScore>
0 

> <ConfOneFourInteractionScore>
-0.984874 

> <ConfScore>
-0.0515336 

> <ConfScorePBest>
0.005046 

> <ConfTolerance>
0.36988 

> <HETNAM>
     OWQ A 303  OWQ                                                       

> <pdb_OW>
Q_303 -16.5129 3.80749 7.62812 0.15963 1.39178 -0.28144 -3.20151 0 0 0 -1.30514 0 0 0 0 0 0 0 0 -8.31393

$$$$
6yky_lig_1.pdb
 OpenBabel04162415593D

 49 53  0  0  0  0  0  0  0  0999 V2000
   25.1048    1.8135  -65.3760 C   0  0  0  1  0  0  0  0  0  0  0  0
   26.9167    0.5034  -65.9326 C   0  0  0  1  0  0  0  0  0  0  0  0
   25.4178    1.8283  -64.0982 N   0  0  0  1  0  0  0  0  0  0  0  0
   26.7286    1.4699  -61.1391 C   0  0  0  1  0  0  0  0  0  0  0  0
   25.5960    2.2421  -60.9631 C   0  0  0  1  0  0  0  0  0  0  0  0
   27.2791    1.7454  -58.8221 C   0  0  0  1  0  0  0  0  0  0  0  0
   27.5729    1.2233  -60.0677 C   0  0  0  1  0  0  0  0  0  0  0  0
   26.1431    2.5199  -58.6455 C   0  0  0  1  0  0  0  0  0  0  0  0
   25.3014    2.7656  -59.7139 C   0  0  0  1  0  0  0  0  0  0  0  0
   23.6317    2.6493  -67.1790 C   0  0  0  1  0  0  0  0  0  0  0  0
   22.7561    3.8843  -67.3586 C   0  0  0  1  0  0  0  0  0  0  0  0
   21.3721    3.3978  -66.9409 C   0  0  0  1  0  0  0  0  0  0  0  0
   20.2383    1.2348  -67.5766 C   0  0  0  1  0  0  0  0  0  0  0  0
   25.8296    1.1707  -66.2747 N   0  0  0  1  0  0  0  0  0  0  0  0
   27.2965    0.4857  -64.5857 C   0  0  0  1  0  0  0  0  0  0  0  0
   26.4936    1.1852  -63.6614 C   0  0  0  1  0  0  0  0  0  0  0  0
   27.0809    1.0061  -62.4395 N   0  0  0  1  0  0  0  0  0  0  0  0
   28.3158   -0.0766  -63.9004 N   0  0  0  1  0  0  0  0  0  0  0  0
   28.2164    0.2092  -62.6490 N   0  0  0  1  0  0  0  0  0  0  0  0
   25.8073    2.9546  -57.4153 O   0  0  0  1  0  0  0  0  0  0  0  0
   24.0033    2.4786  -65.7853 N   0  0  0  1  0  0  0  0  0  0  0  0
   24.4995    3.5649  -57.3175 C   0  0  0  1  0  0  0  0  0  0  0  0
   21.3805    1.9928  -67.4011 N   0  0  0  1  0  0  0  0  0  0  0  0
   22.7435    1.4909  -67.6518 C   0  0  0  1  0  0  0  0  0  0  0  0
   20.2721   -0.0927  -67.9612 C   0  0  0  1  0  0  0  0  0  0  0  0
   19.0859   -0.7999  -68.0136 C   0  0  0  1  0  0  0  0  0  0  0  0
   17.8981   -0.2658  -67.7134 N   0  0  0  1  0  0  0  0  0  0  0  0
   17.8796    1.0234  -67.3464 C   0  0  0  1  0  0  0  0  0  0  0  0
   19.0194    1.8041  -67.2634 C   0  0  0  1  0  0  0  0  0  0  0  0
   27.4789    0.0013  -66.6491 H   0  0  0  1  0  0  0  0  0  0  0  0
   24.9647    2.4304  -61.7679 H   0  0  0  1  0  0  0  0  0  0  0  0
   27.9103    1.5571  -58.0173 H   0  0  0  1  0  0  0  0  0  0  0  0
   28.4273    0.6456  -60.2010 H   0  0  0  1  0  0  0  0  0  0  0  0
   24.4470    3.3434  -59.5806 H   0  0  0  1  0  0  0  0  0  0  0  0
   24.5153    2.7196  -67.7783 H   0  0  0  1  0  0  0  0  0  0  0  0
   23.0873    4.6835  -66.7290 H   0  0  0  1  0  0  0  0  0  0  0  0
   22.7564    4.2091  -68.3780 H   0  0  0  1  0  0  0  0  0  0  0  0
   21.2443    3.4573  -65.8803 H   0  0  0  1  0  0  0  0  0  0  0  0
   20.6013    3.9596  -67.4257 H   0  0  0  1  0  0  0  0  0  0  0  0
   23.4201    2.8695  -65.1015 H   0  0  0  1  0  0  0  0  0  0  0  0
   24.4894    4.4790  -57.8739 H   0  0  0  1  0  0  0  0  0  0  0  0
   24.2777    3.7701  -56.2910 H   0  0  0  1  0  0  0  0  0  0  0  0
   23.7640    2.8975  -57.7155 H   0  0  0  1  0  0  0  0  0  0  0  0
   22.9363    0.6033  -67.0861 H   0  0  0  1  0  0  0  0  0  0  0  0
   22.8941    1.2912  -68.6922 H   0  0  0  1  0  0  0  0  0  0  0  0
   21.1731   -0.5507  -68.2064 H   0  0  0  1  0  0  0  0  0  0  0  0
   19.1193   -1.7987  -68.3012 H   0  0  0  1  0  0  0  0  0  0  0  0
   16.9642    1.4582  -67.1126 H   0  0  0  1  0  0  0  0  0  0  0  0
   18.9593    2.8003  -66.9709 H   0  0  0  1  0  0  0  0  0  0  0  0
  1  3  4  0  0  0  0
  1 14  4  0  0  0  0
  1 21  1  0  0  0  0
  2 14  4  0  0  0  0
  2 15  4  0  0  0  0
  2 30  1  0  0  0  0
  3 16  4  0  0  0  0
  4  5  4  0  0  0  0
  4  7  4  0  0  0  0
  4 17  1  0  0  0  0
  5  9  4  0  0  0  0
  5 31  1  0  0  0  0
  6  7  4  0  0  0  0
  6  8  4  0  0  0  0
  6 32  1  0  0  0  0
  7 33  1  0  0  0  0
  8  9  4  0  0  0  0
  8 20  1  0  0  0  0
  9 34  1  0  0  0  0
 10 11  1  0  0  0  0
 10 21  1  0  0  0  0
 10 24  1  0  0  0  0
 10 35  1  0  0  0  0
 11 12  1  0  0  0  0
 11 36  1  0  0  0  0
 11 37  1  0  0  0  0
 12 23  1  0  0  0  0
 12 38  1  0  0  0  0
 12 39  1  0  0  0  0
 13 23  1  0  0  0  0
 13 25  4  0  0  0  0
 13 29  4  0  0  0  0
 15 16  4  0  0  0  0
 15 18  4  0  0  0  0
 16 17  4  0  0  0  0
 17 19  4  0  0  0  0
 18 19  4  0  0  0  0
 20 22  1  0  0  0  0
 21 40  1  0  0  0  0
 22 41  1  0  0  0  0
 22 42  1  0  0  0  0
 22 43  1  0  0  0  0
 23 24  1  0  0  0  0
 24 44  1  0  0  0  0
 24 45  1  0  0  0  0
 25 26  4  0  0  0  0
 25 46  1  0  0  0  0
 26 27  4  0  0  0  0
 26 47  1  0  0  0  0
 27 28  4  0  0  0  0
 28 29  4  0  0  0  0
 28 48  1  0  0  0  0
 29 49  1  0  0  0  0
M  END
> <ConfClashScore>
0 

> <ConfOneFourInteractionScore>
-0.984874 

> <ConfScore>
-0.0513095 

> <ConfScorePBest>
0.00503268 

> <ConfTolerance>
0.487645 

> <HETNAM>
     OWQ A 303  OWQ                                                       

> <pdb_OW>
Q_303 -16.5129 3.80749 7.62812 0.15963 1.39178 -0.28144 -3.20151 0 0 0 -1.30514 0 0 0 0 0 0 0 0 -8.31393

$$$$
6yky_lig_1.pdb
 OpenBabel04162415593D

 49 53  0  0  0  0  0  0  0  0999 V2000
   25.1048    1.8135  -65.3760 C   0  0  0  1  0  0  0  0  0  0  0  0
   26.9167    0.5034  -65.9326 C   0  0  0  1  0  0  0  0  0  0  0  0
   25.4178    1.8283  -64.0983 N   0  0  0  1  0  0  0  0  0  0  0  0
   26.8116    1.5873  -61.1667 C   0  0  0  1  0  0  0  0  0  0  0  0
   27.8502    2.2333  -60.5231 C   0  0  0  1  0  0  0  0  0  0  0  0
   25.4035    1.9470  -59.2601 C   0  0  0  1  0  0  0  0  0  0  0  0
   25.5872    1.4415  -60.5333 C   0  0  0  1  0  0  0  0  0  0  0  0
   26.4451    2.5949  -58.6145 C   0  0  0  1  0  0  0  0  0  0  0  0
   27.6657    2.7402  -59.2462 C   0  0  0  1  0  0  0  0  0  0  0  0
   23.5386    2.6025  -67.1600 C   0  0  0  1  0  0  0  0  0  0  0  0
   24.0325    3.9201  -67.7974 C   0  0  0  1  0  0  0  0  0  0  0  0
   22.8924    4.4902  -68.6029 C   0  0  0  1  0  0  0  0  0  0  0  0
   20.3880    3.9012  -68.4483 C   0  0  0  1  0  0  0  0  0  0  0  0
   25.8297    1.1707  -66.2748 N   0  0  0  1  0  0  0  0  0  0  0  0
   27.2965    0.4858  -64.5857 C   0  0  0  1  0  0  0  0  0  0  0  0
   26.4937    1.1852  -63.6614 C   0  0  0  1  0  0  0  0  0  0  0  0
   27.0809    1.0062  -62.4395 N   0  0  0  1  0  0  0  0  0  0  0  0
   28.3159   -0.0766  -63.9004 N   0  0  0  1  0  0  0  0  0  0  0  0
   28.2164    0.2092  -62.6490 N   0  0  0  1  0  0  0  0  0  0  0  0
   26.1087    3.0231  -57.3822 O   0  0  0  1  0  0  0  0  0  0  0  0
   24.0136    2.4725  -65.7816 N   0  0  0  1  0  0  0  0  0  0  0  0
   27.1857    3.6278  -56.6291 C   0  0  0  1  0  0  0  0  0  0  0  0
   21.7014    3.6720  -68.0578 N   0  0  0  1  0  0  0  0  0  0  0  0
   22.0308    2.7544  -67.2062 C   0  0  0  1  0  0  0  0  0  0  0  0
   19.8184    3.1664  -69.4717 C   0  0  0  1  0  0  0  0  0  0  0  0
   18.5078    3.4245  -69.8254 C   0  0  0  1  0  0  0  0  0  0  0  0
   17.7554    4.3548  -69.2299 N   0  0  0  1  0  0  0  0  0  0  0  0
   18.3217    5.0627  -68.2423 C   0  0  0  1  0  0  0  0  0  0  0  0
   19.6257    4.8678  -67.8218 C   0  0  0  1  0  0  0  0  0  0  0  0
   27.4790    0.0014  -66.6492 H   0  0  0  1  0  0  0  0  0  0  0  0
   28.7699    2.3391  -60.9968 H   0  0  0  1  0  0  0  0  0  0  0  0
   24.4837    1.8411  -58.7864 H   0  0  0  1  0  0  0  0  0  0  0  0
   24.8070    0.9518  -61.0161 H   0  0  0  1  0  0  0  0  0  0  0  0
   28.4460    3.2299  -58.7635 H   0  0  0  1  0  0  0  0  0  0  0  0
   23.8584    1.7549  -67.7293 H   0  0  0  1  0  0  0  0  0  0  0  0
   24.3199    4.6106  -67.0321 H   0  0  0  1  0  0  0  0  0  0  0  0
   24.8691    3.7258  -68.4355 H   0  0  0  1  0  0  0  0  0  0  0  0
   22.7665    5.5366  -68.4180 H   0  0  0  1  0  0  0  0  0  0  0  0
   23.0330    4.3271  -69.6511 H   0  0  0  1  0  0  0  0  0  0  0  0
   23.4795    2.9119  -65.0872 H   0  0  0  1  0  0  0  0  0  0  0  0
   26.9057    3.6978  -55.5989 H   0  0  0  1  0  0  0  0  0  0  0  0
   27.3826    4.6072  -57.0124 H   0  0  0  1  0  0  0  0  0  0  0  0
   28.0656    3.0256  -56.7192 H   0  0  0  1  0  0  0  0  0  0  0  0
   21.6730    3.0278  -66.2356 H   0  0  0  1  0  0  0  0  0  0  0  0
   21.5906    1.8245  -67.5004 H   0  0  0  1  0  0  0  0  0  0  0  0
   20.3661    2.4334  -69.9659 H   0  0  0  1  0  0  0  0  0  0  0  0
   18.0852    2.8661  -70.5943 H   0  0  0  1  0  0  0  0  0  0  0  0
   17.7534    5.7941  -67.7691 H   0  0  0  1  0  0  0  0  0  0  0  0
   20.0241    5.4381  -67.0487 H   0  0  0  1  0  0  0  0  0  0  0  0
  1  3  4  0  0  0  0
  1 14  4  0  0  0  0
  1 21  1  0  0  0  0
  2 14  4  0  0  0  0
  2 15  4  0  0  0  0
  2 30  1  0  0  0  0
  3 16  4  0  0  0  0
  4  5  4  0  0  0  0
  4  7  4  0  0  0  0
  4 17  1  0  0  0  0
  5  9  4  0  0  0  0
  5 31  1  0  0  0  0
  6  7  4  0  0  0  0
  6  8  4  0  0  0  0
  6 32  1  0  0  0  0
  7 33  1  0  0  0  0
  8  9  4  0  0  0  0
  8 20  1  0  0  0  0
  9 34  1  0  0  0  0
 10 11  1  0  0  0  0
 10 21  1  0  0  0  0
 10 24  1  0  0  0  0
 10 35  1  0  0  0  0
 11 12  1  0  0  0  0
 11 36  1  0  0  0  0
 11 37  1  0  0  0  0
 12 23  1  0  0  0  0
 12 38  1  0  0  0  0
 12 39  1  0  0  0  0
 13 23  1  0  0  0  0
 13 25  4  0  0  0  0
 13 29  4  0  0  0  0
 15 16  4  0  0  0  0
 15 18  4  0  0  0  0
 16 17  4  0  0  0  0
 17 19  4  0  0  0  0
 18 19  4  0  0  0  0
 20 22  1  0  0  0  0
 21 40  1  0  0  0  0
 22 41  1  0  0  0  0
 22 42  1  0  0  0  0
 22 43  1  0  0  0  0
 23 24  1  0  0  0  0
 24 44  1  0  0  0  0
 24 45  1  0  0  0  0
 25 26  4  0  0  0  0
 25 46  1  0  0  0  0
 26 27  4  0  0  0  0
 26 47  1  0  0  0  0
 27 28  4  0  0  0  0
 28 29  4  0  0  0  0
 28 48  1  0  0  0  0
 29 49  1  0  0  0  0
M  END
> <ConfClashScore>
0 

> <ConfOneFourInteractionScore>
-0.986948 

> <ConfScore>
-0.047743 

> <ConfScorePBest>
0.00501935 

> <ConfTolerance>
0.379979 

> <HETNAM>
     OWQ A 303  OWQ                                                       

> <pdb_OW>
Q_303 -16.5129 3.80749 7.62812 0.15963 1.39178 -0.28144 -3.20151 0 0 0 -1.30514 0 0 0 0 0 0 0 0 -8.31393

$$$$
6yky_lig_1.pdb
 OpenBabel04162415593D

 49 53  0  0  0  0  0  0  0  0999 V2000
   25.1048    1.8135  -65.3759 C   0  0  0  1  0  0  0  0  0  0  0  0
   26.9167    0.5034  -65.9326 C   0  0  0  1  0  0  0  0  0  0  0  0
   25.4178    1.8284  -64.0982 N   0  0  0  1  0  0  0  0  0  0  0  0
   26.7287    1.4699  -61.1391 C   0  0  0  1  0  0  0  0  0  0  0  0
   27.6311    1.2553  -60.1145 C   0  0  0  1  0  0  0  0  0  0  0  0
   25.1631    2.3855  -59.5712 C   0  0  0  1  0  0  0  0  0  0  0  0
   25.4918    2.0333  -60.8667 C   0  0  0  1  0  0  0  0  0  0  0  0
   26.0681    2.1704  -58.5435 C   0  0  0  1  0  0  0  0  0  0  0  0
   27.3014    1.6087  -58.8153 C   0  0  0  1  0  0  0  0  0  0  0  0
   23.4306    2.5586  -67.0708 C   0  0  0  1  0  0  0  0  0  0  0  0
   24.1081    3.6599  -67.9325 C   0  0  0  1  0  0  0  0  0  0  0  0
   23.0697    4.1444  -68.9659 C   0  0  0  1  0  0  0  0  0  0  0  0
   20.5675    3.7172  -69.0382 C   0  0  0  1  0  0  0  0  0  0  0  0
   25.8297    1.1707  -66.2747 N   0  0  0  1  0  0  0  0  0  0  0  0
   27.2965    0.4857  -64.5857 C   0  0  0  1  0  0  0  0  0  0  0  0
   26.4937    1.1852  -63.6614 C   0  0  0  1  0  0  0  0  0  0  0  0
   27.0809    1.0062  -62.4394 N   0  0  0  1  0  0  0  0  0  0  0  0
   28.3159   -0.0766  -63.9004 N   0  0  0  1  0  0  0  0  0  0  0  0
   28.2164    0.2092  -62.6490 N   0  0  0  1  0  0  0  0  0  0  0  0
   25.8581    2.4671  -57.2463 O   0  0  0  1  0  0  0  0  0  0  0  0
   24.0053    2.4866  -65.7331 N   0  0  0  1  0  0  0  0  0  0  0  0
   24.5821    3.0850  -56.9586 C   0  0  0  1  0  0  0  0  0  0  0  0
   21.7834    3.6557  -68.3937 N   0  0  0  1  0  0  0  0  0  0  0  0
   21.9875    3.0983  -67.0465 C   0  0  0  1  0  0  0  0  0  0  0  0
   20.2605    2.8267  -70.0503 C   0  0  0  1  0  0  0  0  0  0  0  0
   19.0278    2.9213  -70.6676 C   0  0  0  1  0  0  0  0  0  0  0  0
   18.1099    3.8356  -70.3394 N   0  0  0  1  0  0  0  0  0  0  0  0
   18.4225    4.6954  -69.3594 C   0  0  0  1  0  0  0  0  0  0  0  0
   19.6313    4.6696  -68.6860 C   0  0  0  1  0  0  0  0  0  0  0  0
   27.4790    0.0014  -66.6491 H   0  0  0  1  0  0  0  0  0  0  0  0
   28.5576    0.8290  -60.3182 H   0  0  0  1  0  0  0  0  0  0  0  0
   24.2367    2.8119  -59.3675 H   0  0  0  1  0  0  0  0  0  0  0  0
   24.8111    2.1910  -61.6371 H   0  0  0  1  0  0  0  0  0  0  0  0
   27.9820    1.4509  -58.0450 H   0  0  0  1  0  0  0  0  0  0  0  0
   23.4883    1.5970  -67.5365 H   0  0  0  1  0  0  0  0  0  0  0  0
   24.4117    4.4755  -67.3099 H   0  0  0  1  0  0  0  0  0  0  0  0
   24.9625    3.2566  -68.4347 H   0  0  0  1  0  0  0  0  0  0  0  0
   23.2526    3.7125  -69.9277 H   0  0  0  1  0  0  0  0  0  0  0  0
   23.0750    5.2113  -69.0467 H   0  0  0  1  0  0  0  0  0  0  0  0
   23.5402    2.9800  -65.0256 H   0  0  0  1  0  0  0  0  0  0  0  0
   24.3893    3.0336  -55.9074 H   0  0  0  1  0  0  0  0  0  0  0  0
   23.8088    2.5693  -57.4884 H   0  0  0  1  0  0  0  0  0  0  0  0
   24.6046    4.1093  -57.2671 H   0  0  0  1  0  0  0  0  0  0  0  0
   21.2913    2.3090  -66.8538 H   0  0  0  1  0  0  0  0  0  0  0  0
   21.8802    3.8590  -66.3017 H   0  0  0  1  0  0  0  0  0  0  0  0
   20.9445    2.0994  -70.3416 H   0  0  0  1  0  0  0  0  0  0  0  0
   18.8028    2.2466  -71.4264 H   0  0  0  1  0  0  0  0  0  0  0  0
   17.7226    5.4167  -69.0922 H   0  0  0  1  0  0  0  0  0  0  0  0
   19.8309    5.3544  -67.9291 H   0  0  0  1  0  0  0  0  0  0  0  0
  1  3  4  0  0  0  0
  1 14  4  0  0  0  0
  1 21  1  0  0  0  0
  2 14  4  0  0  0  0
  2 15  4  0  0  0  0
  2 30  1  0  0  0  0
  3 16  4  0  0  0  0
  4  5  4  0  0  0  0
  4  7  4  0  0  0  0
  4 17  1  0  0  0  0
  5  9  4  0  0  0  0
  5 31  1  0  0  0  0
  6  7  4  0  0  0  0
  6  8  4  0  0  0  0
  6 32  1  0  0  0  0
  7 33  1  0  0  0  0
  8  9  4  0  0  0  0
  8 20  1  0  0  0  0
  9 34  1  0  0  0  0
 10 11  1  0  0  0  0
 10 21  1  0  0  0  0
 10 24  1  0  0  0  0
 10 35  1  0  0  0  0
 11 12  1  0  0  0  0
 11 36  1  0  0  0  0
 11 37  1  0  0  0  0
 12 23  1  0  0  0  0
 12 38  1  0  0  0  0
 12 39  1  0  0  0  0
 13 23  1  0  0  0  0
 13 25  4  0  0  0  0
 13 29  4  0  0  0  0
 15 16  4  0  0  0  0
 15 18  4  0  0  0  0
 16 17  4  0  0  0  0
 17 19  4  0  0  0  0
 18 19  4  0  0  0  0
 20 22  1  0  0  0  0
 21 40  1  0  0  0  0
 22 41  1  0  0  0  0
 22 42  1  0  0  0  0
 22 43  1  0  0  0  0
 23 24  1  0  0  0  0
 24 44  1  0  0  0  0
 24 45  1  0  0  0  0
 25 26  4  0  0  0  0
 25 46  1  0  0  0  0
 26 27  4  0  0  0  0
 26 47  1  0  0  0  0
 27 28  4  0  0  0  0
 28 29  4  0  0  0  0
 28 48  1  0  0  0  0
 29 49  1  0  0  0  0
M  END
> <ConfClashScore>
0 

> <ConfOneFourInteractionScore>
-0.986948 

> <ConfScore>
-0.0465806 

> <ConfScorePBest>
0.00500602 

> <ConfTolerance>
0.399964 

> <HETNAM>
     OWQ A 303  OWQ                                                       

> <pdb_OW>
Q_303 -16.5129 3.80749 7.62812 0.15963 1.39178 -0.28144 -3.20151 0 0 0 -1.30514 0 0 0 0 0 0 0 0 -8.31393

$$$$
6yky_lig_1.pdb
 OpenBabel04162415593D

 49 53  0  0  0  0  0  0  0  0999 V2000
   25.1050    1.8138  -65.3760 C   0  0  0  1  0  0  0  0  0  0  0  0
   26.9167    0.5034  -65.9326 C   0  0  0  1  0  0  0  0  0  0  0  0
   25.4180    1.8286  -64.0982 N   0  0  0  1  0  0  0  0  0  0  0  0
   26.7287    1.4701  -61.1391 C   0  0  0  1  0  0  0  0  0  0  0  0
   27.6973    1.9994  -60.3073 C   0  0  0  1  0  0  0  0  0  0  0  0
   25.1078    1.6732  -59.3845 C   0  0  0  1  0  0  0  0  0  0  0  0
   25.4327    1.3042  -60.6763 C   0  0  0  1  0  0  0  0  0  0  0  0
   26.0791    2.2041  -58.5501 C   0  0  0  1  0  0  0  0  0  0  0  0
   27.3713    2.3694  -59.0118 C   0  0  0  1  0  0  0  0  0  0  0  0
   23.1134    3.1988  -64.8912 C   0  0  0  1  0  0  0  0  0  0  0  0
   21.7668    3.3777  -65.5286 C   0  0  0  1  0  0  0  0  0  0  0  0
   22.0149    4.6080  -66.4454 C   0  0  0  1  0  0  0  0  0  0  0  0
   23.2984    6.6748  -65.9508 C   0  0  0  1  0  0  0  0  0  0  0  0
   25.8298    1.1709  -66.2748 N   0  0  0  1  0  0  0  0  0  0  0  0
   27.2965    0.4858  -64.5857 C   0  0  0  1  0  0  0  0  0  0  0  0
   26.4937    1.1854  -63.6614 C   0  0  0  1  0  0  0  0  0  0  0  0
   27.0810    1.0063  -62.4395 N   0  0  0  1  0  0  0  0  0  0  0  0
   28.3159   -0.0766  -63.9004 N   0  0  0  1  0  0  0  0  0  0  0  0
   28.2164    0.2092  -62.6490 N   0  0  0  1  0  0  0  0  0  0  0  0
   25.8278    2.5803  -57.2737 O   0  0  0  1  0  0  0  0  0  0  0  0
   24.0036    2.4790  -65.7852 N   0  0  0  1  0  0  0  0  0  0  0  0
   26.8125    3.4004  -56.6254 C   0  0  0  1  0  0  0  0  0  0  0  0
   22.9943    5.3460  -65.6911 N   0  0  0  1  0  0  0  0  0  0  0  0
   23.6368    4.5838  -64.6366 C   0  0  0  1  0  0  0  0  0  0  0  0
   24.3526    7.0633  -66.7567 C   0  0  0  1  0  0  0  0  0  0  0  0
   24.5729    8.4125  -66.9584 C   0  0  0  1  0  0  0  0  0  0  0  0
   23.8187    9.3702  -66.4105 N   0  0  0  1  0  0  0  0  0  0  0  0
   22.8029    8.9795  -65.6279 C   0  0  0  1  0  0  0  0  0  0  0  0
   22.5086    7.6510  -65.3753 C   0  0  0  1  0  0  0  0  0  0  0  0
   27.4789    0.0013  -66.6491 H   0  0  0  1  0  0  0  0  0  0  0  0
   28.6706    2.1201  -60.6534 H   0  0  0  1  0  0  0  0  0  0  0  0
   24.1345    1.5524  -59.0385 H   0  0  0  1  0  0  0  0  0  0  0  0
   24.7048    0.9022  -61.3010 H   0  0  0  1  0  0  0  0  0  0  0  0
   28.0992    2.7714  -58.3871 H   0  0  0  1  0  0  0  0  0  0  0  0
   23.0206    2.6613  -63.9706 H   0  0  0  1  0  0  0  0  0  0  0  0
   21.4874    2.5163  -66.0987 H   0  0  0  1  0  0  0  0  0  0  0  0
   21.0129    3.5818  -64.7972 H   0  0  0  1  0  0  0  0  0  0  0  0
   22.4001    4.3117  -67.3986 H   0  0  0  1  0  0  0  0  0  0  0  0
   21.1196    5.1776  -66.5832 H   0  0  0  1  0  0  0  0  0  0  0  0
   23.7923    2.4761  -66.7422 H   0  0  0  1  0  0  0  0  0  0  0  0
   27.1232    4.1788  -57.2907 H   0  0  0  1  0  0  0  0  0  0  0  0
   27.6575    2.8001  -56.3599 H   0  0  0  1  0  0  0  0  0  0  0  0
   26.3905    3.8334  -55.7427 H   0  0  0  1  0  0  0  0  0  0  0  0
   23.3469    4.9374  -63.6693 H   0  0  0  1  0  0  0  0  0  0  0  0
   24.7026    4.6192  -64.7254 H   0  0  0  1  0  0  0  0  0  0  0  0
   24.9680    6.3535  -67.2026 H   0  0  0  1  0  0  0  0  0  0  0  0
   25.3661    8.6972  -67.5678 H   0  0  0  1  0  0  0  0  0  0  0  0
   22.2068    9.7102  -65.1894 H   0  0  0  1  0  0  0  0  0  0  0  0
   21.7081    7.3926  -64.7637 H   0  0  0  1  0  0  0  0  0  0  0  0
  1  3  4  0  0  0  0
  1 14  4  0  0  0  0
  1 21  1  0  0  0  0
  2 14  4  0  0  0  0
  2 15  4  0  0  0  0
  2 30  1  0  0  0  0
  3 16  4  0  0  0  0
  4  5  4  0  0  0  0
  4  7  4  0  0  0  0
  4 17  1  0  0  0  0
  5  9  4  0  0  0  0
  5 31  1  0  0  0  0
  6  7  4  0  0  0  0
  6  8  4  0  0  0  0
  6 32  1  0  0  0  0
  7 33  1  0  0  0  0
  8  9  4  0  0  0  0
  8 20  1  0  0  0  0
  9 34  1  0  0  0  0
 10 11  1  0  0  0  0
 10 21  1  0  0  0  0
 10 24  1  0  0  0  0
 10 35  1  0  0  0  0
 11 12  1  0  0  0  0
 11 36  1  0  0  0  0
 11 37  1  0  0  0  0
 12 23  1  0  0  0  0
 12 38  1  0  0  0  0
 12 39  1  0  0  0  0
 13 23  1  0  0  0  0
 13 25  4  0  0  0  0
 13 29  4  0  0  0  0
 15 16  4  0  0  0  0
 15 18  4  0  0  0  0
 16 17  4  0  0  0  0
 17 19  4  0  0  0  0
 18 19  4  0  0  0  0
 20 22  1  0  0  0  0
 21 40  1  0  0  0  0
 22 41  1  0  0  0  0
 22 42  1  0  0  0  0
 22 43  1  0  0  0  0
 23 24  1  0  0  0  0
 24 44  1  0  0  0  0
 24 45  1  0  0  0  0
 25 26  4  0  0  0  0
 25 46  1  0  0  0  0
 26 27  4  0  0  0  0
 26 47  1  0  0  0  0
 27 28  4  0  0  0  0
 28 29  4  0  0  0  0
 28 48  1  0  0  0  0
 29 49  1  0  0  0  0
M  END
> <ConfClashScore>
0 

> <ConfOneFourInteractionScore>
-0.986948 

> <ConfScore>
-0.046169 

> <ConfScorePBest>
0.00499269 

> <ConfTolerance>
0.553972 

> <HETNAM>
     OWQ A 303  OWQ                                                       

> <pdb_OW>
Q_303 -16.5129 3.80749 7.62812 0.15963 1.39178 -0.28144 -3.20151 0 0 0 -1.30514 0 0 0 0 0 0 0 0 -8.31393

$$$$
6yky_lig_1.pdb
 OpenBabel04162415593D

 49 53  0  0  0  0  0  0  0  0999 V2000
   25.1047    1.8134  -65.3759 C   0  0  0  1  0  0  0  0  0  0  0  0
   26.9167    0.5034  -65.9326 C   0  0  0  1  0  0  0  0  0  0  0  0
   25.4177    1.8281  -64.0981 N   0  0  0  1  0  0  0  0  0  0  0  0
   26.6876    1.3783  -61.1215 C   0  0  0  1  0  0  0  0  0  0  0  0
   27.4467    2.2817  -60.4020 C   0  0  0  1  0  0  0  0  0  0  0  0
   25.2632    1.0575  -59.2200 C   0  0  0  1  0  0  0  0  0  0  0  0
   25.5957    0.7632  -60.5289 C   0  0  0  1  0  0  0  0  0  0  0  0
   26.0245    1.9637  -58.4983 C   0  0  0  1  0  0  0  0  0  0  0  0
   27.1130    2.5768  -59.0893 C   0  0  0  1  0  0  0  0  0  0  0  0
   23.4297    2.5544  -67.1263 C   0  0  0  1  0  0  0  0  0  0  0  0
   22.5681    3.8030  -67.2777 C   0  0  0  1  0  0  0  0  0  0  0  0
   21.2363    3.4187  -66.6198 C   0  0  0  1  0  0  0  0  0  0  0  0
   20.1014    1.1655  -66.4276 C   0  0  0  1  0  0  0  0  0  0  0  0
   25.8296    1.1706  -66.2747 N   0  0  0  1  0  0  0  0  0  0  0  0
   27.2965    0.4857  -64.5857 C   0  0  0  1  0  0  0  0  0  0  0  0
   26.4936    1.1850  -63.6613 C   0  0  0  1  0  0  0  0  0  0  0  0
   27.0809    1.0060  -62.4394 N   0  0  0  1  0  0  0  0  0  0  0  0
   28.3159   -0.0766  -63.9004 N   0  0  0  1  0  0  0  0  0  0  0  0
   28.2164    0.2092  -62.6490 N   0  0  0  1  0  0  0  0  0  0  0  0
   25.6065    2.1677  -57.2264 O   0  0  0  1  0  0  0  0  0  0  0  0
   24.0073    2.4760  -65.7836 N   0  0  0  1  0  0  0  0  0  0  0  0
   26.2849    3.1808  -56.4674 C   0  0  0  1  0  0  0  0  0  0  0  0
   21.1950    1.9543  -66.7823 N   0  0  0  1  0  0  0  0  0  0  0  0
   22.4431    1.4156  -67.3636 C   0  0  0  1  0  0  0  0  0  0  0  0
   19.9995    0.6329  -65.1556 C   0  0  0  1  0  0  0  0  0  0  0  0
   18.8969   -0.1399  -64.8451 C   0  0  0  1  0  0  0  0  0  0  0  0
   17.9173   -0.4057  -65.7145 N   0  0  0  1  0  0  0  0  0  0  0  0
   18.0312    0.1133  -66.9453 C   0  0  0  1  0  0  0  0  0  0  0  0
   19.0987    0.9007  -67.3398 C   0  0  0  1  0  0  0  0  0  0  0  0
   27.4789    0.0014  -66.6491 H   0  0  0  1  0  0  0  0  0  0  0  0
   28.2683    2.7401  -60.8454 H   0  0  0  1  0  0  0  0  0  0  0  0
   24.4416    0.5992  -58.7766 H   0  0  0  1  0  0  0  0  0  0  0  0
   25.0270    0.0804  -61.0691 H   0  0  0  1  0  0  0  0  0  0  0  0
   27.6818    3.2596  -58.5492 H   0  0  0  1  0  0  0  0  0  0  0  0
   24.2140    2.5397  -67.8539 H   0  0  0  1  0  0  0  0  0  0  0  0
   23.0140    4.6355  -66.7748 H   0  0  0  1  0  0  0  0  0  0  0  0
   22.4262    4.0437  -68.3105 H   0  0  0  1  0  0  0  0  0  0  0  0
   21.2263    3.6909  -65.5851 H   0  0  0  1  0  0  0  0  0  0  0  0
   20.4126    3.8842  -67.1196 H   0  0  0  1  0  0  0  0  0  0  0  0
   23.5298    2.9737  -65.0874 H   0  0  0  1  0  0  0  0  0  0  0  0
   26.1083    4.1381  -56.9115 H   0  0  0  1  0  0  0  0  0  0  0  0
   27.3356    2.9786  -56.4622 H   0  0  0  1  0  0  0  0  0  0  0  0
   25.9161    3.1803  -55.4629 H   0  0  0  1  0  0  0  0  0  0  0  0
   22.3285    1.2138  -68.4082 H   0  0  0  1  0  0  0  0  0  0  0  0
   22.7521    0.5238  -66.8595 H   0  0  0  1  0  0  0  0  0  0  0  0
   20.7388    0.8108  -64.4460 H   0  0  0  1  0  0  0  0  0  0  0  0
   18.8258   -0.5351  -63.8857 H   0  0  0  1  0  0  0  0  0  0  0  0
   17.2806   -0.0854  -67.6373 H   0  0  0  1  0  0  0  0  0  0  0  0
   19.1451    1.2858  -68.3048 H   0  0  0  1  0  0  0  0  0  0  0  0
  1  3  4  0  0  0  0
  1 14  4  0  0  0  0
  1 21  1  0  0  0  0
  2 14  4  0  0  0  0
  2 15  4  0  0  0  0
  2 30  1  0  0  0  0
  3 16  4  0  0  0  0
  4  5  4  0  0  0  0
  4  7  4  0  0  0  0
  4 17  1  0  0  0  0
  5  9  4  0  0  0  0
  5 31  1  0  0  0  0
  6  7  4  0  0  0  0
  6  8  4  0  0  0  0
  6 32  1  0  0  0  0
  7 33  1  0  0  0  0
  8  9  4  0  0  0  0
  8 20  1  0  0  0  0
  9 34  1  0  0  0  0
 10 11  1  0  0  0  0
 10 21  1  0  0  0  0
 10 24  1  0  0  0  0
 10 35  1  0  0  0  0
 11 12  1  0  0  0  0
 11 36  1  0  0  0  0
 11 37  1  0  0  0  0
 12 23  1  0  0  0  0
 12 38  1  0  0  0  0
 12 39  1  0  0  0  0
 13 23  1  0  0  0  0
 13 25  4  0  0  0  0
 13 29  4  0  0  0  0
 15 16  4  0  0  0  0
 15 18  4  0  0  0  0
 16 17  4  0  0  0  0
 17 19  4  0  0  0  0
 18 19  4  0  0  0  0
 20 22  1  0  0  0  0
 21 40  1  0  0  0  0
 22 41  1  0  0  0  0
 22 42  1  0  0  0  0
 22 43  1  0  0  0  0
 23 24  1  0  0  0  0
 24 44  1  0  0  0  0
 24 45  1  0  0  0  0
 25 26  4  0  0  0  0
 25 46  1  0  0  0  0
 26 27  4  0  0  0  0
 26 47  1  0  0  0  0
 27 28  4  0  0  0  0
 28 29  4  0  0  0  0
 28 48  1  0  0  0  0
 29 49  1  0  0  0  0
M  END
> <ConfClashScore>
0 

> <ConfOneFourInteractionScore>
-0.986948 

> <ConfScore>
-0.046169 

> <ConfScorePBest>
0.00497936 

> <ConfTolerance>
0.564893 

> <HETNAM>
     OWQ A 303  OWQ                                                       

> <pdb_OW>
Q_303 -16.5129 3.80749 7.62812 0.15963 1.39178 -0.28144 -3.20151 0 0 0 -1.30514 0 0 0 0 0 0 0 0 -8.31393

$$$$
6yky_lig_1.pdb
 OpenBabel04162415593D

 49 53  0  0  0  0  0  0  0  0999 V2000
   25.1048    1.8135  -65.3759 C   0  0  0  1  0  0  0  0  0  0  0  0
   26.9167    0.5034  -65.9326 C   0  0  0  1  0  0  0  0  0  0  0  0
   25.4178    1.8283  -64.0982 N   0  0  0  1  0  0  0  0  0  0  0  0
   26.6876    1.3785  -61.1215 C   0  0  0  1  0  0  0  0  0  0  0  0
   26.7055    0.3999  -60.1456 C   0  0  0  1  0  0  0  0  0  0  0  0
   25.7560    2.9314  -59.5506 C   0  0  0  1  0  0  0  0  0  0  0  0
   26.2098    2.6452  -60.8245 C   0  0  0  1  0  0  0  0  0  0  0  0
   25.7739    1.9501  -58.5716 C   0  0  0  1  0  0  0  0  0  0  0  0
   26.2505    0.6870  -58.8682 C   0  0  0  1  0  0  0  0  0  0  0  0
   23.6524    2.6066  -67.1963 C   0  0  0  1  0  0  0  0  0  0  0  0
   22.5902    3.6490  -67.3887 C   0  0  0  1  0  0  0  0  0  0  0  0
   21.3025    2.8530  -67.0361 C   0  0  0  1  0  0  0  0  0  0  0  0
   20.6858    0.5042  -67.6551 C   0  0  0  1  0  0  0  0  0  0  0  0
   25.8297    1.1707  -66.2748 N   0  0  0  1  0  0  0  0  0  0  0  0
   27.2965    0.4857  -64.5858 C   0  0  0  1  0  0  0  0  0  0  0  0
   26.4936    1.1852  -63.6614 C   0  0  0  1  0  0  0  0  0  0  0  0
   27.0809    1.0061  -62.4395 N   0  0  0  1  0  0  0  0  0  0  0  0
   28.3158   -0.0766  -63.9004 N   0  0  0  1  0  0  0  0  0  0  0  0
   28.2164    0.2092  -62.6490 N   0  0  0  1  0  0  0  0  0  0  0  0
   25.3394    2.1637  -57.3070 O   0  0  0  1  0  0  0  0  0  0  0  0
   23.9920    2.4856  -65.7895 N   0  0  0  1  0  0  0  0  0  0  0  0
   25.1135    1.0068  -56.4865 C   0  0  0  1  0  0  0  0  0  0  0  0
   21.6477    1.5246  -67.4709 N   0  0  0  1  0  0  0  0  0  0  0  0
   23.0653    1.3205  -67.7044 C   0  0  0  1  0  0  0  0  0  0  0  0
   21.0524   -0.7253  -68.1705 C   0  0  0  1  0  0  0  0  0  0  0  0
   20.0812   -1.6953  -68.3304 C   0  0  0  1  0  0  0  0  0  0  0  0
   18.7962   -1.5077  -68.0145 N   0  0  0  1  0  0  0  0  0  0  0  0
   18.4540   -0.3095  -67.5199 C   0  0  0  1  0  0  0  0  0  0  0  0
   19.3618    0.7165  -67.3237 C   0  0  0  1  0  0  0  0  0  0  0  0
   27.4789    0.0013  -66.6492 H   0  0  0  1  0  0  0  0  0  0  0  0
   27.0603   -0.5516  -60.3698 H   0  0  0  1  0  0  0  0  0  0  0  0
   25.4012    3.8829  -59.3266 H   0  0  0  1  0  0  0  0  0  0  0  0
   26.1926    3.3803  -61.5599 H   0  0  0  1  0  0  0  0  0  0  0  0
   26.2676   -0.0481  -58.1326 H   0  0  0  1  0  0  0  0  0  0  0  0
   24.5289    2.8615  -67.7546 H   0  0  0  1  0  0  0  0  0  0  0  0
   22.7310    4.4767  -66.7253 H   0  0  0  1  0  0  0  0  0  0  0  0
   22.5672    4.0008  -68.3989 H   0  0  0  1  0  0  0  0  0  0  0  0
   20.4544    3.2290  -67.5692 H   0  0  0  1  0  0  0  0  0  0  0  0
   21.1042    2.8793  -65.9851 H   0  0  0  1  0  0  0  0  0  0  0  0
   23.4066    2.8973  -65.1199 H   0  0  0  1  0  0  0  0  0  0  0  0
   24.3374    0.4093  -56.9174 H   0  0  0  1  0  0  0  0  0  0  0  0
   24.8211    1.3173  -55.5053 H   0  0  0  1  0  0  0  0  0  0  0  0
   26.0138    0.4317  -56.4257 H   0  0  0  1  0  0  0  0  0  0  0  0
   23.4331    0.4805  -67.1529 H   0  0  0  1  0  0  0  0  0  0  0  0
   23.2721    1.1829  -68.7451 H   0  0  0  1  0  0  0  0  0  0  0  0
   22.0404   -0.9165  -68.4329 H   0  0  0  1  0  0  0  0  0  0  0  0
   20.3647   -2.6185  -68.7162 H   0  0  0  1  0  0  0  0  0  0  0  0
   17.4579   -0.1430  -67.2717 H   0  0  0  1  0  0  0  0  0  0  0  0
   19.0529    1.6300  -66.9341 H   0  0  0  1  0  0  0  0  0  0  0  0
  1  3  4  0  0  0  0
  1 14  4  0  0  0  0
  1 21  1  0  0  0  0
  2 14  4  0  0  0  0
  2 15  4  0  0  0  0
  2 30  1  0  0  0  0
  3 16  4  0  0  0  0
  4  5  4  0  0  0  0
  4  7  4  0  0  0  0
  4 17  1  0  0  0  0
  5  9  4  0  0  0  0
  5 31  1  0  0  0  0
  6  7  4  0  0  0  0
  6  8  4  0  0  0  0
  6 32  1  0  0  0  0
  7 33  1  0  0  0  0
  8  9  4  0  0  0  0
  8 20  1  0  0  0  0
  9 34  1  0  0  0  0
 10 11  1  0  0  0  0
 10 21  1  0  0  0  0
 10 24  1  0  0  0  0
 10 35  1  0  0  0  0
 11 12  1  0  0  0  0
 11 36  1  0  0  0  0
 11 37  1  0  0  0  0
 12 23  1  0  0  0  0
 12 38  1  0  0  0  0
 12 39  1  0  0  0  0
 13 23  1  0  0  0  0
 13 25  4  0  0  0  0
 13 29  4  0  0  0  0
 15 16  4  0  0  0  0
 15 18  4  0  0  0  0
 16 17  4  0  0  0  0
 17 19  4  0  0  0  0
 18 19  4  0  0  0  0
 20 22  1  0  0  0  0
 21 40  1  0  0  0  0
 22 41  1  0  0  0  0
 22 42  1  0  0  0  0
 22 43  1  0  0  0  0
 23 24  1  0  0  0  0
 24 44  1  0  0  0  0
 24 45  1  0  0  0  0
 25 26  4  0  0  0  0
 25 46  1  0  0  0  0
 26 27  4  0  0  0  0
 26 47  1  0  0  0  0
 27 28  4  0  0  0  0
 28 29  4  0  0  0  0
 28 48  1  0  0  0  0
 29 49  1  0  0  0  0
M  END
> <ConfClashScore>
0 

> <ConfOneFourInteractionScore>
-0.984874 

> <ConfScore>
-0.0457908 

> <ConfScorePBest>
0.00496604 

> <ConfTolerance>
0.534843 

> <HETNAM>
     OWQ A 303  OWQ                                                       

> <pdb_OW>
Q_303 -16.5129 3.80749 7.62812 0.15963 1.39178 -0.28144 -3.20151 0 0 0 -1.30514 0 0 0 0 0 0 0 0 -8.31393

$$$$
6yky_lig_1.pdb
 OpenBabel04162415593D

 49 53  0  0  0  0  0  0  0  0999 V2000
   25.1048    1.8136  -65.3759 C   0  0  0  1  0  0  0  0  0  0  0  0
   26.9167    0.5034  -65.9326 C   0  0  0  1  0  0  0  0  0  0  0  0
   25.4178    1.8284  -64.0982 N   0  0  0  1  0  0  0  0  0  0  0  0
   26.7670    1.4473  -61.1214 C   0  0  0  1  0  0  0  0  0  0  0  0
   26.3652    0.5353  -60.1638 C   0  0  0  1  0  0  0  0  0  0  0  0
   26.3881    3.2405  -59.5761 C   0  0  0  1  0  0  0  0  0  0  0  0
   26.7760    2.8021  -60.8282 C   0  0  0  1  0  0  0  0  0  0  0  0
   25.9850    2.3260  -58.6155 C   0  0  0  1  0  0  0  0  0  0  0  0
   25.9761    0.9751  -58.9082 C   0  0  0  1  0  0  0  0  0  0  0  0
   23.5990    2.5976  -67.1752 C   0  0  0  1  0  0  0  0  0  0  0  0
   23.9221    4.0024  -67.7309 C   0  0  0  1  0  0  0  0  0  0  0  0
   22.7575    4.4305  -68.5878 C   0  0  0  1  0  0  0  0  0  0  0  0
   20.3814    3.4644  -68.6132 C   0  0  0  1  0  0  0  0  0  0  0  0
   25.8296    1.1707  -66.2746 N   0  0  0  1  0  0  0  0  0  0  0  0
   27.2965    0.4857  -64.5857 C   0  0  0  1  0  0  0  0  0  0  0  0
   26.4937    1.1852  -63.6614 C   0  0  0  1  0  0  0  0  0  0  0  0
   27.0810    1.0061  -62.4394 N   0  0  0  1  0  0  0  0  0  0  0  0
   28.3159   -0.0766  -63.9004 N   0  0  0  1  0  0  0  0  0  0  0  0
   28.2164    0.2092  -62.6490 N   0  0  0  1  0  0  0  0  0  0  0  0
   25.5999    2.7560  -57.3904 O   0  0  0  1  0  0  0  0  0  0  0  0
   24.0034    2.4787  -65.7851 N   0  0  0  1  0  0  0  0  0  0  0  0
   25.5742    4.1750  -57.1712 C   0  0  0  1  0  0  0  0  0  0  0  0
   21.6758    3.4183  -68.1514 N   0  0  0  1  0  0  0  0  0  0  0  0
   22.0912    2.5227  -67.3140 C   0  0  0  1  0  0  0  0  0  0  0  0
   20.0115    2.7621  -69.7453 C   0  0  0  1  0  0  0  0  0  0  0  0
   18.6991    2.8331  -70.1723 C   0  0  0  1  0  0  0  0  0  0  0  0
   17.7610    3.5517  -69.5478 N   0  0  0  1  0  0  0  0  0  0  0  0
   18.1345    4.2311  -68.4543 C   0  0  0  1  0  0  0  0  0  0  0  0
   19.4254    4.2132  -67.9552 C   0  0  0  1  0  0  0  0  0  0  0  0
   27.4788    0.0014  -66.6491 H   0  0  0  1  0  0  0  0  0  0  0  0
   26.3547   -0.4808  -60.3853 H   0  0  0  1  0  0  0  0  0  0  0  0
   26.3986    4.2566  -59.3547 H   0  0  0  1  0  0  0  0  0  0  0  0
   27.0746    3.4885  -61.5501 H   0  0  0  1  0  0  0  0  0  0  0  0
   25.6776    0.2887  -58.1862 H   0  0  0  1  0  0  0  0  0  0  0  0
   24.0778    1.8348  -67.7529 H   0  0  0  1  0  0  0  0  0  0  0  0
   24.8146    3.9655  -68.3200 H   0  0  0  1  0  0  0  0  0  0  0  0
   24.0548    4.6925  -66.9242 H   0  0  0  1  0  0  0  0  0  0  0  0
   22.4622    5.4364  -68.3737 H   0  0  0  1  0  0  0  0  0  0  0  0
   22.9828    4.3386  -69.6298 H   0  0  0  1  0  0  0  0  0  0  0  0
   23.4436    2.9068  -65.1040 H   0  0  0  1  0  0  0  0  0  0  0  0
   25.3978    4.3731  -56.1347 H   0  0  0  1  0  0  0  0  0  0  0  0
   24.7916    4.6118  -57.7558 H   0  0  0  1  0  0  0  0  0  0  0  0
   26.5139    4.5974  -57.4601 H   0  0  0  1  0  0  0  0  0  0  0  0
   21.8166    1.5517  -67.6696 H   0  0  0  1  0  0  0  0  0  0  0  0
   21.6393    2.6946  -66.3595 H   0  0  0  1  0  0  0  0  0  0  0  0
   20.7078    2.1910  -70.2655 H   0  0  0  1  0  0  0  0  0  0  0  0
   18.4276    2.3003  -71.0232 H   0  0  0  1  0  0  0  0  0  0  0  0
   17.4196    4.7992  -67.9565 H   0  0  0  1  0  0  0  0  0  0  0  0
   19.6707    4.7534  -67.1010 H   0  0  0  1  0  0  0  0  0  0  0  0
  1  3  4  0  0  0  0
  1 14  4  0  0  0  0
  1 21  1  0  0  0  0
  2 14  4  0  0  0  0
  2 15  4  0  0  0  0
  2 30  1  0  0  0  0
  3 16  4  0  0  0  0
  4  5  4  0  0  0  0
  4  7  4  0  0  0  0
  4 17  1  0  0  0  0
  5  9  4  0  0  0  0
  5 31  1  0  0  0  0
  6  7  4  0  0  0  0
  6  8  4  0  0  0  0
  6 32  1  0  0  0  0
  7 33  1  0  0  0  0
  8  9  4  0  0  0  0
  8 20  1  0  0  0  0
  9 34  1  0  0  0  0
 10 11  1  0  0  0  0
 10 21  1  0  0  0  0
 10 24  1  0  0  0  0
 10 35  1  0  0  0  0
 11 12  1  0  0  0  0
 11 36  1  0  0  0  0
 11 37  1  0  0  0  0
 12 23  1  0  0  0  0
 12 38  1  0  0  0  0
 12 39  1  0  0  0  0
 13 23  1  0  0  0  0
 13 25  4  0  0  0  0
 13 29  4  0  0  0  0
 15 16  4  0  0  0  0
 15 18  4  0  0  0  0
 16 17  4  0  0  0  0
 17 19  4  0  0  0  0
 18 19  4  0  0  0  0
 20 22  1  0  0  0  0
 21 40  1  0  0  0  0
 22 41  1  0  0  0  0
 22 42  1  0  0  0  0
 22 43  1  0  0  0  0
 23 24  1  0  0  0  0
 24 44  1  0  0  0  0
 24 45  1  0  0  0  0
 25 26  4  0  0  0  0
 25 46  1  0  0  0  0
 26 27  4  0  0  0  0
 26 47  1  0  0  0  0
 27 28  4  0  0  0  0
 28 29  4  0  0  0  0
 28 48  1  0  0  0  0
 29 49  1  0  0  0  0
M  END
> <ConfClashScore>
0 

> <ConfOneFourInteractionScore>
-0.986948 

> <ConfScore>
-0.0457335 

> <ConfScorePBest>
0.00495271 

> <ConfTolerance>
0.393711 

> <HETNAM>
     OWQ A 303  OWQ                                                       

> <pdb_OW>
Q_303 -16.5129 3.80749 7.62812 0.15963 1.39178 -0.28144 -3.20151 0 0 0 -1.30514 0 0 0 0 0 0 0 0 -8.31393

$$$$
6yky_lig_1.pdb
 OpenBabel04162415593D

 49 53  0  0  0  0  0  0  0  0999 V2000
   25.1048    1.8135  -65.3760 C   0  0  0  1  0  0  0  0  0  0  0  0
   26.9167    0.5034  -65.9326 C   0  0  0  1  0  0  0  0  0  0  0  0
   25.4178    1.8284  -64.0982 N   0  0  0  1  0  0  0  0  0  0  0  0
   26.7287    1.4699  -61.1391 C   0  0  0  1  0  0  0  0  0  0  0  0
   25.8307    2.5107  -60.9953 C   0  0  0  1  0  0  0  0  0  0  0  0
   27.0829    1.4451  -58.7682 C   0  0  0  1  0  0  0  0  0  0  0  0
   27.3577    0.9381  -60.0242 C   0  0  0  1  0  0  0  0  0  0  0  0
   26.1822    2.4889  -58.6238 C   0  0  0  1  0  0  0  0  0  0  0  0
   25.5551    3.0191  -59.7356 C   0  0  0  1  0  0  0  0  0  0  0  0
   23.5459    2.5168  -67.1634 C   0  0  0  1  0  0  0  0  0  0  0  0
   23.3461    3.9733  -67.6661 C   0  0  0  1  0  0  0  0  0  0  0  0
   22.2617    3.9406  -68.7634 C   0  0  0  1  0  0  0  0  0  0  0  0
   20.6403    2.0568  -69.3858 C   0  0  0  1  0  0  0  0  0  0  0  0
   25.8296    1.1707  -66.2748 N   0  0  0  1  0  0  0  0  0  0  0  0
   27.2965    0.4857  -64.5857 C   0  0  0  1  0  0  0  0  0  0  0  0
   26.4936    1.1852  -63.6614 C   0  0  0  1  0  0  0  0  0  0  0  0
   27.0810    1.0062  -62.4395 N   0  0  0  1  0  0  0  0  0  0  0  0
   28.3159   -0.0766  -63.9004 N   0  0  0  1  0  0  0  0  0  0  0  0
   28.2164    0.2092  -62.6490 N   0  0  0  1  0  0  0  0  0  0  0  0
   25.9957    2.9094  -57.3350 O   0  0  0  1  0  0  0  0  0  0  0  0
   24.0034    2.4787  -65.7852 N   0  0  0  1  0  0  0  0  0  0  0  0
   25.2258    4.1187  -57.2492 C   0  0  0  1  0  0  0  0  0  0  0  0
   21.6045    2.6223  -68.5370 N   0  0  0  1  0  0  0  0  0  0  0  0
   22.1034    1.9932  -67.3032 C   0  0  0  1  0  0  0  0  0  0  0  0
   19.2967    2.1142  -69.0647 C   0  0  0  1  0  0  0  0  0  0  0  0
   18.3899    1.4667  -69.8820 C   0  0  0  1  0  0  0  0  0  0  0  0
   18.7432    0.7801  -70.9727 N   0  0  0  1  0  0  0  0  0  0  0  0
   20.0496    0.7291  -71.2698 C   0  0  0  1  0  0  0  0  0  0  0  0
   21.0243    1.3509  -70.5092 C   0  0  0  1  0  0  0  0  0  0  0  0
   27.4789    0.0014  -66.6492 H   0  0  0  1  0  0  0  0  0  0  0  0
   25.3618    2.9124  -61.8322 H   0  0  0  1  0  0  0  0  0  0  0  0
   27.5517    1.0434  -57.9313 H   0  0  0  1  0  0  0  0  0  0  0  0
   28.0364    0.1576  -60.1329 H   0  0  0  1  0  0  0  0  0  0  0  0
   24.8764    3.7995  -59.6269 H   0  0  0  1  0  0  0  0  0  0  0  0
   24.2287    1.9723  -67.7815 H   0  0  0  1  0  0  0  0  0  0  0  0
   23.0290    4.5985  -66.8578 H   0  0  0  1  0  0  0  0  0  0  0  0
   24.2629    4.3493  -68.0700 H   0  0  0  1  0  0  0  0  0  0  0  0
   21.5656    4.7442  -68.6417 H   0  0  0  1  0  0  0  0  0  0  0  0
   22.6985    3.9911  -69.7389 H   0  0  0  1  0  0  0  0  0  0  0  0
   23.4817    2.9646  -65.1128 H   0  0  0  1  0  0  0  0  0  0  0  0
   24.2117    3.9169  -57.5248 H   0  0  0  1  0  0  0  0  0  0  0  0
   25.6366    4.8506  -57.9129 H   0  0  0  1  0  0  0  0  0  0  0  0
   25.2554    4.4897  -56.2459 H   0  0  0  1  0  0  0  0  0  0  0  0
   21.5107    2.2869  -66.4622 H   0  0  0  1  0  0  0  0  0  0  0  0
   22.0944    0.9269  -67.3915 H   0  0  0  1  0  0  0  0  0  0  0  0
   18.9746    2.6348  -68.2240 H   0  0  0  1  0  0  0  0  0  0  0  0
   17.3806    1.5162  -69.6357 H   0  0  0  1  0  0  0  0  0  0  0  0
   20.3449    0.1962  -72.1127 H   0  0  0  1  0  0  0  0  0  0  0  0
   22.0269    1.2879  -70.7785 H   0  0  0  1  0  0  0  0  0  0  0  0
  1  3  4  0  0  0  0
  1 14  4  0  0  0  0
  1 21  1  0  0  0  0
  2 14  4  0  0  0  0
  2 15  4  0  0  0  0
  2 30  1  0  0  0  0
  3 16  4  0  0  0  0
  4  5  4  0  0  0  0
  4  7  4  0  0  0  0
  4 17  1  0  0  0  0
  5  9  4  0  0  0  0
  5 31  1  0  0  0  0
  6  7  4  0  0  0  0
  6  8  4  0  0  0  0
  6 32  1  0  0  0  0
  7 33  1  0  0  0  0
  8  9  4  0  0  0  0
  8 20  1  0  0  0  0
  9 34  1  0  0  0  0
 10 11  1  0  0  0  0
 10 21  1  0  0  0  0
 10 24  1  0  0  0  0
 10 35  1  0  0  0  0
 11 12  1  0  0  0  0
 11 36  1  0  0  0  0
 11 37  1  0  0  0  0
 12 23  1  0  0  0  0
 12 38  1  0  0  0  0
 12 39  1  0  0  0  0
 13 23  1  0  0  0  0
 13 25  4  0  0  0  0
 13 29  4  0  0  0  0
 15 16  4  0  0  0  0
 15 18  4  0  0  0  0
 16 17  4  0  0  0  0
 17 19  4  0  0  0  0
 18 19  4  0  0  0  0
 20 22  1  0  0  0  0
 21 40  1  0  0  0  0
 22 41  1  0  0  0  0
 22 42  1  0  0  0  0
 22 43  1  0  0  0  0
 23 24  1  0  0  0  0
 24 44  1  0  0  0  0
 24 45  1  0  0  0  0
 25 26  4  0  0  0  0
 25 46  1  0  0  0  0
 26 27  4  0  0  0  0
 26 47  1  0  0  0  0
 27 28  4  0  0  0  0
 28 29  4  0  0  0  0
 28 48  1  0  0  0  0
 29 49  1  0  0  0  0
M  END
> <ConfClashScore>
0 

> <ConfOneFourInteractionScore>
-0.986948 

> <ConfScore>
-0.0456287 

> <ConfScorePBest>
0.00493938 

> <ConfTolerance>
0.3385 

> <HETNAM>
     OWQ A 303  OWQ                                                       

> <pdb_OW>
Q_303 -16.5129 3.80749 7.62812 0.15963 1.39178 -0.28144 -3.20151 0 0 0 -1.30514 0 0 0 0 0 0 0 0 -8.31393

$$$$
6yky_lig_1.pdb
 OpenBabel04162415593D

 49 53  0  0  0  0  0  0  0  0999 V2000
   25.1047    1.8135  -65.3760 C   0  0  0  1  0  0  0  0  0  0  0  0
   26.9167    0.5034  -65.9326 C   0  0  0  1  0  0  0  0  0  0  0  0
   25.4178    1.8282  -64.0982 N   0  0  0  1  0  0  0  0  0  0  0  0
   26.7865    1.5429  -61.1528 C   0  0  0  1  0  0  0  0  0  0  0  0
   26.0641    2.7199  -61.0982 C   0  0  0  1  0  0  0  0  0  0  0  0
   27.0383    1.5842  -58.7691 C   0  0  0  1  0  0  0  0  0  0  0  0
   27.2766    0.9755  -59.9869 C   0  0  0  1  0  0  0  0  0  0  0  0
   26.3136    2.7646  -58.7141 C   0  0  0  1  0  0  0  0  0  0  0  0
   25.8251    3.3302  -59.8768 C   0  0  0  1  0  0  0  0  0  0  0  0
   23.0155    3.0927  -65.0011 C   0  0  0  1  0  0  0  0  0  0  0  0
   21.5713    2.7997  -65.4935 C   0  0  0  1  0  0  0  0  0  0  0  0
   20.6822    3.9812  -65.0525 C   0  0  0  1  0  0  0  0  0  0  0  0
   21.3624    6.3046  -64.1436 C   0  0  0  1  0  0  0  0  0  0  0  0
   25.8297    1.1706  -66.2748 N   0  0  0  1  0  0  0  0  0  0  0  0
   27.2964    0.4857  -64.5857 C   0  0  0  1  0  0  0  0  0  0  0  0
   26.4936    1.1851  -63.6613 C   0  0  0  1  0  0  0  0  0  0  0  0
   27.0808    1.0061  -62.4394 N   0  0  0  1  0  0  0  0  0  0  0  0
   28.3159   -0.0766  -63.9004 N   0  0  0  1  0  0  0  0  0  0  0  0
   28.2164    0.2092  -62.6490 N   0  0  0  1  0  0  0  0  0  0  0  0
   26.1744    3.2292  -57.4671 O   0  0  0  1  0  0  0  0  0  0  0  0
   24.0170    2.4583  -65.8492 N   0  0  0  1  0  0  0  0  0  0  0  0
   25.6453    4.5712  -57.1989 C   0  0  0  1  0  0  0  0  0  0  0  0
   21.6787    5.0458  -64.7449 N   0  0  0  1  0  0  0  0  0  0  0  0
   23.0326    4.6271  -65.1434 C   0  0  0  1  0  0  0  0  0  0  0  0
   20.9859    7.4158  -64.8749 C   0  0  0  1  0  0  0  0  0  0  0  0
   20.6961    8.5875  -64.2020 C   0  0  0  1  0  0  0  0  0  0  0  0
   20.7631    8.7072  -62.8725 N   0  0  0  1  0  0  0  0  0  0  0  0
   21.1337    7.6231  -62.1763 C   0  0  0  1  0  0  0  0  0  0  0  0
   21.4381    6.4098  -62.7685 C   0  0  0  1  0  0  0  0  0  0  0  0
   27.4789    0.0014  -66.6492 H   0  0  0  1  0  0  0  0  0  0  0  0
   25.6998    3.1477  -61.9734 H   0  0  0  1  0  0  0  0  0  0  0  0
   27.4025    1.1565  -57.8940 H   0  0  0  1  0  0  0  0  0  0  0  0
   27.8236    0.0920  -60.0285 H   0  0  0  1  0  0  0  0  0  0  0  0
   25.2780    4.2137  -59.8352 H   0  0  0  1  0  0  0  0  0  0  0  0
   23.1603    2.7855  -63.9864 H   0  0  0  1  0  0  0  0  0  0  0  0
   21.5598    2.7120  -66.5598 H   0  0  0  1  0  0  0  0  0  0  0  0
   21.2139    1.8907  -65.0566 H   0  0  0  1  0  0  0  0  0  0  0  0
   20.0252    4.2844  -65.8408 H   0  0  0  1  0  0  0  0  0  0  0  0
   20.1077    3.7289  -64.1859 H   0  0  0  1  0  0  0  0  0  0  0  0
   23.8934    2.5023  -66.8203 H   0  0  0  1  0  0  0  0  0  0  0  0
   26.1671    5.2874  -57.7986 H   0  0  0  1  0  0  0  0  0  0  0  0
   25.7800    4.8072  -56.1640 H   0  0  0  1  0  0  0  0  0  0  0  0
   24.6028    4.5977  -57.4385 H   0  0  0  1  0  0  0  0  0  0  0  0
   23.2345    4.9113  -66.1550 H   0  0  0  1  0  0  0  0  0  0  0  0
   23.7681    5.0592  -64.4975 H   0  0  0  1  0  0  0  0  0  0  0  0
   20.9220    7.3709  -65.9120 H   0  0  0  1  0  0  0  0  0  0  0  0
   20.4111    9.4187  -64.7585 H   0  0  0  1  0  0  0  0  0  0  0  0
   21.1955    7.6975  -61.1408 H   0  0  0  1  0  0  0  0  0  0  0  0
   21.7183    5.5929  -62.1891 H   0  0  0  1  0  0  0  0  0  0  0  0
  1  3  4  0  0  0  0
  1 14  4  0  0  0  0
  1 21  1  0  0  0  0
  2 14  4  0  0  0  0
  2 15  4  0  0  0  0
  2 30  1  0  0  0  0
  3 16  4  0  0  0  0
  4  5  4  0  0  0  0
  4  7  4  0  0  0  0
  4 17  1  0  0  0  0
  5  9  4  0  0  0  0
  5 31  1  0  0  0  0
  6  7  4  0  0  0  0
  6  8  4  0  0  0  0
  6 32  1  0  0  0  0
  7 33  1  0  0  0  0
  8  9  4  0  0  0  0
  8 20  1  0  0  0  0
  9 34  1  0  0  0  0
 10 11  1  0  0  0  0
 10 21  1  0  0  0  0
 10 24  1  0  0  0  0
 10 35  1  0  0  0  0
 11 12  1  0  0  0  0
 11 36  1  0  0  0  0
 11 37  1  0  0  0  0
 12 23  1  0  0  0  0
 12 38  1  0  0  0  0
 12 39  1  0  0  0  0
 13 23  1  0  0  0  0
 13 25  4  0  0  0  0
 13 29  4  0  0  0  0
 15 16  4  0  0  0  0
 15 18  4  0  0  0  0
 16 17  4  0  0  0  0
 17 19  4  0  0  0  0
 18 19  4  0  0  0  0
 20 22  1  0  0  0  0
 21 40  1  0  0  0  0
 22 41  1  0  0  0  0
 22 42  1  0  0  0  0
 22 43  1  0  0  0  0
 23 24  1  0  0  0  0
 24 44  1  0  0  0  0
 24 45  1  0  0  0  0
 25 26  4  0  0  0  0
 25 46  1  0  0  0  0
 26 27  4  0  0  0  0
 26 47  1  0  0  0  0
 27 28  4  0  0  0  0
 28 29  4  0  0  0  0
 28 48  1  0  0  0  0
 29 49  1  0  0  0  0
M  END
> <ConfClashScore>
0 

> <ConfOneFourInteractionScore>
-0.986948 

> <ConfScore>
-0.0454923 

> <ConfScorePBest>
0.00492605 

> <ConfTolerance>
0.429749 

> <HETNAM>
     OWQ A 303  OWQ                                                       

> <pdb_OW>
Q_303 -16.5129 3.80749 7.62812 0.15963 1.39178 -0.28144 -3.20151 0 0 0 -1.30514 0 0 0 0 0 0 0 0 -8.31393

$$$$
6yky_lig_1.pdb
 OpenBabel04162415593D

 49 53  0  0  0  0  0  0  0  0999 V2000
   25.1048    1.8136  -65.3760 C   0  0  0  1  0  0  0  0  0  0  0  0
   26.9167    0.5034  -65.9326 C   0  0  0  1  0  0  0  0  0  0  0  0
   25.4178    1.8284  -64.0982 N   0  0  0  1  0  0  0  0  0  0  0  0
   26.8199    1.5228  -61.1375 C   0  0  0  1  0  0  0  0  0  0  0  0
   25.5792    2.0866  -60.9073 C   0  0  0  1  0  0  0  0  0  0  0  0
   27.5165    2.1491  -58.9307 C   0  0  0  1  0  0  0  0  0  0  0  0
   27.7908    1.5563  -60.1488 C   0  0  0  1  0  0  0  0  0  0  0  0
   26.2721    2.7146  -58.6996 C   0  0  0  1  0  0  0  0  0  0  0  0
   25.3041    2.6810  -59.6856 C   0  0  0  1  0  0  0  0  0  0  0  0
   23.1131    3.0761  -64.7747 C   0  0  0  1  0  0  0  0  0  0  0  0
   21.6629    2.9986  -65.1886 C   0  0  0  1  0  0  0  0  0  0  0  0
   20.9877    4.0949  -64.3893 C   0  0  0  1  0  0  0  0  0  0  0  0
   21.8445    6.3960  -63.7695 C   0  0  0  1  0  0  0  0  0  0  0  0
   25.8297    1.1707  -66.2748 N   0  0  0  1  0  0  0  0  0  0  0  0
   27.2965    0.4857  -64.5857 C   0  0  0  1  0  0  0  0  0  0  0  0
   26.4936    1.1853  -63.6614 C   0  0  0  1  0  0  0  0  0  0  0  0
   27.0809    1.0063  -62.4395 N   0  0  0  1  0  0  0  0  0  0  0  0
   28.3159   -0.0766  -63.9004 N   0  0  0  1  0  0  0  0  0  0  0  0
   28.2164    0.2092  -62.6490 N   0  0  0  1  0  0  0  0  0  0  0  0
   25.8954    3.3179  -57.5662 O   0  0  0  1  0  0  0  0  0  0  0  0
   23.9765    2.4950  -65.7952 N   0  0  0  1  0  0  0  0  0  0  0  0
   24.6372    4.0671  -57.4731 C   0  0  0  1  0  0  0  0  0  0  0  0
   22.0562    5.0994  -64.2364 N   0  0  0  1  0  0  0  0  0  0  0  0
   23.3700    4.5751  -64.6333 C   0  0  0  1  0  0  0  0  0  0  0  0
   21.7759    6.6541  -62.4129 C   0  0  0  1  0  0  0  0  0  0  0  0
   21.5686    7.9544  -61.9934 C   0  0  0  1  0  0  0  0  0  0  0  0
   21.4266    8.9839  -62.8337 N   0  0  0  1  0  0  0  0  0  0  0  0
   21.4909    8.7185  -64.1464 C   0  0  0  1  0  0  0  0  0  0  0  0
   21.6991    7.4476  -64.6531 C   0  0  0  1  0  0  0  0  0  0  0  0
   27.4789    0.0014  -66.6492 H   0  0  0  1  0  0  0  0  0  0  0  0
   24.8522    2.0649  -61.6505 H   0  0  0  1  0  0  0  0  0  0  0  0
   28.2436    2.1707  -58.1874 H   0  0  0  1  0  0  0  0  0  0  0  0
   28.7258    1.1355  -60.3235 H   0  0  0  1  0  0  0  0  0  0  0  0
   24.3692    3.1018  -59.5109 H   0  0  0  1  0  0  0  0  0  0  0  0
   23.2716    2.5726  -63.8439 H   0  0  0  1  0  0  0  0  0  0  0  0
   21.2496    2.0422  -64.9448 H   0  0  0  1  0  0  0  0  0  0  0  0
   21.5583    3.1757  -66.2387 H   0  0  0  1  0  0  0  0  0  0  0  0
   20.6622    3.7317  -63.4369 H   0  0  0  1  0  0  0  0  0  0  0  0
   20.1524    4.5000  -64.9215 H   0  0  0  1  0  0  0  0  0  0  0  0
   23.7645    2.5843  -66.7479 H   0  0  0  1  0  0  0  0  0  0  0  0
   24.6914    4.9351  -58.0965 H   0  0  0  1  0  0  0  0  0  0  0  0
   24.4750    4.3663  -56.4587 H   0  0  0  1  0  0  0  0  0  0  0  0
   23.8279    3.4461  -57.7961 H   0  0  0  1  0  0  0  0  0  0  0  0
   23.6887    4.9998  -65.5623 H   0  0  0  1  0  0  0  0  0  0  0  0
   24.1051    4.7699  -63.8807 H   0  0  0  1  0  0  0  0  0  0  0  0
   21.8784    5.8843  -61.7212 H   0  0  0  1  0  0  0  0  0  0  0  0
   21.5206    8.1415  -60.9714 H   0  0  0  1  0  0  0  0  0  0  0  0
   21.3789    9.5061  -64.8163 H   0  0  0  1  0  0  0  0  0  0  0  0
   21.7453    7.2875  -65.6796 H   0  0  0  1  0  0  0  0  0  0  0  0
  1  3  4  0  0  0  0
  1 14  4  0  0  0  0
  1 21  1  0  0  0  0
  2 14  4  0  0  0  0
  2 15  4  0  0  0  0
  2 30  1  0  0  0  0
  3 16  4  0  0  0  0
  4  5  4  0  0  0  0
  4  7  4  0  0  0  0
  4 17  1  0  0  0  0
  5  9  4  0  0  0  0
  5 31  1  0  0  0  0
  6  7  4  0  0  0  0
  6  8  4  0  0  0  0
  6 32  1  0  0  0  0
  7 33  1  0  0  0  0
  8  9  4  0  0  0  0
  8 20  1  0  0  0  0
  9 34  1  0  0  0  0
 10 11  1  0  0  0  0
 10 21  1  0  0  0  0
 10 24  1  0  0  0  0
 10 35  1  0  0  0  0
 11 12  1  0  0  0  0
 11 36  1  0  0  0  0
 11 37  1  0  0  0  0
 12 23  1  0  0  0  0
 12 38  1  0  0  0  0
 12 39  1  0  0  0  0
 13 23  1  0  0  0  0
 13 25  4  0  0  0  0
 13 29  4  0  0  0  0
 15 16  4  0  0  0  0
 15 18  4  0  0  0  0
 16 17  4  0  0  0  0
 17 19  4  0  0  0  0
 18 19  4  0  0  0  0
 20 22  1  0  0  0  0
 21 40  1  0  0  0  0
 22 41  1  0  0  0  0
 22 42  1  0  0  0  0
 22 43  1  0  0  0  0
 23 24  1  0  0  0  0
 24 44  1  0  0  0  0
 24 45  1  0  0  0  0
 25 26  4  0  0  0  0
 25 46  1  0  0  0  0
 26 27  4  0  0  0  0
 26 47  1  0  0  0  0
 27 28  4  0  0  0  0
 28 29  4  0  0  0  0
 28 48  1  0  0  0  0
 29 49  1  0  0  0  0
M  END
> <ConfClashScore>
0 

> <ConfOneFourInteractionScore>
-0.986948 

> <ConfScore>
-0.045403 

> <ConfScorePBest>
0.00491272 

> <ConfTolerance>
0.394293 

> <HETNAM>
     OWQ A 303  OWQ                                                       

> <pdb_OW>
Q_303 -16.5129 3.80749 7.62812 0.15963 1.39178 -0.28144 -3.20151 0 0 0 -1.30514 0 0 0 0 0 0 0 0 -8.31393

$$$$
6yky_lig_1.pdb
 OpenBabel04162415593D

 49 53  0  0  0  0  0  0  0  0999 V2000
   25.1047    1.8135  -65.3760 C   0  0  0  1  0  0  0  0  0  0  0  0
   26.9167    0.5034  -65.9326 C   0  0  0  1  0  0  0  0  0  0  0  0
   25.4177    1.8283  -64.0983 N   0  0  0  1  0  0  0  0  0  0  0  0
   26.7285    1.4700  -61.1391 C   0  0  0  1  0  0  0  0  0  0  0  0
   25.8785    2.5503  -60.9965 C   0  0  0  1  0  0  0  0  0  0  0  0
   27.0402    1.3988  -58.7631 C   0  0  0  1  0  0  0  0  0  0  0  0
   27.3125    0.8950  -60.0211 C   0  0  0  1  0  0  0  0  0  0  0  0
   26.1877    2.4824  -58.6200 C   0  0  0  1  0  0  0  0  0  0  0  0
   25.6056    3.0555  -59.7348 C   0  0  0  1  0  0  0  0  0  0  0  0
   23.4669    2.5736  -67.0638 C   0  0  0  1  0  0  0  0  0  0  0  0
   22.4322    3.6841  -67.2178 C   0  0  0  1  0  0  0  0  0  0  0  0
   21.1539    3.0616  -66.6586 C   0  0  0  1  0  0  0  0  0  0  0  0
   20.2902    0.6992  -66.9069 C   0  0  0  1  0  0  0  0  0  0  0  0
   25.8297    1.1706  -66.2748 N   0  0  0  1  0  0  0  0  0  0  0  0
   27.2965    0.4858  -64.5857 C   0  0  0  1  0  0  0  0  0  0  0  0
   26.4937    1.1852  -63.6614 C   0  0  0  1  0  0  0  0  0  0  0  0
   27.0809    1.0062  -62.4395 N   0  0  0  1  0  0  0  0  0  0  0  0
   28.3159   -0.0766  -63.9005 N   0  0  0  1  0  0  0  0  0  0  0  0
   28.2164    0.2092  -62.6490 N   0  0  0  1  0  0  0  0  0  0  0  0
   25.9264    2.9767  -57.3943 O   0  0  0  1  0  0  0  0  0  0  0  0
   23.9708    2.5159  -65.6972 N   0  0  0  1  0  0  0  0  0  0  0  0
   26.7091    2.4011  -56.3225 C   0  0  0  1  0  0  0  0  0  0  0  0
   21.3121    1.6315  -66.9870 N   0  0  0  1  0  0  0  0  0  0  0  0
   22.6851    1.3149  -67.4095 C   0  0  0  1  0  0  0  0  0  0  0  0
   20.0599    0.0049  -65.7337 C   0  0  0  1  0  0  0  0  0  0  0  0
   19.0277   -0.9130  -65.6962 C   0  0  0  1  0  0  0  0  0  0  0  0
   18.2353   -1.1708  -66.7412 N   0  0  0  1  0  0  0  0  0  0  0  0
   18.4726   -0.4936  -67.8736 C   0  0  0  1  0  0  0  0  0  0  0  0
   19.4817    0.4453  -67.9976 C   0  0  0  1  0  0  0  0  0  0  0  0
   27.4789    0.0013  -66.6492 H   0  0  0  1  0  0  0  0  0  0  0  0
   25.4436    2.9842  -61.8357 H   0  0  0  1  0  0  0  0  0  0  0  0
   27.4751    0.9649  -57.9239 H   0  0  0  1  0  0  0  0  0  0  0  0
   27.9552    0.0845  -60.1288 H   0  0  0  1  0  0  0  0  0  0  0  0
   24.9628    3.8660  -59.6272 H   0  0  0  1  0  0  0  0  0  0  0  0
   24.2840    2.7149  -67.7400 H   0  0  0  1  0  0  0  0  0  0  0  0
   22.7136    4.5496  -66.6551 H   0  0  0  1  0  0  0  0  0  0  0  0
   22.3088    3.9515  -68.2465 H   0  0  0  1  0  0  0  0  0  0  0  0
   21.0854    3.2082  -65.6010 H   0  0  0  1  0  0  0  0  0  0  0  0
   20.2869    3.4717  -67.1330 H   0  0  0  1  0  0  0  0  0  0  0  0
   23.4871    2.9910  -64.9895 H   0  0  0  1  0  0  0  0  0  0  0  0
   26.3772    2.7970  -55.3854 H   0  0  0  1  0  0  0  0  0  0  0  0
   27.7416    2.6424  -56.4658 H   0  0  0  1  0  0  0  0  0  0  0  0
   26.5872    1.3379  -56.3235 H   0  0  0  1  0  0  0  0  0  0  0  0
   22.7251    1.1175  -68.4604 H   0  0  0  1  0  0  0  0  0  0  0  0
   23.0645    0.4704  -66.8729 H   0  0  0  1  0  0  0  0  0  0  0  0
   20.6525    0.1704  -64.8951 H   0  0  0  1  0  0  0  0  0  0  0  0
   18.8587   -1.4297  -64.8096 H   0  0  0  1  0  0  0  0  0  0  0  0
   17.8691   -0.6831  -68.6990 H   0  0  0  1  0  0  0  0  0  0  0  0
   19.6285    0.9501  -68.8950 H   0  0  0  1  0  0  0  0  0  0  0  0
  1  3  4  0  0  0  0
  1 14  4  0  0  0  0
  1 21  1  0  0  0  0
  2 14  4  0  0  0  0
  2 15  4  0  0  0  0
  2 30  1  0  0  0  0
  3 16  4  0  0  0  0
  4  5  4  0  0  0  0
  4  7  4  0  0  0  0
  4 17  1  0  0  0  0
  5  9  4  0  0  0  0
  5 31  1  0  0  0  0
  6  7  4  0  0  0  0
  6  8  4  0  0  0  0
  6 32  1  0  0  0  0
  7 33  1  0  0  0  0
  8  9  4  0  0  0  0
  8 20  1  0  0  0  0
  9 34  1  0  0  0  0
 10 11  1  0  0  0  0
 10 21  1  0  0  0  0
 10 24  1  0  0  0  0
 10 35  1  0  0  0  0
 11 12  1  0  0  0  0
 11 36  1  0  0  0  0
 11 37  1  0  0  0  0
 12 23  1  0  0  0  0
 12 38  1  0  0  0  0
 12 39  1  0  0  0  0
 13 23  1  0  0  0  0
 13 25  4  0  0  0  0
 13 29  4  0  0  0  0
 15 16  4  0  0  0  0
 15 18  4  0  0  0  0
 16 17  4  0  0  0  0
 17 19  4  0  0  0  0
 18 19  4  0  0  0  0
 20 22  1  0  0  0  0
 21 40  1  0  0  0  0
 22 41  1  0  0  0  0
 22 42  1  0  0  0  0
 22 43  1  0  0  0  0
 23 24  1  0  0  0  0
 24 44  1  0  0  0  0
 24 45  1  0  0  0  0
 25 26  4  0  0  0  0
 25 46  1  0  0  0  0
 26 27  4  0  0  0  0
 26 47  1  0  0  0  0
 27 28  4  0  0  0  0
 28 29  4  0  0  0  0
 28 48  1  0  0  0  0
 29 49  1  0  0  0  0
M  END
> <ConfClashScore>
0 

> <ConfOneFourInteractionScore>
-0.986948 

> <ConfScore>
-0.0439921 

> <ConfScorePBest>
0.00489939 

> <ConfTolerance>
0.523934 

> <HETNAM>
     OWQ A 303  OWQ                                                       

> <pdb_OW>
Q_303 -16.5129 3.80749 7.62812 0.15963 1.39178 -0.28144 -3.20151 0 0 0 -1.30514 0 0 0 0 0 0 0 0 -8.31393

$$$$
6yky_lig_1.pdb
 OpenBabel04162415593D

 49 53  0  0  0  0  0  0  0  0999 V2000
   25.1049    1.8137  -65.3759 C   0  0  0  1  0  0  0  0  0  0  0  0
   26.9167    0.5034  -65.9326 C   0  0  0  1  0  0  0  0  0  0  0  0
   25.4180    1.8285  -64.0982 N   0  0  0  1  0  0  0  0  0  0  0  0
   26.7241    1.3642  -61.1073 C   0  0  0  1  0  0  0  0  0  0  0  0
   26.0590    2.5611  -60.9203 C   0  0  0  1  0  0  0  0  0  0  0  0
   26.8099    1.0385  -58.7337 C   0  0  0  1  0  0  0  0  0  0  0  0
   27.1025    0.6029  -60.0123 C   0  0  0  1  0  0  0  0  0  0  0  0
   26.1428    2.2390  -58.5460 C   0  0  0  1  0  0  0  0  0  0  0  0
   25.7656    2.9979  -59.6379 C   0  0  0  1  0  0  0  0  0  0  0  0
   23.1329    3.1142  -64.7734 C   0  0  0  1  0  0  0  0  0  0  0  0
   22.2369    2.0882  -64.1212 C   0  0  0  1  0  0  0  0  0  0  0  0
   21.0834    2.8994  -63.5660 C   0  0  0  1  0  0  0  0  0  0  0  0
   19.9072    4.9392  -64.5450 C   0  0  0  1  0  0  0  0  0  0  0  0
   25.8297    1.1709  -66.2748 N   0  0  0  1  0  0  0  0  0  0  0  0
   27.2965    0.4857  -64.5857 C   0  0  0  1  0  0  0  0  0  0  0  0
   26.4937    1.1853  -63.6614 C   0  0  0  1  0  0  0  0  0  0  0  0
   27.0811    1.0063  -62.4395 N   0  0  0  1  0  0  0  0  0  0  0  0
   28.3159   -0.0766  -63.9004 N   0  0  0  1  0  0  0  0  0  0  0  0
   28.2164    0.2092  -62.6490 N   0  0  0  1  0  0  0  0  0  0  0  0
   25.7758    2.6235  -57.3004 O   0  0  0  1  0  0  0  0  0  0  0  0
   23.9767    2.4952  -65.7952 N   0  0  0  1  0  0  0  0  0  0  0  0
   25.0137    3.8354  -57.1857 C   0  0  0  1  0  0  0  0  0  0  0  0
   20.9903    4.0302  -64.5075 N   0  0  0  1  0  0  0  0  0  0  0  0
   22.1535    4.1032  -65.4021 C   0  0  0  1  0  0  0  0  0  0  0  0
   18.9171    4.8960  -63.5810 C   0  0  0  1  0  0  0  0  0  0  0  0
   17.8789    5.8051  -63.6532 C   0  0  0  1  0  0  0  0  0  0  0  0
   17.7769    6.7294  -64.6132 N   0  0  0  1  0  0  0  0  0  0  0  0
   18.7415    6.7571  -65.5438 C   0  0  0  1  0  0  0  0  0  0  0  0
   19.8180    5.8872  -65.5455 C   0  0  0  1  0  0  0  0  0  0  0  0
   27.4788    0.0013  -66.6492 H   0  0  0  1  0  0  0  0  0  0  0  0
   25.7787    3.1341  -61.7417 H   0  0  0  1  0  0  0  0  0  0  0  0
   27.0902    0.4655  -57.9124 H   0  0  0  1  0  0  0  0  0  0  0  0
   27.6066   -0.2958  -60.1530 H   0  0  0  1  0  0  0  0  0  0  0  0
   25.2616    3.8966  -59.4973 H   0  0  0  1  0  0  0  0  0  0  0  0
   23.7502    3.5988  -64.0460 H   0  0  0  1  0  0  0  0  0  0  0  0
   21.8885    1.3770  -64.8408 H   0  0  0  1  0  0  0  0  0  0  0  0
   22.7541    1.5777  -63.3359 H   0  0  0  1  0  0  0  0  0  0  0  0
   20.1789    2.3279  -63.5608 H   0  0  0  1  0  0  0  0  0  0  0  0
   21.2957    3.2410  -62.5744 H   0  0  0  1  0  0  0  0  0  0  0  0
   23.7499    2.5612  -66.7463 H   0  0  0  1  0  0  0  0  0  0  0  0
   24.1763    3.7951  -57.8506 H   0  0  0  1  0  0  0  0  0  0  0  0
   25.6318    4.6706  -57.4412 H   0  0  0  1  0  0  0  0  0  0  0  0
   24.6653    3.9434  -56.1798 H   0  0  0  1  0  0  0  0  0  0  0  0
   22.5634    5.0915  -65.4199 H   0  0  0  1  0  0  0  0  0  0  0  0
   21.8928    3.8066  -66.3965 H   0  0  0  1  0  0  0  0  0  0  0  0
   18.9530    4.1925  -62.8158 H   0  0  0  1  0  0  0  0  0  0  0  0
   17.1390    5.7683  -62.9231 H   0  0  0  1  0  0  0  0  0  0  0  0
   18.6778    7.4667  -66.3014 H   0  0  0  1  0  0  0  0  0  0  0  0
   20.5459    5.9464  -66.2859 H   0  0  0  1  0  0  0  0  0  0  0  0
  1  3  4  0  0  0  0
  1 14  4  0  0  0  0
  1 21  1  0  0  0  0
  2 14  4  0  0  0  0
  2 15  4  0  0  0  0
  2 30  1  0  0  0  0
  3 16  4  0  0  0  0
  4  5  4  0  0  0  0
  4  7  4  0  0  0  0
  4 17  1  0  0  0  0
  5  9  4  0  0  0  0
  5 31  1  0  0  0  0
  6  7  4  0  0  0  0
  6  8  4  0  0  0  0
  6 32  1  0  0  0  0
  7 33  1  0  0  0  0
  8  9  4  0  0  0  0
  8 20  1  0  0  0  0
  9 34  1  0  0  0  0
 10 11  1  0  0  0  0
 10 21  1  0  0  0  0
 10 24  1  0  0  0  0
 10 35  1  0  0  0  0
 11 12  1  0  0  0  0
 11 36  1  0  0  0  0
 11 37  1  0  0  0  0
 12 23  1  0  0  0  0
 12 38  1  0  0  0  0
 12 39  1  0  0  0  0
 13 23  1  0  0  0  0
 13 25  4  0  0  0  0
 13 29  4  0  0  0  0
 15 16  4  0  0  0  0
 15 18  4  0  0  0  0
 16 17  4  0  0  0  0
 17 19  4  0  0  0  0
 18 19  4  0  0  0  0
 20 22  1  0  0  0  0
 21 40  1  0  0  0  0
 22 41  1  0  0  0  0
 22 42  1  0  0  0  0
 22 43  1  0  0  0  0
 23 24  1  0  0  0  0
 24 44  1  0  0  0  0
 24 45  1  0  0  0  0
 25 26  4  0  0  0  0
 25 46  1  0  0  0  0
 26 27  4  0  0  0  0
 26 47  1  0  0  0  0
 27 28  4  0  0  0  0
 28 29  4  0  0  0  0
 28 48  1  0  0  0  0
 29 49  1  0  0  0  0
M  END
> <ConfClashScore>
0 

> <ConfOneFourInteractionScore>
-0.986948 

> <ConfScore>
-0.0438634 

> <ConfScorePBest>
0.00488607 

> <ConfTolerance>
0.428464 

> <HETNAM>
     OWQ A 303  OWQ                                                       

> <pdb_OW>
Q_303 -16.5129 3.80749 7.62812 0.15963 1.39178 -0.28144 -3.20151 0 0 0 -1.30514 0 0 0 0 0 0 0 0 -8.31393

$$$$
6yky_lig_1.pdb
 OpenBabel04162415593D

 49 53  0  0  0  0  0  0  0  0999 V2000
   25.1048    1.8137  -65.3759 C   0  0  0  1  0  0  0  0  0  0  0  0
   26.9167    0.5034  -65.9326 C   0  0  0  1  0  0  0  0  0  0  0  0
   25.4179    1.8285  -64.0982 N   0  0  0  1  0  0  0  0  0  0  0  0
   26.8200    1.5227  -61.1375 C   0  0  0  1  0  0  0  0  0  0  0  0
   27.1643    0.7368  -60.0541 C   0  0  0  1  0  0  0  0  0  0  0  0
   25.8494    3.1405  -59.6583 C   0  0  0  1  0  0  0  0  0  0  0  0
   26.1592    2.7251  -60.9396 C   0  0  0  1  0  0  0  0  0  0  0  0
   26.1946    2.3523  -58.5715 C   0  0  0  1  0  0  0  0  0  0  0  0
   26.8535    1.1535  -58.7690 C   0  0  0  1  0  0  0  0  0  0  0  0
   23.6281    2.5685  -67.1929 C   0  0  0  1  0  0  0  0  0  0  0  0
   24.7816    3.1062  -68.0260 C   0  0  0  1  0  0  0  0  0  0  0  0
   24.1074    3.6696  -69.2786 C   0  0  0  1  0  0  0  0  0  0  0  0
   21.8219    4.7016  -69.5690 C   0  0  0  1  0  0  0  0  0  0  0  0
   25.8296    1.1708  -66.2748 N   0  0  0  1  0  0  0  0  0  0  0  0
   27.2965    0.4858  -64.5857 C   0  0  0  1  0  0  0  0  0  0  0  0
   26.4937    1.1853  -63.6614 C   0  0  0  1  0  0  0  0  0  0  0  0
   27.0810    1.0062  -62.4395 N   0  0  0  1  0  0  0  0  0  0  0  0
   28.3159   -0.0766  -63.9004 N   0  0  0  1  0  0  0  0  0  0  0  0
   28.2164    0.2092  -62.6490 N   0  0  0  1  0  0  0  0  0  0  0  0
   25.9415    2.6499  -57.2822 O   0  0  0  1  0  0  0  0  0  0  0  0
   23.9920    2.4858  -65.7895 N   0  0  0  1  0  0  0  0  0  0  0  0
   25.2771    3.9166  -57.0654 C   0  0  0  1  0  0  0  0  0  0  0  0
   22.7639    4.0321  -68.8009 N   0  0  0  1  0  0  0  0  0  0  0  0
   22.5372    3.6013  -67.4137 C   0  0  0  1  0  0  0  0  0  0  0  0
   20.9645    4.0037  -70.3993 C   0  0  0  1  0  0  0  0  0  0  0  0
   20.0389    4.7096  -71.1439 C   0  0  0  1  0  0  0  0  0  0  0  0
   19.9280    6.0411  -71.1075 N   0  0  0  1  0  0  0  0  0  0  0  0
   20.7685    6.7054  -70.3014 C   0  0  0  1  0  0  0  0  0  0  0  0
   21.7223    6.0784  -69.5190 C   0  0  0  1  0  0  0  0  0  0  0  0
   27.4789    0.0014  -66.6493 H   0  0  0  1  0  0  0  0  0  0  0  0
   27.6564   -0.1672  -60.2028 H   0  0  0  1  0  0  0  0  0  0  0  0
   25.3572    4.0446  -59.5095 H   0  0  0  1  0  0  0  0  0  0  0  0
   25.8966    3.3146  -61.7552 H   0  0  0  1  0  0  0  0  0  0  0  0
   27.1161    0.5641  -57.9535 H   0  0  0  1  0  0  0  0  0  0  0  0
   23.3203    1.6041  -67.5395 H   0  0  0  1  0  0  0  0  0  0  0  0
   25.4629    2.3219  -68.2819 H   0  0  0  1  0  0  0  0  0  0  0  0
   25.3050    3.8757  -67.4979 H   0  0  0  1  0  0  0  0  0  0  0  0
   24.6304    4.5293  -69.6423 H   0  0  0  1  0  0  0  0  0  0  0  0
   24.0539    2.9309  -70.0509 H   0  0  0  1  0  0  0  0  0  0  0  0
   23.4236    2.9241  -65.1222 H   0  0  0  1  0  0  0  0  0  0  0  0
   25.8963    4.7110  -57.4266 H   0  0  0  1  0  0  0  0  0  0  0  0
   25.0990    4.0510  -56.0190 H   0  0  0  1  0  0  0  0  0  0  0  0
   24.3448    3.9245  -57.5904 H   0  0  0  1  0  0  0  0  0  0  0  0
   21.5667    3.1652  -67.3005 H   0  0  0  1  0  0  0  0  0  0  0  0
   22.6417    4.4216  -66.7346 H   0  0  0  1  0  0  0  0  0  0  0  0
   21.0154    2.9668  -70.4624 H   0  0  0  1  0  0  0  0  0  0  0  0
   19.3957    4.1778  -71.7644 H   0  0  0  1  0  0  0  0  0  0  0  0
   20.7002    7.7424  -70.2622 H   0  0  0  1  0  0  0  0  0  0  0  0
   22.3523    6.6332  -68.9050 H   0  0  0  1  0  0  0  0  0  0  0  0
  1  3  4  0  0  0  0
  1 14  4  0  0  0  0
  1 21  1  0  0  0  0
  2 14  4  0  0  0  0
  2 15  4  0  0  0  0
  2 30  1  0  0  0  0
  3 16  4  0  0  0  0
  4  5  4  0  0  0  0
  4  7  4  0  0  0  0
  4 17  1  0  0  0  0
  5  9  4  0  0  0  0
  5 31  1  0  0  0  0
  6  7  4  0  0  0  0
  6  8  4  0  0  0  0
  6 32  1  0  0  0  0
  7 33  1  0  0  0  0
  8  9  4  0  0  0  0
  8 20  1  0  0  0  0
  9 34  1  0  0  0  0
 10 11  1  0  0  0  0
 10 21  1  0  0  0  0
 10 24  1  0  0  0  0
 10 35  1  0  0  0  0
 11 12  1  0  0  0  0
 11 36  1  0  0  0  0
 11 37  1  0  0  0  0
 12 23  1  0  0  0  0
 12 38  1  0  0  0  0
 12 39  1  0  0  0  0
 13 23  1  0  0  0  0
 13 25  4  0  0  0  0
 13 29  4  0  0  0  0
 15 16  4  0  0  0  0
 15 18  4  0  0  0  0
 16 17  4  0  0  0  0
 17 19  4  0  0  0  0
 18 19  4  0  0  0  0
 20 22  1  0  0  0  0
 21 40  1  0  0  0  0
 22 41  1  0  0  0  0
 22 42  1  0  0  0  0
 22 43  1  0  0  0  0
 23 24  1  0  0  0  0
 24 44  1  0  0  0  0
 24 45  1  0  0  0  0
 25 26  4  0  0  0  0
 25 46  1  0  0  0  0
 26 27  4  0  0  0  0
 26 47  1  0  0  0  0
 27 28  4  0  0  0  0
 28 29  4  0  0  0  0
 28 48  1  0  0  0  0
 29 49  1  0  0  0  0
M  END
> <ConfClashScore>
0 

> <ConfOneFourInteractionScore>
-0.987833 

> <ConfScore>
-0.043224 

> <ConfScorePBest>
0.00487274 

> <ConfTolerance>
0.419469 

> <HETNAM>
     OWQ A 303  OWQ                                                       

> <pdb_OW>
Q_303 -16.5129 3.80749 7.62812 0.15963 1.39178 -0.28144 -3.20151 0 0 0 -1.30514 0 0 0 0 0 0 0 0 -8.31393

$$$$
6yky_lig_1.pdb
 OpenBabel04162415593D

 49 53  0  0  0  0  0  0  0  0999 V2000
   25.1048    1.8135  -65.3760 C   0  0  0  1  0  0  0  0  0  0  0  0
   26.9167    0.5034  -65.9326 C   0  0  0  1  0  0  0  0  0  0  0  0
   25.4178    1.8283  -64.0982 N   0  0  0  1  0  0  0  0  0  0  0  0
   26.7517    1.5717  -61.1737 C   0  0  0  1  0  0  0  0  0  0  0  0
   27.2479    1.0073  -60.0137 C   0  0  0  1  0  0  0  0  0  0  0  0
   25.4708    3.1254  -59.8728 C   0  0  0  1  0  0  0  0  0  0  0  0
   25.8599    2.6305  -61.1032 C   0  0  0  1  0  0  0  0  0  0  0  0
   25.9682    2.5595  -58.7093 C   0  0  0  1  0  0  0  0  0  0  0  0
   26.8575    1.5037  -58.7797 C   0  0  0  1  0  0  0  0  0  0  0  0
   23.6185    2.5537  -67.1913 C   0  0  0  1  0  0  0  0  0  0  0  0
   22.1289    2.9561  -67.3738 C   0  0  0  1  0  0  0  0  0  0  0  0
   21.6436    2.3463  -68.7057 C   0  0  0  1  0  0  0  0  0  0  0  0
   22.7577    0.5827  -70.1604 C   0  0  0  1  0  0  0  0  0  0  0  0
   25.8297    1.1707  -66.2747 N   0  0  0  1  0  0  0  0  0  0  0  0
   27.2965    0.4857  -64.5856 C   0  0  0  1  0  0  0  0  0  0  0  0
   26.4936    1.1851  -63.6613 C   0  0  0  1  0  0  0  0  0  0  0  0
   27.0809    1.0062  -62.4394 N   0  0  0  1  0  0  0  0  0  0  0  0
   28.3159   -0.0766  -63.9004 N   0  0  0  1  0  0  0  0  0  0  0  0
   28.2164    0.2092  -62.6490 N   0  0  0  1  0  0  0  0  0  0  0  0
   25.6252    2.9912  -57.4800 O   0  0  0  1  0  0  0  0  0  0  0  0
   23.9920    2.4855  -65.7895 N   0  0  0  1  0  0  0  0  0  0  0  0
   24.8456    4.2095  -57.4545 C   0  0  0  1  0  0  0  0  0  0  0  0
   22.6749    1.3080  -68.9870 N   0  0  0  1  0  0  0  0  0  0  0  0
   23.5933    1.1590  -67.8463 C   0  0  0  1  0  0  0  0  0  0  0  0
   22.1259   -0.6414  -70.2785 C   0  0  0  1  0  0  0  0  0  0  0  0
   22.2314   -1.3315  -71.4711 C   0  0  0  1  0  0  0  0  0  0  0  0
   22.9187   -0.8784  -72.5240 N   0  0  0  1  0  0  0  0  0  0  0  0
   23.5298    0.3077  -72.3941 C   0  0  0  1  0  0  0  0  0  0  0  0
   23.4734    1.0666  -71.2381 C   0  0  0  1  0  0  0  0  0  0  0  0
   27.4789    0.0013  -66.6491 H   0  0  0  1  0  0  0  0  0  0  0  0
   27.9138    0.2103  -60.0665 H   0  0  0  1  0  0  0  0  0  0  0  0
   24.8047    3.9223  -59.8200 H   0  0  0  1  0  0  0  0  0  0  0  0
   25.4835    3.0524  -61.9761 H   0  0  0  1  0  0  0  0  0  0  0  0
   27.2338    1.0818  -57.9069 H   0  0  0  1  0  0  0  0  0  0  0  0
   24.2774    3.2226  -67.7044 H   0  0  0  1  0  0  0  0  0  0  0  0
   22.0399    4.0219  -67.4063 H   0  0  0  1  0  0  0  0  0  0  0  0
   21.5451    2.5734  -66.5629 H   0  0  0  1  0  0  0  0  0  0  0  0
   20.6738    1.9073  -68.5979 H   0  0  0  1  0  0  0  0  0  0  0  0
   21.6176    3.0839  -69.4805 H   0  0  0  1  0  0  0  0  0  0  0  0
   23.4300    2.9339  -65.1235 H   0  0  0  1  0  0  0  0  0  0  0  0
   25.4282    5.0146  -57.8511 H   0  0  0  1  0  0  0  0  0  0  0  0
   24.5677    4.4337  -56.4458 H   0  0  0  1  0  0  0  0  0  0  0  0
   23.9644    4.0812  -58.0477 H   0  0  0  1  0  0  0  0  0  0  0  0
   24.5706    0.8802  -68.1809 H   0  0  0  1  0  0  0  0  0  0  0  0
   23.2279    0.4246  -67.1593 H   0  0  0  1  0  0  0  0  0  0  0  0
   21.5816   -1.0354  -69.4848 H   0  0  0  1  0  0  0  0  0  0  0  0
   21.7515   -2.2504  -71.5535 H   0  0  0  1  0  0  0  0  0  0  0  0
   24.0728    0.6755  -73.2013 H   0  0  0  1  0  0  0  0  0  0  0  0
   23.9605    1.9837  -71.1821 H   0  0  0  1  0  0  0  0  0  0  0  0
  1  3  4  0  0  0  0
  1 14  4  0  0  0  0
  1 21  1  0  0  0  0
  2 14  4  0  0  0  0
  2 15  4  0  0  0  0
  2 30  1  0  0  0  0
  3 16  4  0  0  0  0
  4  5  4  0  0  0  0
  4  7  4  0  0  0  0
  4 17  1  0  0  0  0
  5  9  4  0  0  0  0
  5 31  1  0  0  0  0
  6  7  4  0  0  0  0
  6  8  4  0  0  0  0
  6 32  1  0  0  0  0
  7 33  1  0  0  0  0
  8  9  4  0  0  0  0
  8 20  1  0  0  0  0
  9 34  1  0  0  0  0
 10 11  1  0  0  0  0
 10 21  1  0  0  0  0
 10 24  1  0  0  0  0
 10 35  1  0  0  0  0
 11 12  1  0  0  0  0
 11 36  1  0  0  0  0
 11 37  1  0  0  0  0
 12 23  1  0  0  0  0
 12 38  1  0  0  0  0
 12 39  1  0  0  0  0
 13 23  1  0  0  0  0
 13 25  4  0  0  0  0
 13 29  4  0  0  0  0
 15 16  4  0  0  0  0
 15 18  4  0  0  0  0
 16 17  4  0  0  0  0
 17 19  4  0  0  0  0
 18 19  4  0  0  0  0
 20 22  1  0  0  0  0
 21 40  1  0  0  0  0
 22 41  1  0  0  0  0
 22 42  1  0  0  0  0
 22 43  1  0  0  0  0
 23 24  1  0  0  0  0
 24 44  1  0  0  0  0
 24 45  1  0  0  0  0
 25 26  4  0  0  0  0
 25 46  1  0  0  0  0
 26 27  4  0  0  0  0
 26 47  1  0  0  0  0
 27 28  4  0  0  0  0
 28 29  4  0  0  0  0
 28 48  1  0  0  0  0
 29 49  1  0  0  0  0
M  END
> <ConfClashScore>
0 

> <ConfOneFourInteractionScore>
-0.987833 

> <ConfScore>
-0.0420017 

> <ConfScorePBest>
0.00485941 

> <ConfTolerance>
0.316249 

> <HETNAM>
     OWQ A 303  OWQ                                                       

> <pdb_OW>
Q_303 -16.5129 3.80749 7.62812 0.15963 1.39178 -0.28144 -3.20151 0 0 0 -1.30514 0 0 0 0 0 0 0 0 -8.31393

$$$$
6yky_lig_1.pdb
 OpenBabel04162415593D

 49 53  0  0  0  0  0  0  0  0999 V2000
   25.1048    1.8135  -65.3760 C   0  0  0  1  0  0  0  0  0  0  0  0
   26.9167    0.5034  -65.9326 C   0  0  0  1  0  0  0  0  0  0  0  0
   25.4178    1.8283  -64.0982 N   0  0  0  1  0  0  0  0  0  0  0  0
   26.7669    1.4474  -61.1216 C   0  0  0  1  0  0  0  0  0  0  0  0
   26.2487    0.5580  -60.1992 C   0  0  0  1  0  0  0  0  0  0  0  0
   26.5093    3.2354  -59.5455 C   0  0  0  1  0  0  0  0  0  0  0  0
   26.8950    2.7885  -60.7952 C   0  0  0  1  0  0  0  0  0  0  0  0
   25.9895    2.3435  -58.6203 C   0  0  0  1  0  0  0  0  0  0  0  0
   25.8619    1.0063  -58.9458 C   0  0  0  1  0  0  0  0  0  0  0  0
   23.1192    3.1675  -64.8501 C   0  0  0  1  0  0  0  0  0  0  0  0
   21.9377    2.2900  -64.4658 C   0  0  0  1  0  0  0  0  0  0  0  0
   20.8736    3.2822  -63.9923 C   0  0  0  1  0  0  0  0  0  0  0  0
   20.4378    5.6458  -64.7200 C   0  0  0  1  0  0  0  0  0  0  0  0
   25.8297    1.1707  -66.2748 N   0  0  0  1  0  0  0  0  0  0  0  0
   27.2965    0.4857  -64.5857 C   0  0  0  1  0  0  0  0  0  0  0  0
   26.4936    1.1852  -63.6614 C   0  0  0  1  0  0  0  0  0  0  0  0
   27.0809    1.0061  -62.4395 N   0  0  0  1  0  0  0  0  0  0  0  0
   28.3159   -0.0766  -63.9004 N   0  0  0  1  0  0  0  0  0  0  0  0
   28.2164    0.2093  -62.6490 N   0  0  0  1  0  0  0  0  0  0  0  0
   25.4901    2.8704  -57.4220 O   0  0  0  1  0  0  0  0  0  0  0  0
   23.9920    2.4856  -65.7896 N   0  0  0  1  0  0  0  0  0  0  0  0
   25.7256    4.2644  -57.1696 C   0  0  0  1  0  0  0  0  0  0  0  0
   21.2051    4.5080  -64.7355 N   0  0  0  1  0  0  0  0  0  0  0  0
   22.4552    4.3701  -65.4966 C   0  0  0  1  0  0  0  0  0  0  0  0
   20.9045    6.8184  -65.2846 C   0  0  0  1  0  0  0  0  0  0  0  0
   20.0976    7.9397  -65.2505 C   0  0  0  1  0  0  0  0  0  0  0  0
   18.8823    7.9538  -64.6945 N   0  0  0  1  0  0  0  0  0  0  0  0
   18.4442    6.8112  -64.1470 C   0  0  0  1  0  0  0  0  0  0  0  0
   19.1843    5.6418  -64.1400 C   0  0  0  1  0  0  0  0  0  0  0  0
   27.4789    0.0014  -66.6492 H   0  0  0  1  0  0  0  0  0  0  0  0
   26.1490   -0.4475  -60.4455 H   0  0  0  1  0  0  0  0  0  0  0  0
   26.6091    4.2409  -59.2993 H   0  0  0  1  0  0  0  0  0  0  0  0
   27.2812    3.4583  -61.4908 H   0  0  0  1  0  0  0  0  0  0  0  0
   25.4757    0.3364  -58.2504 H   0  0  0  1  0  0  0  0  0  0  0  0
   23.6806    3.4565  -63.9863 H   0  0  0  1  0  0  0  0  0  0  0  0
   21.5885    1.7326  -65.3098 H   0  0  0  1  0  0  0  0  0  0  0  0
   22.2055    1.6163  -63.6789 H   0  0  0  1  0  0  0  0  0  0  0  0
   20.9414    3.4431  -62.9367 H   0  0  0  1  0  0  0  0  0  0  0  0
   19.8909    2.9378  -64.2388 H   0  0  0  1  0  0  0  0  0  0  0  0
   23.7759    2.5089  -66.7451 H   0  0  0  1  0  0  0  0  0  0  0  0
   25.1054    4.8535  -57.8125 H   0  0  0  1  0  0  0  0  0  0  0  0
   26.7537    4.4923  -57.3593 H   0  0  0  1  0  0  0  0  0  0  0  0
   25.4931    4.4861  -56.1490 H   0  0  0  1  0  0  0  0  0  0  0  0
   22.2565    4.1888  -66.5323 H   0  0  0  1  0  0  0  0  0  0  0  0
   23.0638    5.2446  -65.3975 H   0  0  0  1  0  0  0  0  0  0  0  0
   21.8451    6.8558  -65.7267 H   0  0  0  1  0  0  0  0  0  0  0  0
   20.4542    8.8175  -65.6793 H   0  0  0  1  0  0  0  0  0  0  0  0
   17.5023    6.8032  -63.7060 H   0  0  0  1  0  0  0  0  0  0  0  0
   18.8038    4.7765  -63.7064 H   0  0  0  1  0  0  0  0  0  0  0  0
  1  3  4  0  0  0  0
  1 14  4  0  0  0  0
  1 21  1  0  0  0  0
  2 14  4  0  0  0  0
  2 15  4  0  0  0  0
  2 30  1  0  0  0  0
  3 16  4  0  0  0  0
  4  5  4  0  0  0  0
  4  7  4  0  0  0  0
  4 17  1  0  0  0  0
  5  9  4  0  0  0  0
  5 31  1  0  0  0  0
  6  7  4  0  0  0  0
  6  8  4  0  0  0  0
  6 32  1  0  0  0  0
  7 33  1  0  0  0  0
  8  9  4  0  0  0  0
  8 20  1  0  0  0  0
  9 34  1  0  0  0  0
 10 11  1  0  0  0  0
 10 21  1  0  0  0  0
 10 24  1  0  0  0  0
 10 35  1  0  0  0  0
 11 12  1  0  0  0  0
 11 36  1  0  0  0  0
 11 37  1  0  0  0  0
 12 23  1  0  0  0  0
 12 38  1  0  0  0  0
 12 39  1  0  0  0  0
 13 23  1  0  0  0  0
 13 25  4  0  0  0  0
 13 29  4  0  0  0  0
 15 16  4  0  0  0  0
 15 18  4  0  0  0  0
 16 17  4  0  0  0  0
 17 19  4  0  0  0  0
 18 19  4  0  0  0  0
 20 22  1  0  0  0  0
 21 40  1  0  0  0  0
 22 41  1  0  0  0  0
 22 42  1  0  0  0  0
 22 43  1  0  0  0  0
 23 24  1  0  0  0  0
 24 44  1  0  0  0  0
 24 45  1  0  0  0  0
 25 26  4  0  0  0  0
 25 46  1  0  0  0  0
 26 27  4  0  0  0  0
 26 47  1  0  0  0  0
 27 28  4  0  0  0  0
 28 29  4  0  0  0  0
 28 48  1  0  0  0  0
 29 49  1  0  0  0  0
M  END
> <ConfClashScore>
0 

> <ConfOneFourInteractionScore>
-0.986948 

> <ConfScore>
-0.0408326 

> <ConfScorePBest>
0.00484608 

> <ConfTolerance>
0.445305 

> <HETNAM>
     OWQ A 303  OWQ                                                       

> <pdb_OW>
Q_303 -16.5129 3.80749 7.62812 0.15963 1.39178 -0.28144 -3.20151 0 0 0 -1.30514 0 0 0 0 0 0 0 0 -8.31393

$$$$
6yky_lig_1.pdb
 OpenBabel04162415593D

 49 53  0  0  0  0  0  0  0  0999 V2000
   25.1047    1.8135  -65.3760 C   0  0  0  1  0  0  0  0  0  0  0  0
   26.9167    0.5034  -65.9326 C   0  0  0  1  0  0  0  0  0  0  0  0
   25.4178    1.8283  -64.0982 N   0  0  0  1  0  0  0  0  0  0  0  0
   26.7669    1.4473  -61.1214 C   0  0  0  1  0  0  0  0  0  0  0  0
   25.6380    2.2128  -60.8986 C   0  0  0  1  0  0  0  0  0  0  0  0
   27.3866    1.6864  -58.8180 C   0  0  0  1  0  0  0  0  0  0  0  0
   27.6440    1.1858  -60.0804 C   0  0  0  1  0  0  0  0  0  0  0  0
   26.2544    2.4542  -58.5943 C   0  0  0  1  0  0  0  0  0  0  0  0
   25.3800    2.7147  -59.6324 C   0  0  0  1  0  0  0  0  0  0  0  0
   23.6247    2.6380  -67.1785 C   0  0  0  1  0  0  0  0  0  0  0  0
   24.5980    3.5360  -67.8841 C   0  0  0  1  0  0  0  0  0  0  0  0
   24.0822    4.9430  -67.4717 C   0  0  0  1  0  0  0  0  0  0  0  0
   21.7213    5.7673  -67.3071 C   0  0  0  1  0  0  0  0  0  0  0  0
   25.8296    1.1707  -66.2747 N   0  0  0  1  0  0  0  0  0  0  0  0
   27.2965    0.4857  -64.5857 C   0  0  0  1  0  0  0  0  0  0  0  0
   26.4936    1.1851  -63.6613 C   0  0  0  1  0  0  0  0  0  0  0  0
   27.0809    1.0061  -62.4395 N   0  0  0  1  0  0  0  0  0  0  0  0
   28.3159   -0.0766  -63.9004 N   0  0  0  1  0  0  0  0  0  0  0  0
   28.2164    0.2092  -62.6490 N   0  0  0  1  0  0  0  0  0  0  0  0
   26.0063    2.9464  -57.3649 O   0  0  0  1  0  0  0  0  0  0  0  0
   24.0034    2.4787  -65.7853 N   0  0  0  1  0  0  0  0  0  0  0  0
   24.7130    3.5747  -57.2067 C   0  0  0  1  0  0  0  0  0  0  0  0
   22.6656    4.7152  -67.3522 N   0  0  0  1  0  0  0  0  0  0  0  0
   22.2880    3.3159  -67.2821 C   0  0  0  1  0  0  0  0  0  0  0  0
   21.4584    6.4280  -66.1214 C   0  0  0  1  0  0  0  0  0  0  0  0
   20.5311    7.4526  -66.1228 C   0  0  0  1  0  0  0  0  0  0  0  0
   19.8670    7.8411  -67.2157 N   0  0  0  1  0  0  0  0  0  0  0  0
   20.1286    7.1890  -68.3574 C   0  0  0  1  0  0  0  0  0  0  0  0
   21.0437    6.1546  -68.4466 C   0  0  0  1  0  0  0  0  0  0  0  0
   27.4790    0.0014  -66.6491 H   0  0  0  1  0  0  0  0  0  0  0  0
   24.9821    2.4122  -61.6807 H   0  0  0  1  0  0  0  0  0  0  0  0
   28.0426    1.4870  -58.0359 H   0  0  0  1  0  0  0  0  0  0  0  0
   28.4956    0.6132  -60.2491 H   0  0  0  1  0  0  0  0  0  0  0  0
   24.5284    3.2873  -59.4638 H   0  0  0  1  0  0  0  0  0  0  0  0
   23.5930    1.6790  -67.6519 H   0  0  0  1  0  0  0  0  0  0  0  0
   25.5987    3.3717  -67.5425 H   0  0  0  1  0  0  0  0  0  0  0  0
   24.5558    3.4004  -68.9446 H   0  0  0  1  0  0  0  0  0  0  0  0
   24.2971    5.6724  -68.2245 H   0  0  0  1  0  0  0  0  0  0  0  0
   24.5061    5.2554  -66.5402 H   0  0  0  1  0  0  0  0  0  0  0  0
   23.4252    2.8775  -65.1019 H   0  0  0  1  0  0  0  0  0  0  0  0
   24.5252    4.2201  -58.0392 H   0  0  0  1  0  0  0  0  0  0  0  0
   24.7030    4.1472  -56.3027 H   0  0  0  1  0  0  0  0  0  0  0  0
   23.9541    2.8219  -57.1611 H   0  0  0  1  0  0  0  0  0  0  0  0
   21.6842    3.1188  -66.4210 H   0  0  0  1  0  0  0  0  0  0  0  0
   21.7640    3.0099  -68.1633 H   0  0  0  1  0  0  0  0  0  0  0  0
   21.9492    6.1589  -65.2449 H   0  0  0  1  0  0  0  0  0  0  0  0
   20.3403    7.9467  -65.2278 H   0  0  0  1  0  0  0  0  0  0  0  0
   19.6189    7.4743  -69.2180 H   0  0  0  1  0  0  0  0  0  0  0  0
   21.2180    5.6781  -69.3545 H   0  0  0  1  0  0  0  0  0  0  0  0
  1  3  4  0  0  0  0
  1 14  4  0  0  0  0
  1 21  1  0  0  0  0
  2 14  4  0  0  0  0
  2 15  4  0  0  0  0
  2 30  1  0  0  0  0
  3 16  4  0  0  0  0
  4  5  4  0  0  0  0
  4  7  4  0  0  0  0
  4 17  1  0  0  0  0
  5  9  4  0  0  0  0
  5 31  1  0  0  0  0
  6  7  4  0  0  0  0
  6  8  4  0  0  0  0
  6 32  1  0  0  0  0
  7 33  1  0  0  0  0
  8  9  4  0  0  0  0
  8 20  1  0  0  0  0
  9 34  1  0  0  0  0
 10 11  1  0  0  0  0
 10 21  1  0  0  0  0
 10 24  1  0  0  0  0
 10 35  1  0  0  0  0
 11 12  1  0  0  0  0
 11 36  1  0  0  0  0
 11 37  1  0  0  0  0
 12 23  1  0  0  0  0
 12 38  1  0  0  0  0
 12 39  1  0  0  0  0
 13 23  1  0  0  0  0
 13 25  4  0  0  0  0
 13 29  4  0  0  0  0
 15 16  4  0  0  0  0
 15 18  4  0  0  0  0
 16 17  4  0  0  0  0
 17 19  4  0  0  0  0
 18 19  4  0  0  0  0
 20 22  1  0  0  0  0
 21 40  1  0  0  0  0
 22 41  1  0  0  0  0
 22 42  1  0  0  0  0
 22 43  1  0  0  0  0
 23 24  1  0  0  0  0
 24 44  1  0  0  0  0
 24 45  1  0  0  0  0
 25 26  4  0  0  0  0
 25 46  1  0  0  0  0
 26 27  4  0  0  0  0
 26 47  1  0  0  0  0
 27 28  4  0  0  0  0
 28 29  4  0  0  0  0
 28 48  1  0  0  0  0
 29 49  1  0  0  0  0
M  END
> <ConfClashScore>
0 

> <ConfOneFourInteractionScore>
-0.984874 

> <ConfScore>
-0.039878 

> <ConfScorePBest>
0.00483275 

> <ConfTolerance>
0.493164 

> <HETNAM>
     OWQ A 303  OWQ                                                       

> <pdb_OW>
Q_303 -16.5129 3.80749 7.62812 0.15963 1.39178 -0.28144 -3.20151 0 0 0 -1.30514 0 0 0 0 0 0 0 0 -8.31393

$$$$
6yky_lig_1.pdb
 OpenBabel04162415593D

 49 53  0  0  0  0  0  0  0  0999 V2000
   25.1048    1.8136  -65.3760 C   0  0  0  1  0  0  0  0  0  0  0  0
   26.9167    0.5034  -65.9326 C   0  0  0  1  0  0  0  0  0  0  0  0
   25.4178    1.8285  -64.0982 N   0  0  0  1  0  0  0  0  0  0  0  0
   26.7240    1.3640  -61.1072 C   0  0  0  1  0  0  0  0  0  0  0  0
   25.5800    2.1031  -60.8722 C   0  0  0  1  0  0  0  0  0  0  0  0
   27.2745    1.4706  -58.7764 C   0  0  0  1  0  0  0  0  0  0  0  0
   27.5739    1.0496  -60.0584 C   0  0  0  1  0  0  0  0  0  0  0  0
   26.1271    2.2120  -58.5405 C   0  0  0  1  0  0  0  0  0  0  0  0
   25.2798    2.5253  -59.5865 C   0  0  0  1  0  0  0  0  0  0  0  0
   23.2280    3.2844  -64.7441 C   0  0  0  1  0  0  0  0  0  0  0  0
   22.6747    2.3769  -63.6511 C   0  0  0  1  0  0  0  0  0  0  0  0
   21.4050    1.7787  -64.2709 C   0  0  0  1  0  0  0  0  0  0  0  0
   19.8247    2.7489  -65.9706 C   0  0  0  1  0  0  0  0  0  0  0  0
   25.8297    1.1707  -66.2748 N   0  0  0  1  0  0  0  0  0  0  0  0
   27.2965    0.4857  -64.5857 C   0  0  0  1  0  0  0  0  0  0  0  0
   26.4936    1.1852  -63.6614 C   0  0  0  1  0  0  0  0  0  0  0  0
   27.0809    1.0062  -62.4395 N   0  0  0  1  0  0  0  0  0  0  0  0
   28.3159   -0.0766  -63.9004 N   0  0  0  1  0  0  0  0  0  0  0  0
   28.2164    0.2093  -62.6490 N   0  0  0  1  0  0  0  0  0  0  0  0
   25.9426    2.5702  -57.2550 O   0  0  0  1  0  0  0  0  0  0  0  0
   23.9682    2.5093  -65.7453 N   0  0  0  1  0  0  0  0  0  0  0  0
   24.7496    3.3480  -57.0015 C   0  0  0  1  0  0  0  0  0  0  0  0
   20.9933    2.8067  -65.2437 N   0  0  0  1  0  0  0  0  0  0  0  0
   21.9752    3.9068  -65.3521 C   0  0  0  1  0  0  0  0  0  0  0  0
   18.6922    3.4139  -65.5383 C   0  0  0  1  0  0  0  0  0  0  0  0
   17.5421    3.3325  -66.3001 C   0  0  0  1  0  0  0  0  0  0  0  0
   17.4630    2.6382  -67.4393 N   0  0  0  1  0  0  0  0  0  0  0  0
   18.5672    1.9948  -67.8444 C   0  0  0  1  0  0  0  0  0  0  0  0
   19.7613    2.0255  -67.1455 C   0  0  0  1  0  0  0  0  0  0  0  0
   27.4789    0.0013  -66.6491 H   0  0  0  1  0  0  0  0  0  0  0  0
   24.9445    2.3424  -61.6599 H   0  0  0  1  0  0  0  0  0  0  0  0
   27.9100    1.2313  -57.9888 H   0  0  0  1  0  0  0  0  0  0  0  0
   28.4368    0.4968  -60.2360 H   0  0  0  1  0  0  0  0  0  0  0  0
   24.4169    3.0781  -59.4089 H   0  0  0  1  0  0  0  0  0  0  0  0
   23.8672    4.0363  -64.3304 H   0  0  0  1  0  0  0  0  0  0  0  0
   23.3762    1.6074  -63.4048 H   0  0  0  1  0  0  0  0  0  0  0  0
   22.4394    2.9403  -62.7723 H   0  0  0  1  0  0  0  0  0  0  0  0
   20.6494    1.6278  -63.5285 H   0  0  0  1  0  0  0  0  0  0  0  0
   21.6165    0.8504  -64.7592 H   0  0  0  1  0  0  0  0  0  0  0  0
   23.6578    2.4846  -66.6744 H   0  0  0  1  0  0  0  0  0  0  0  0
   24.6937    4.1549  -57.7019 H   0  0  0  1  0  0  0  0  0  0  0  0
   24.7850    3.7411  -56.0070 H   0  0  0  1  0  0  0  0  0  0  0  0
   23.8875    2.7232  -57.1081 H   0  0  0  1  0  0  0  0  0  0  0  0
   21.6593    4.7642  -64.7954 H   0  0  0  1  0  0  0  0  0  0  0  0
   22.1363    4.1831  -66.3731 H   0  0  0  1  0  0  0  0  0  0  0  0
   18.7056    3.9649  -64.6564 H   0  0  0  1  0  0  0  0  0  0  0  0
   16.6948    3.8372  -65.9699 H   0  0  0  1  0  0  0  0  0  0  0  0
   18.5243    1.4459  -68.7267 H   0  0  0  1  0  0  0  0  0  0  0  0
   20.5951    1.5137  -67.4983 H   0  0  0  1  0  0  0  0  0  0  0  0
  1  3  4  0  0  0  0
  1 14  4  0  0  0  0
  1 21  1  0  0  0  0
  2 14  4  0  0  0  0
  2 15  4  0  0  0  0
  2 30  1  0  0  0  0
  3 16  4  0  0  0  0
  4  5  4  0  0  0  0
  4  7  4  0  0  0  0
  4 17  1  0  0  0  0
  5  9  4  0  0  0  0
  5 31  1  0  0  0  0
  6  7  4  0  0  0  0
  6  8  4  0  0  0  0
  6 32  1  0  0  0  0
  7 33  1  0  0  0  0
  8  9  4  0  0  0  0
  8 20  1  0  0  0  0
  9 34  1  0  0  0  0
 10 11  1  0  0  0  0
 10 21  1  0  0  0  0
 10 24  1  0  0  0  0
 10 35  1  0  0  0  0
 11 12  1  0  0  0  0
 11 36  1  0  0  0  0
 11 37  1  0  0  0  0
 12 23  1  0  0  0  0
 12 38  1  0  0  0  0
 12 39  1  0  0  0  0
 13 23  1  0  0  0  0
 13 25  4  0  0  0  0
 13 29  4  0  0  0  0
 15 16  4  0  0  0  0
 15 18  4  0  0  0  0
 16 17  4  0  0  0  0
 17 19  4  0  0  0  0
 18 19  4  0  0  0  0
 20 22  1  0  0  0  0
 21 40  1  0  0  0  0
 22 41  1  0  0  0  0
 22 42  1  0  0  0  0
 22 43  1  0  0  0  0
 23 24  1  0  0  0  0
 24 44  1  0  0  0  0
 24 45  1  0  0  0  0
 25 26  4  0  0  0  0
 25 46  1  0  0  0  0
 26 27  4  0  0  0  0
 26 47  1  0  0  0  0
 27 28  4  0  0  0  0
 28 29  4  0  0  0  0
 28 48  1  0  0  0  0
 29 49  1  0  0  0  0
M  END
> <ConfClashScore>
0 

> <ConfOneFourInteractionScore>
-0.981795 

> <ConfScore>
-0.039878 

> <ConfScorePBest>
0.00481943 

> <ConfTolerance>
0.444946 

> <HETNAM>
     OWQ A 303  OWQ                                                       

> <pdb_OW>
Q_303 -16.5129 3.80749 7.62812 0.15963 1.39178 -0.28144 -3.20151 0 0 0 -1.30514 0 0 0 0 0 0 0 0 -8.31393

$$$$
6yky_lig_1.pdb
 OpenBabel04162415593D

 49 53  0  0  0  0  0  0  0  0999 V2000
   25.1048    1.8136  -65.3760 C   0  0  0  1  0  0  0  0  0  0  0  0
   26.9167    0.5034  -65.9326 C   0  0  0  1  0  0  0  0  0  0  0  0
   25.4179    1.8284  -64.0983 N   0  0  0  1  0  0  0  0  0  0  0  0
   26.7286    1.4700  -61.1391 C   0  0  0  1  0  0  0  0  0  0  0  0
   25.4199    1.3810  -60.7038 C   0  0  0  1  0  0  0  0  0  0  0  0
   27.3233    2.6231  -59.1231 C   0  0  0  1  0  0  0  0  0  0  0  0
   27.6813    2.0942  -60.3489 C   0  0  0  1  0  0  0  0  0  0  0  0
   26.0107    2.5339  -58.6863 C   0  0  0  1  0  0  0  0  0  0  0  0
   25.0611    1.9114  -59.4744 C   0  0  0  1  0  0  0  0  0  0  0  0
   23.5972    2.5857  -67.1729 C   0  0  0  1  0  0  0  0  0  0  0  0
   24.0152    3.9472  -67.7715 C   0  0  0  1  0  0  0  0  0  0  0  0
   22.8752    4.4352  -68.6294 C   0  0  0  1  0  0  0  0  0  0  0  0
   20.4305    3.6452  -68.6067 C   0  0  0  1  0  0  0  0  0  0  0  0
   25.8297    1.1707  -66.2748 N   0  0  0  1  0  0  0  0  0  0  0  0
   27.2965    0.4857  -64.5858 C   0  0  0  1  0  0  0  0  0  0  0  0
   26.4937    1.1852  -63.6615 C   0  0  0  1  0  0  0  0  0  0  0  0
   27.0810    1.0061  -62.4395 N   0  0  0  1  0  0  0  0  0  0  0  0
   28.3159   -0.0766  -63.9004 N   0  0  0  1  0  0  0  0  0  0  0  0
   28.2164    0.2092  -62.6490 N   0  0  0  1  0  0  0  0  0  0  0  0
   25.6430    3.1403  -57.5327 O   0  0  0  1  0  0  0  0  0  0  0  0
   24.0076    2.4763  -65.7838 N   0  0  0  1  0  0  0  0  0  0  0  0
   24.2551    3.0738  -57.1698 C   0  0  0  1  0  0  0  0  0  0  0  0
   21.7279    3.5171  -68.1542 N   0  0  0  1  0  0  0  0  0  0  0  0
   22.0865    2.6173  -67.2955 C   0  0  0  1  0  0  0  0  0  0  0  0
   19.5608    4.3243  -67.7735 C   0  0  0  1  0  0  0  0  0  0  0  0
   18.2485    4.4883  -68.1741 C   0  0  0  1  0  0  0  0  0  0  0  0
   17.7691    4.0201  -69.3305 N   0  0  0  1  0  0  0  0  0  0  0  0
   18.6222    3.3598  -70.1264 C   0  0  0  1  0  0  0  0  0  0  0  0
   19.9526    3.1534  -69.8056 C   0  0  0  1  0  0  0  0  0  0  0  0
   27.4789    0.0013  -66.6492 H   0  0  0  1  0  0  0  0  0  0  0  0
   24.7045    0.9162  -61.2985 H   0  0  0  1  0  0  0  0  0  0  0  0
   28.0388    3.0878  -58.5285 H   0  0  0  1  0  0  0  0  0  0  0  0
   28.6651    2.1647  -60.6784 H   0  0  0  1  0  0  0  0  0  0  0  0
   24.0772    1.8410  -59.1450 H   0  0  0  1  0  0  0  0  0  0  0  0
   24.0127    1.7743  -67.7330 H   0  0  0  1  0  0  0  0  0  0  0  0
   24.8959    3.8290  -68.3675 H   0  0  0  1  0  0  0  0  0  0  0  0
   24.2069    4.6480  -66.9859 H   0  0  0  1  0  0  0  0  0  0  0  0
   22.6562    5.4655  -68.4413 H   0  0  0  1  0  0  0  0  0  0  0  0
   23.0813    4.2982  -69.6704 H   0  0  0  1  0  0  0  0  0  0  0  0
   23.4523    2.9111  -65.1034 H   0  0  0  1  0  0  0  0  0  0  0  0
   23.9273    2.0556  -57.1964 H   0  0  0  1  0  0  0  0  0  0  0  0
   23.6780    3.6522  -57.8607 H   0  0  0  1  0  0  0  0  0  0  0  0
   24.1259    3.4641  -56.1820 H   0  0  0  1  0  0  0  0  0  0  0  0
   21.7380    1.6593  -67.6207 H   0  0  0  1  0  0  0  0  0  0  0  0
   21.6590    2.8480  -66.3421 H   0  0  0  1  0  0  0  0  0  0  0  0
   19.8882    4.7046  -66.8626 H   0  0  0  1  0  0  0  0  0  0  0  0
   17.6007    5.0023  -67.5434 H   0  0  0  1  0  0  0  0  0  0  0  0
   18.2670    2.9845  -71.0290 H   0  0  0  1  0  0  0  0  0  0  0  0
   20.5804    2.6378  -70.4549 H   0  0  0  1  0  0  0  0  0  0  0  0
  1  3  4  0  0  0  0
  1 14  4  0  0  0  0
  1 21  1  0  0  0  0
  2 14  4  0  0  0  0
  2 15  4  0  0  0  0
  2 30  1  0  0  0  0
  3 16  4  0  0  0  0
  4  5  4  0  0  0  0
  4  7  4  0  0  0  0
  4 17  1  0  0  0  0
  5  9  4  0  0  0  0
  5 31  1  0  0  0  0
  6  7  4  0  0  0  0
  6  8  4  0  0  0  0
  6 32  1  0  0  0  0
  7 33  1  0  0  0  0
  8  9  4  0  0  0  0
  8 20  1  0  0  0  0
  9 34  1  0  0  0  0
 10 11  1  0  0  0  0
 10 21  1  0  0  0  0
 10 24  1  0  0  0  0
 10 35  1  0  0  0  0
 11 12  1  0  0  0  0
 11 36  1  0  0  0  0
 11 37  1  0  0  0  0
 12 23  1  0  0  0  0
 12 38  1  0  0  0  0
 12 39  1  0  0  0  0
 13 23  1  0  0  0  0
 13 25  4  0  0  0  0
 13 29  4  0  0  0  0
 15 16  4  0  0  0  0
 15 18  4  0  0  0  0
 16 17  4  0  0  0  0
 17 19  4  0  0  0  0
 18 19  4  0  0  0  0
 20 22  1  0  0  0  0
 21 40  1  0  0  0  0
 22 41  1  0  0  0  0
 22 42  1  0  0  0  0
 22 43  1  0  0  0  0
 23 24  1  0  0  0  0
 24 44  1  0  0  0  0
 24 45  1  0  0  0  0
 25 26  4  0  0  0  0
 25 46  1  0  0  0  0
 26 27  4  0  0  0  0
 26 47  1  0  0  0  0
 27 28  4  0  0  0  0
 28 29  4  0  0  0  0
 28 48  1  0  0  0  0
 29 49  1  0  0  0  0
M  END
> <ConfClashScore>
0 

> <ConfOneFourInteractionScore>
-0.986948 

> <ConfScore>
-0.0396471 

> <ConfScorePBest>
0.0048061 

> <ConfTolerance>
0.50267 

> <HETNAM>
     OWQ A 303  OWQ                                                       

> <pdb_OW>
Q_303 -16.5129 3.80749 7.62812 0.15963 1.39178 -0.28144 -3.20151 0 0 0 -1.30514 0 0 0 0 0 0 0 0 -8.31393

$$$$
6yky_lig_1.pdb
 OpenBabel04162415593D

 49 53  0  0  0  0  0  0  0  0999 V2000
   25.1049    1.8136  -65.3761 C   0  0  0  1  0  0  0  0  0  0  0  0
   26.9167    0.5034  -65.9326 C   0  0  0  1  0  0  0  0  0  0  0  0
   25.4179    1.8285  -64.0983 N   0  0  0  1  0  0  0  0  0  0  0  0
   26.7286    1.4701  -61.1391 C   0  0  0  1  0  0  0  0  0  0  0  0
   26.0177    2.6463  -60.9931 C   0  0  0  1  0  0  0  0  0  0  0  0
   26.9139    1.2835  -58.7562 C   0  0  0  1  0  0  0  0  0  0  0  0
   27.1798    0.7889  -60.0193 C   0  0  0  1  0  0  0  0  0  0  0  0
   26.2010    2.4632  -58.6095 C   0  0  0  1  0  0  0  0  0  0  0  0
   25.7513    3.1421  -59.7263 C   0  0  0  1  0  0  0  0  0  0  0  0
   23.5594    2.4652  -67.1758 C   0  0  0  1  0  0  0  0  0  0  0  0
   23.4326    3.8643  -67.7034 C   0  0  0  1  0  0  0  0  0  0  0  0
   22.0359    4.2782  -67.1616 C   0  0  0  1  0  0  0  0  0  0  0  0
   19.9126    2.9290  -67.0562 C   0  0  0  1  0  0  0  0  0  0  0  0
   25.8297    1.1707  -66.2748 N   0  0  0  1  0  0  0  0  0  0  0  0
   27.2966    0.4858  -64.5857 C   0  0  0  1  0  0  0  0  0  0  0  0
   26.4937    1.1853  -63.6614 C   0  0  0  1  0  0  0  0  0  0  0  0
   27.0810    1.0063  -62.4396 N   0  0  0  1  0  0  0  0  0  0  0  0
   28.3159   -0.0766  -63.9004 N   0  0  0  1  0  0  0  0  0  0  0  0
   28.2164    0.2092  -62.6490 N   0  0  0  1  0  0  0  0  0  0  0  0
   26.0817    2.9688  -57.3666 O   0  0  0  1  0  0  0  0  0  0  0  0
   23.9921    2.4857  -65.7896 N   0  0  0  1  0  0  0  0  0  0  0  0
   25.2312    4.1339  -57.2586 C   0  0  0  1  0  0  0  0  0  0  0  0
   21.3334    3.0216  -67.1644 N   0  0  0  1  0  0  0  0  0  0  0  0
   22.1902    1.8569  -67.2865 C   0  0  0  1  0  0  0  0  0  0  0  0
   19.0825    2.7638  -68.1495 C   0  0  0  1  0  0  0  0  0  0  0  0
   17.7188    2.6809  -67.9420 C   0  0  0  1  0  0  0  0  0  0  0  0
   17.1535    2.7553  -66.7332 N   0  0  0  1  0  0  0  0  0  0  0  0
   17.9698    2.9198  -65.6827 C   0  0  0  1  0  0  0  0  0  0  0  0
   19.3460    3.0087  -65.7990 C   0  0  0  1  0  0  0  0  0  0  0  0
   27.4790    0.0014  -66.6492 H   0  0  0  1  0  0  0  0  0  0  0  0
   25.6828    3.1594  -61.8334 H   0  0  0  1  0  0  0  0  0  0  0  0
   27.2490    0.7704  -57.9159 H   0  0  0  1  0  0  0  0  0  0  0  0
   27.7181   -0.0940  -60.1294 H   0  0  0  1  0  0  0  0  0  0  0  0
   25.2129    4.0251  -59.6162 H   0  0  0  1  0  0  0  0  0  0  0  0
   24.2618    1.9093  -67.7611 H   0  0  0  1  0  0  0  0  0  0  0  0
   24.2040    4.4980  -67.3182 H   0  0  0  1  0  0  0  0  0  0  0  0
   23.4571    3.8816  -68.7730 H   0  0  0  1  0  0  0  0  0  0  0  0
   22.1058    4.6828  -66.1735 H   0  0  0  1  0  0  0  0  0  0  0  0
   21.5635    4.9896  -67.8063 H   0  0  0  1  0  0  0  0  0  0  0  0
   23.4713    2.9956  -65.1344 H   0  0  0  1  0  0  0  0  0  0  0  0
   25.5744    4.8904  -57.9331 H   0  0  0  1  0  0  0  0  0  0  0  0
   25.2645    4.5079  -56.2566 H   0  0  0  1  0  0  0  0  0  0  0  0
   24.2255    3.8652  -57.5062 H   0  0  0  1  0  0  0  0  0  0  0  0
   22.0552    1.3719  -68.2307 H   0  0  0  1  0  0  0  0  0  0  0  0
   22.0106    1.1574  -66.4969 H   0  0  0  1  0  0  0  0  0  0  0  0
   19.4771    2.7031  -69.1098 H   0  0  0  1  0  0  0  0  0  0  0  0
   17.1008    2.5542  -68.7689 H   0  0  0  1  0  0  0  0  0  0  0  0
   17.5484    2.9837  -64.7340 H   0  0  0  1  0  0  0  0  0  0  0  0
   19.9421    3.1332  -64.9559 H   0  0  0  1  0  0  0  0  0  0  0  0
  1  3  4  0  0  0  0
  1 14  4  0  0  0  0
  1 21  1  0  0  0  0
  2 14  4  0  0  0  0
  2 15  4  0  0  0  0
  2 30  1  0  0  0  0
  3 16  4  0  0  0  0
  4  5  4  0  0  0  0
  4  7  4  0  0  0  0
  4 17  1  0  0  0  0
  5  9  4  0  0  0  0
  5 31  1  0  0  0  0
  6  7  4  0  0  0  0
  6  8  4  0  0  0  0
  6 32  1  0  0  0  0
  7 33  1  0  0  0  0
  8  9  4  0  0  0  0
  8 20  1  0  0  0  0
  9 34  1  0  0  0  0
 10 11  1  0  0  0  0
 10 21  1  0  0  0  0
 10 24  1  0  0  0  0
 10 35  1  0  0  0  0
 11 12  1  0  0  0  0
 11 36  1  0  0  0  0
 11 37  1  0  0  0  0
 12 23  1  0  0  0  0
 12 38  1  0  0  0  0
 12 39  1  0  0  0  0
 13 23  1  0  0  0  0
 13 25  4  0  0  0  0
 13 29  4  0  0  0  0
 15 16  4  0  0  0  0
 15 18  4  0  0  0  0
 16 17  4  0  0  0  0
 17 19  4  0  0  0  0
 18 19  4  0  0  0  0
 20 22  1  0  0  0  0
 21 40  1  0  0  0  0
 22 41  1  0  0  0  0
 22 42  1  0  0  0  0
 22 43  1  0  0  0  0
 23 24  1  0  0  0  0
 24 44  1  0  0  0  0
 24 45  1  0  0  0  0
 25 26  4  0  0  0  0
 25 46  1  0  0  0  0
 26 27  4  0  0  0  0
 26 47  1  0  0  0  0
 27 28  4  0  0  0  0
 28 29  4  0  0  0  0
 28 48  1  0  0  0  0
 29 49  1  0  0  0  0
M  END
> <ConfClashScore>
0 

> <ConfOneFourInteractionScore>
-0.986948 

> <ConfScore>
-0.0394442 

> <ConfScorePBest>
0.00479277 

> <ConfTolerance>
0.510064 

> <HETNAM>
     OWQ A 303  OWQ                                                       

> <pdb_OW>
Q_303 -16.5129 3.80749 7.62812 0.15963 1.39178 -0.28144 -3.20151 0 0 0 -1.30514 0 0 0 0 0 0 0 0 -8.31393

$$$$
6yky_lig_1.pdb
 OpenBabel04162415593D

 49 53  0  0  0  0  0  0  0  0999 V2000
   25.1048    1.8136  -65.3760 C   0  0  0  1  0  0  0  0  0  0  0  0
   26.9167    0.5034  -65.9326 C   0  0  0  1  0  0  0  0  0  0  0  0
   25.4179    1.8284  -64.0982 N   0  0  0  1  0  0  0  0  0  0  0  0
   26.7286    1.4701  -61.1391 C   0  0  0  1  0  0  0  0  0  0  0  0
   26.9707    0.6285  -60.0698 C   0  0  0  1  0  0  0  0  0  0  0  0
   25.6774    3.0426  -59.6663 C   0  0  0  1  0  0  0  0  0  0  0  0
   26.0787    2.6777  -60.9376 C   0  0  0  1  0  0  0  0  0  0  0  0
   25.9201    2.1986  -58.5938 C   0  0  0  1  0  0  0  0  0  0  0  0
   26.5682    0.9945  -58.7949 C   0  0  0  1  0  0  0  0  0  0  0  0
   23.5082    2.5579  -67.1545 C   0  0  0  1  0  0  0  0  0  0  0  0
   22.8347    3.9234  -67.4162 C   0  0  0  1  0  0  0  0  0  0  0  0
   21.5937    3.6682  -68.2339 C   0  0  0  1  0  0  0  0  0  0  0  0
   20.3355    1.4359  -68.5710 C   0  0  0  1  0  0  0  0  0  0  0  0
   25.8297    1.1707  -66.2748 N   0  0  0  1  0  0  0  0  0  0  0  0
   27.2964    0.4858  -64.5857 C   0  0  0  1  0  0  0  0  0  0  0  0
   26.4937    1.1853  -63.6614 C   0  0  0  1  0  0  0  0  0  0  0  0
   27.0809    1.0062  -62.4395 N   0  0  0  1  0  0  0  0  0  0  0  0
   28.3158   -0.0766  -63.9005 N   0  0  0  1  0  0  0  0  0  0  0  0
   28.2164    0.2092  -62.6490 N   0  0  0  1  0  0  0  0  0  0  0  0
   25.4827    2.6536  -57.4139 O   0  0  0  1  0  0  0  0  0  0  0  0
   24.0136    2.4727  -65.7815 N   0  0  0  1  0  0  0  0  0  0  0  0
   25.4866    1.8105  -56.2130 C   0  0  0  1  0  0  0  0  0  0  0  0
   21.4234    2.1440  -68.0530 N   0  0  0  1  0  0  0  0  0  0  0  0
   22.3741    1.5777  -67.3811 C   0  0  0  1  0  0  0  0  0  0  0  0
   19.1190    1.4332  -67.9136 C   0  0  0  1  0  0  0  0  0  0  0  0
   18.0684    0.7231  -68.4629 C   0  0  0  1  0  0  0  0  0  0  0  0
   18.1652    0.0309  -69.6021 N   0  0  0  1  0  0  0  0  0  0  0  0
   19.3514    0.0387  -70.2265 C   0  0  0  1  0  0  0  0  0  0  0  0
   20.4543    0.7254  -69.7494 C   0  0  0  1  0  0  0  0  0  0  0  0
   27.4788    0.0013  -66.6491 H   0  0  0  1  0  0  0  0  0  0  0  0
   27.4548   -0.2794  -60.2218 H   0  0  0  1  0  0  0  0  0  0  0  0
   25.1933    3.9505  -59.5144 H   0  0  0  1  0  0  0  0  0  0  0  0
   25.8931    3.3091  -61.7428 H   0  0  0  1  0  0  0  0  0  0  0  0
   26.7539    0.3631  -57.9897 H   0  0  0  1  0  0  0  0  0  0  0  0
   24.3101    2.3855  -67.8416 H   0  0  0  1  0  0  0  0  0  0  0  0
   23.5022    4.5624  -67.9555 H   0  0  0  1  0  0  0  0  0  0  0  0
   22.5712    4.3845  -66.4873 H   0  0  0  1  0  0  0  0  0  0  0  0
   21.7415    3.9269  -69.2616 H   0  0  0  1  0  0  0  0  0  0  0  0
   20.7525    4.2051  -67.8478 H   0  0  0  1  0  0  0  0  0  0  0  0
   23.5016    2.9452  -65.0923 H   0  0  0  1  0  0  0  0  0  0  0  0
   26.4956    1.5783  -55.9430 H   0  0  0  1  0  0  0  0  0  0  0  0
   24.9532    0.9045  -56.4119 H   0  0  0  1  0  0  0  0  0  0  0  0
   25.0139    2.3340  -55.4084 H   0  0  0  1  0  0  0  0  0  0  0  0
   22.7399    0.7340  -67.9282 H   0  0  0  1  0  0  0  0  0  0  0  0
   21.9935    1.2525  -66.4355 H   0  0  0  1  0  0  0  0  0  0  0  0
   18.9970    1.9556  -67.0227 H   0  0  0  1  0  0  0  0  0  0  0  0
   17.1558    0.7276  -67.9642 H   0  0  0  1  0  0  0  0  0  0  0  0
   19.4477   -0.4973  -71.1126 H   0  0  0  1  0  0  0  0  0  0  0  0
   21.3553    0.7067  -70.2683 H   0  0  0  1  0  0  0  0  0  0  0  0
  1  3  4  0  0  0  0
  1 14  4  0  0  0  0
  1 21  1  0  0  0  0
  2 14  4  0  0  0  0
  2 15  4  0  0  0  0
  2 30  1  0  0  0  0
  3 16  4  0  0  0  0
  4  5  4  0  0  0  0
  4  7  4  0  0  0  0
  4 17  1  0  0  0  0
  5  9  4  0  0  0  0
  5 31  1  0  0  0  0
  6  7  4  0  0  0  0
  6  8  4  0  0  0  0
  6 32  1  0  0  0  0
  7 33  1  0  0  0  0
  8  9  4  0  0  0  0
  8 20  1  0  0  0  0
  9 34  1  0  0  0  0
 10 11  1  0  0  0  0
 10 21  1  0  0  0  0
 10 24  1  0  0  0  0
 10 35  1  0  0  0  0
 11 12  1  0  0  0  0
 11 36  1  0  0  0  0
 11 37  1  0  0  0  0
 12 23  1  0  0  0  0
 12 38  1  0  0  0  0
 12 39  1  0  0  0  0
 13 23  1  0  0  0  0
 13 25  4  0  0  0  0
 13 29  4  0  0  0  0
 15 16  4  0  0  0  0
 15 18  4  0  0  0  0
 16 17  4  0  0  0  0
 17 19  4  0  0  0  0
 18 19  4  0  0  0  0
 20 22  1  0  0  0  0
 21 40  1  0  0  0  0
 22 41  1  0  0  0  0
 22 42  1  0  0  0  0
 22 43  1  0  0  0  0
 23 24  1  0  0  0  0
 24 44  1  0  0  0  0
 24 45  1  0  0  0  0
 25 26  4  0  0  0  0
 25 46  1  0  0  0  0
 26 27  4  0  0  0  0
 26 47  1  0  0  0  0
 27 28  4  0  0  0  0
 28 29  4  0  0  0  0
 28 48  1  0  0  0  0
 29 49  1  0  0  0  0
M  END
> <ConfClashScore>
0 

> <ConfOneFourInteractionScore>
-0.986948 

> <ConfScore>
-0.0392529 

> <ConfScorePBest>
0.00477944 

> <ConfTolerance>
0.466409 

> <HETNAM>
     OWQ A 303  OWQ                                                       

> <pdb_OW>
Q_303 -16.5129 3.80749 7.62812 0.15963 1.39178 -0.28144 -3.20151 0 0 0 -1.30514 0 0 0 0 0 0 0 0 -8.31393

$$$$
6yky_lig_1.pdb
 OpenBabel04162415593D

 49 53  0  0  0  0  0  0  0  0999 V2000
   25.1050    1.8138  -65.3760 C   0  0  0  1  0  0  0  0  0  0  0  0
   26.9167    0.5034  -65.9326 C   0  0  0  1  0  0  0  0  0  0  0  0
   25.4180    1.8286  -64.0983 N   0  0  0  1  0  0  0  0  0  0  0  0
   26.7289    1.4702  -61.1391 C   0  0  0  1  0  0  0  0  0  0  0  0
   25.7295    2.4128  -60.9879 C   0  0  0  1  0  0  0  0  0  0  0  0
   27.1708    1.5575  -58.7845 C   0  0  0  1  0  0  0  0  0  0  0  0
   27.4524    1.0438  -60.0363 C   0  0  0  1  0  0  0  0  0  0  0  0
   26.1684    2.5030  -58.6326 C   0  0  0  1  0  0  0  0  0  0  0  0
   25.4472    2.9279  -59.7324 C   0  0  0  1  0  0  0  0  0  0  0  0
   23.6790    2.6040  -67.2260 C   0  0  0  1  0  0  0  0  0  0  0  0
   22.9282    3.8927  -67.5243 C   0  0  0  1  0  0  0  0  0  0  0  0
   22.2260    3.5833  -68.8345 C   0  0  0  1  0  0  0  0  0  0  0  0
   20.9805    1.4921  -69.4986 C   0  0  0  1  0  0  0  0  0  0  0  0
   25.8298    1.1708  -66.2748 N   0  0  0  1  0  0  0  0  0  0  0  0
   27.2966    0.4858  -64.5857 C   0  0  0  1  0  0  0  0  0  0  0  0
   26.4938    1.1854  -63.6614 C   0  0  0  1  0  0  0  0  0  0  0  0
   27.0811    1.0063  -62.4395 N   0  0  0  1  0  0  0  0  0  0  0  0
   28.3159   -0.0766  -63.9004 N   0  0  0  1  0  0  0  0  0  0  0  0
   28.2164    0.2092  -62.6490 N   0  0  0  1  0  0  0  0  0  0  0  0
   25.8321    2.9382  -57.4028 O   0  0  0  1  0  0  0  0  0  0  0  0
   23.9770    2.4952  -65.7952 N   0  0  0  1  0  0  0  0  0  0  0  0
   26.6230    2.3910  -56.3223 C   0  0  0  1  0  0  0  0  0  0  0  0
   21.9160    2.1512  -68.7148 N   0  0  0  1  0  0  0  0  0  0  0  0
   22.7153    1.4997  -67.6653 C   0  0  0  1  0  0  0  0  0  0  0  0
   20.8760    0.1188  -69.3774 C   0  0  0  1  0  0  0  0  0  0  0  0
   19.9446   -0.5476  -70.1506 C   0  0  0  1  0  0  0  0  0  0  0  0
   19.1348    0.0670  -71.0183 N   0  0  0  1  0  0  0  0  0  0  0  0
   19.2499    1.3981  -71.1288 C   0  0  0  1  0  0  0  0  0  0  0  0
   20.1523    2.1443  -70.3911 C   0  0  0  1  0  0  0  0  0  0  0  0
   27.4789    0.0013  -66.6491 H   0  0  0  1  0  0  0  0  0  0  0  0
   25.1894    2.7356  -61.8159 H   0  0  0  1  0  0  0  0  0  0  0  0
   27.7108    1.2348  -57.9564 H   0  0  0  1  0  0  0  0  0  0  0  0
   28.2071    0.3374  -60.1508 H   0  0  0  1  0  0  0  0  0  0  0  0
   24.6924    3.6344  -59.6179 H   0  0  0  1  0  0  0  0  0  0  0  0
   24.5901    2.5572  -67.7852 H   0  0  0  1  0  0  0  0  0  0  0  0
   22.2212    4.1135  -66.7521 H   0  0  0  1  0  0  0  0  0  0  0  0
   23.6042    4.7147  -67.6353 H   0  0  0  1  0  0  0  0  0  0  0  0
   21.3323    4.1625  -68.9377 H   0  0  0  1  0  0  0  0  0  0  0  0
   22.8701    3.7686  -69.6687 H   0  0  0  1  0  0  0  0  0  0  0  0
   23.3779    2.9046  -65.1366 H   0  0  0  1  0  0  0  0  0  0  0  0
   26.3830    2.8985  -55.4114 H   0  0  0  1  0  0  0  0  0  0  0  0
   27.6625    2.5217  -56.5398 H   0  0  0  1  0  0  0  0  0  0  0  0
   26.4085    1.3480  -56.2164 H   0  0  0  1  0  0  0  0  0  0  0  0
   22.0963    1.1843  -66.8514 H   0  0  0  1  0  0  0  0  0  0  0  0
   23.2483    0.6580  -68.0556 H   0  0  0  1  0  0  0  0  0  0  0  0
   21.4868   -0.4027  -68.7168 H   0  0  0  1  0  0  0  0  0  0  0  0
   19.8698   -1.5803  -70.0524 H   0  0  0  1  0  0  0  0  0  0  0  0
   18.6310    1.8940  -71.8016 H   0  0  0  1  0  0  0  0  0  0  0  0
   20.2057    3.1765  -70.5065 H   0  0  0  1  0  0  0  0  0  0  0  0
  1  3  4  0  0  0  0
  1 14  4  0  0  0  0
  1 21  1  0  0  0  0
  2 14  4  0  0  0  0
  2 15  4  0  0  0  0
  2 30  1  0  0  0  0
  3 16  4  0  0  0  0
  4  5  4  0  0  0  0
  4  7  4  0  0  0  0
  4 17  1  0  0  0  0
  5  9  4  0  0  0  0
  5 31  1  0  0  0  0
  6  7  4  0  0  0  0
  6  8  4  0  0  0  0
  6 32  1  0  0  0  0
  7 33  1  0  0  0  0
  8  9  4  0  0  0  0
  8 20  1  0  0  0  0
  9 34  1  0  0  0  0
 10 11  1  0  0  0  0
 10 21  1  0  0  0  0
 10 24  1  0  0  0  0
 10 35  1  0  0  0  0
 11 12  1  0  0  0  0
 11 36  1  0  0  0  0
 11 37  1  0  0  0  0
 12 23  1  0  0  0  0
 12 38  1  0  0  0  0
 12 39  1  0  0  0  0
 13 23  1  0  0  0  0
 13 25  4  0  0  0  0
 13 29  4  0  0  0  0
 15 16  4  0  0  0  0
 15 18  4  0  0  0  0
 16 17  4  0  0  0  0
 17 19  4  0  0  0  0
 18 19  4  0  0  0  0
 20 22  1  0  0  0  0
 21 40  1  0  0  0  0
 22 41  1  0  0  0  0
 22 42  1  0  0  0  0
 22 43  1  0  0  0  0
 23 24  1  0  0  0  0
 24 44  1  0  0  0  0
 24 45  1  0  0  0  0
 25 26  4  0  0  0  0
 25 46  1  0  0  0  0
 26 27  4  0  0  0  0
 26 47  1  0  0  0  0
 27 28  4  0  0  0  0
 28 29  4  0  0  0  0
 28 48  1  0  0  0  0
 29 49  1  0  0  0  0
M  END
> <ConfClashScore>
0 

> <ConfOneFourInteractionScore>
-0.984874 

> <ConfScore>
-0.0368229 

> <ConfScorePBest>
0.00476611 

> <ConfTolerance>
0.416816 

> <HETNAM>
     OWQ A 303  OWQ                                                       

> <pdb_OW>
Q_303 -16.5129 3.80749 7.62812 0.15963 1.39178 -0.28144 -3.20151 0 0 0 -1.30514 0 0 0 0 0 0 0 0 -8.31393

$$$$
6yky_lig_1.pdb
 OpenBabel04162415593D

 49 53  0  0  0  0  0  0  0  0999 V2000
   25.1046    1.8132  -65.3759 C   0  0  0  1  0  0  0  0  0  0  0  0
   26.9167    0.5034  -65.9326 C   0  0  0  1  0  0  0  0  0  0  0  0
   25.4176    1.8280  -64.0982 N   0  0  0  1  0  0  0  0  0  0  0  0
   26.7284    1.4697  -61.1390 C   0  0  0  1  0  0  0  0  0  0  0  0
   26.9700    0.6772  -60.0328 C   0  0  0  1  0  0  0  0  0  0  0  0
   25.6386    3.0872  -59.7450 C   0  0  0  1  0  0  0  0  0  0  0  0
   26.0594    2.6751  -60.9954 C   0  0  0  1  0  0  0  0  0  0  0  0
   25.8810    2.2925  -58.6354 C   0  0  0  1  0  0  0  0  0  0  0  0
   26.5481    1.0905  -58.7788 C   0  0  0  1  0  0  0  0  0  0  0  0
   23.0245    3.2085  -64.9785 C   0  0  0  1  0  0  0  0  0  0  0  0
   21.7653    3.5454  -65.8078 C   0  0  0  1  0  0  0  0  0  0  0  0
   21.3465    4.9485  -65.4477 C   0  0  0  1  0  0  0  0  0  0  0  0
   22.7466    6.7971  -64.2738 C   0  0  0  1  0  0  0  0  0  0  0  0
   25.8296    1.1705  -66.2748 N   0  0  0  1  0  0  0  0  0  0  0  0
   27.2964    0.4857  -64.5857 C   0  0  0  1  0  0  0  0  0  0  0  0
   26.4935    1.1849  -63.6614 C   0  0  0  1  0  0  0  0  0  0  0  0
   27.0808    1.0059  -62.4395 N   0  0  0  1  0  0  0  0  0  0  0  0
   28.3159   -0.0766  -63.9004 N   0  0  0  1  0  0  0  0  0  0  0  0
   28.2164    0.2092  -62.6490 N   0  0  0  1  0  0  0  0  0  0  0  0
   25.3899    2.6069  -57.4131 O   0  0  0  1  0  0  0  0  0  0  0  0
   24.0072    2.4758  -65.7837 N   0  0  0  1  0  0  0  0  0  0  0  0
   24.6557    3.8358  -57.2972 C   0  0  0  1  0  0  0  0  0  0  0  0
   22.6146    5.4661  -64.7341 N   0  0  0  1  0  0  0  0  0  0  0  0
   23.5463    4.5787  -64.5930 C   0  0  0  1  0  0  0  0  0  0  0  0
   21.7404    7.7205  -64.4893 C   0  0  0  1  0  0  0  0  0  0  0  0
   21.9089    9.0091  -64.0192 C   0  0  0  1  0  0  0  0  0  0  0  0
   23.0012    9.4157  -63.3652 N   0  0  0  1  0  0  0  0  0  0  0  0
   23.9706    8.5112  -63.1670 C   0  0  0  1  0  0  0  0  0  0  0  0
   23.8833    7.1996  -63.6003 C   0  0  0  1  0  0  0  0  0  0  0  0
   27.4790    0.0014  -66.6492 H   0  0  0  1  0  0  0  0  0  0  0  0
   27.4685   -0.2292  -60.1412 H   0  0  0  1  0  0  0  0  0  0  0  0
   25.1403    3.9936  -59.6367 H   0  0  0  1  0  0  0  0  0  0  0  0
   25.8740    3.2695  -61.8284 H   0  0  0  1  0  0  0  0  0  0  0  0
   26.7335    0.4961  -57.9458 H   0  0  0  1  0  0  0  0  0  0  0  0
   22.7730    2.6336  -64.1118 H   0  0  0  1  0  0  0  0  0  0  0  0
   21.9900    3.4882  -66.8523 H   0  0  0  1  0  0  0  0  0  0  0  0
   20.9792    2.8583  -65.5734 H   0  0  0  1  0  0  0  0  0  0  0  0
   20.5003    4.9492  -64.7928 H   0  0  0  1  0  0  0  0  0  0  0  0
   21.1238    5.5271  -66.3198 H   0  0  0  1  0  0  0  0  0  0  0  0
   23.8420    2.4678  -66.7496 H   0  0  0  1  0  0  0  0  0  0  0  0
   24.5460    4.0902  -56.2638 H   0  0  0  1  0  0  0  0  0  0  0  0
   23.6888    3.7163  -57.7394 H   0  0  0  1  0  0  0  0  0  0  0  0
   25.1854    4.6164  -57.8021 H   0  0  0  1  0  0  0  0  0  0  0  0
   23.8661    4.5608  -63.5720 H   0  0  0  1  0  0  0  0  0  0  0  0
   24.3740    4.8317  -65.2222 H   0  0  0  1  0  0  0  0  0  0  0  0
   20.8730    7.4505  -64.9956 H   0  0  0  1  0  0  0  0  0  0  0  0
   21.1468    9.6976  -64.1828 H   0  0  0  1  0  0  0  0  0  0  0  0
   24.8302    8.8095  -62.6633 H   0  0  0  1  0  0  0  0  0  0  0  0
   24.6587    6.5299  -63.4220 H   0  0  0  1  0  0  0  0  0  0  0  0
  1  3  4  0  0  0  0
  1 14  4  0  0  0  0
  1 21  1  0  0  0  0
  2 14  4  0  0  0  0
  2 15  4  0  0  0  0
  2 30  1  0  0  0  0
  3 16  4  0  0  0  0
  4  5  4  0  0  0  0
  4  7  4  0  0  0  0
  4 17  1  0  0  0  0
  5  9  4  0  0  0  0
  5 31  1  0  0  0  0
  6  7  4  0  0  0  0
  6  8  4  0  0  0  0
  6 32  1  0  0  0  0
  7 33  1  0  0  0  0
  8  9  4  0  0  0  0
  8 20  1  0  0  0  0
  9 34  1  0  0  0  0
 10 11  1  0  0  0  0
 10 21  1  0  0  0  0
 10 24  1  0  0  0  0
 10 35  1  0  0  0  0
 11 12  1  0  0  0  0
 11 36  1  0  0  0  0
 11 37  1  0  0  0  0
 12 23  1  0  0  0  0
 12 38  1  0  0  0  0
 12 39  1  0  0  0  0
 13 23  1  0  0  0  0
 13 25  4  0  0  0  0
 13 29  4  0  0  0  0
 15 16  4  0  0  0  0
 15 18  4  0  0  0  0
 16 17  4  0  0  0  0
 17 19  4  0  0  0  0
 18 19  4  0  0  0  0
 20 22  1  0  0  0  0
 21 40  1  0  0  0  0
 22 41  1  0  0  0  0
 22 42  1  0  0  0  0
 22 43  1  0  0  0  0
 23 24  1  0  0  0  0
 24 44  1  0  0  0  0
 24 45  1  0  0  0  0
 25 26  4  0  0  0  0
 25 46  1  0  0  0  0
 26 27  4  0  0  0  0
 26 47  1  0  0  0  0
 27 28  4  0  0  0  0
 28 29  4  0  0  0  0
 28 48  1  0  0  0  0
 29 49  1  0  0  0  0
M  END
> <ConfClashScore>
0 

> <ConfOneFourInteractionScore>
-0.984874 

> <ConfScore>
-0.0367398 

> <ConfScorePBest>
0.00475278 

> <ConfTolerance>
0.466667 

> <HETNAM>
     OWQ A 303  OWQ                                                       

> <pdb_OW>
Q_303 -16.5129 3.80749 7.62812 0.15963 1.39178 -0.28144 -3.20151 0 0 0 -1.30514 0 0 0 0 0 0 0 0 -8.31393

$$$$
6yky_lig_1.pdb
 OpenBabel04162415593D

 49 53  0  0  0  0  0  0  0  0999 V2000
   25.1047    1.8135  -65.3760 C   0  0  0  1  0  0  0  0  0  0  0  0
   26.9167    0.5034  -65.9326 C   0  0  0  1  0  0  0  0  0  0  0  0
   25.4177    1.8283  -64.0982 N   0  0  0  1  0  0  0  0  0  0  0  0
   26.7285    1.4698  -61.1391 C   0  0  0  1  0  0  0  0  0  0  0  0
   27.0248    0.7039  -60.0274 C   0  0  0  1  0  0  0  0  0  0  0  0
   25.5876    3.0533  -59.7468 C   0  0  0  1  0  0  0  0  0  0  0  0
   26.0066    2.6449  -60.9990 C   0  0  0  1  0  0  0  0  0  0  0  0
   25.8847    2.2850  -58.6317 C   0  0  0  1  0  0  0  0  0  0  0  0
   26.6045    1.1135  -58.7717 C   0  0  0  1  0  0  0  0  0  0  0  0
   23.2257    3.3269  -64.8295 C   0  0  0  1  0  0  0  0  0  0  0  0
   21.8204    3.5680  -65.3692 C   0  0  0  1  0  0  0  0  0  0  0  0
   22.0047    4.6884  -66.4010 C   0  0  0  1  0  0  0  0  0  0  0  0
   23.6913    6.5965  -66.4824 C   0  0  0  1  0  0  0  0  0  0  0  0
   25.8296    1.1707  -66.2747 N   0  0  0  1  0  0  0  0  0  0  0  0
   27.2964    0.4857  -64.5858 C   0  0  0  1  0  0  0  0  0  0  0  0
   26.4936    1.1851  -63.6614 C   0  0  0  1  0  0  0  0  0  0  0  0
   27.0809    1.0061  -62.4395 N   0  0  0  1  0  0  0  0  0  0  0  0
   28.3158   -0.0766  -63.9004 N   0  0  0  1  0  0  0  0  0  0  0  0
   28.2164    0.2092  -62.6490 N   0  0  0  1  0  0  0  0  0  0  0  0
   25.4183    2.7820  -57.4615 O   0  0  0  1  0  0  0  0  0  0  0  0
   23.9950    2.4928  -65.7365 N   0  0  0  1  0  0  0  0  0  0  0  0
   25.6939    2.0265  -56.2716 C   0  0  0  1  0  0  0  0  0  0  0  0
   23.1961    5.4025  -65.9080 N   0  0  0  1  0  0  0  0  0  0  0  0
   23.8158    4.7309  -64.7457 C   0  0  0  1  0  0  0  0  0  0  0  0
   22.9913    7.2382  -67.4872 C   0  0  0  1  0  0  0  0  0  0  0  0
   23.5092    8.4045  -68.0177 C   0  0  0  1  0  0  0  0  0  0  0  0
   24.6603    8.9488  -67.6116 N   0  0  0  1  0  0  0  0  0  0  0  0
   25.3306    8.3137  -66.6397 C   0  0  0  1  0  0  0  0  0  0  0  0
   24.8835    7.1441  -66.0503 C   0  0  0  1  0  0  0  0  0  0  0  0
   27.4789    0.0014  -66.6492 H   0  0  0  1  0  0  0  0  0  0  0  0
   27.5630   -0.1797  -60.1331 H   0  0  0  1  0  0  0  0  0  0  0  0
   25.0494    3.9369  -59.6410 H   0  0  0  1  0  0  0  0  0  0  0  0
   25.7802    3.2191  -61.8360 H   0  0  0  1  0  0  0  0  0  0  0  0
   26.8309    0.5392  -57.9346 H   0  0  0  1  0  0  0  0  0  0  0  0
   23.1916    2.8674  -63.8639 H   0  0  0  1  0  0  0  0  0  0  0  0
   21.4345    2.6843  -65.8328 H   0  0  0  1  0  0  0  0  0  0  0  0
   21.1606    3.8777  -64.5859 H   0  0  0  1  0  0  0  0  0  0  0  0
   22.1745    4.2868  -67.3781 H   0  0  0  1  0  0  0  0  0  0  0  0
   21.1517    5.3342  -66.4235 H   0  0  0  1  0  0  0  0  0  0  0  0
   23.6905    2.4188  -66.6651 H   0  0  0  1  0  0  0  0  0  0  0  0
   25.1553    2.4475  -55.4485 H   0  0  0  1  0  0  0  0  0  0  0  0
   26.7431    2.0580  -56.0643 H   0  0  0  1  0  0  0  0  0  0  0  0
   25.3886    1.0111  -56.4154 H   0  0  0  1  0  0  0  0  0  0  0  0
   24.8819    4.7090  -64.8338 H   0  0  0  1  0  0  0  0  0  0  0  0
   23.5430    5.2117  -63.8295 H   0  0  0  1  0  0  0  0  0  0  0  0
   22.0919    6.8506  -67.8373 H   0  0  0  1  0  0  0  0  0  0  0  0
   22.9760    8.8831  -68.7715 H   0  0  0  1  0  0  0  0  0  0  0  0
   26.2306    8.7198  -66.3127 H   0  0  0  1  0  0  0  0  0  0  0  0
   25.4346    6.6861  -65.2966 H   0  0  0  1  0  0  0  0  0  0  0  0
  1  3  4  0  0  0  0
  1 14  4  0  0  0  0
  1 21  1  0  0  0  0
  2 14  4  0  0  0  0
  2 15  4  0  0  0  0
  2 30  1  0  0  0  0
  3 16  4  0  0  0  0
  4  5  4  0  0  0  0
  4  7  4  0  0  0  0
  4 17  1  0  0  0  0
  5  9  4  0  0  0  0
  5 31  1  0  0  0  0
  6  7  4  0  0  0  0
  6  8  4  0  0  0  0
  6 32  1  0  0  0  0
  7 33  1  0  0  0  0
  8  9  4  0  0  0  0
  8 20  1  0  0  0  0
  9 34  1  0  0  0  0
 10 11  1  0  0  0  0
 10 21  1  0  0  0  0
 10 24  1  0  0  0  0
 10 35  1  0  0  0  0
 11 12  1  0  0  0  0
 11 36  1  0  0  0  0
 11 37  1  0  0  0  0
 12 23  1  0  0  0  0
 12 38  1  0  0  0  0
 12 39  1  0  0  0  0
 13 23  1  0  0  0  0
 13 25  4  0  0  0  0
 13 29  4  0  0  0  0
 15 16  4  0  0  0  0
 15 18  4  0  0  0  0
 16 17  4  0  0  0  0
 17 19  4  0  0  0  0
 18 19  4  0  0  0  0
 20 22  1  0  0  0  0
 21 40  1  0  0  0  0
 22 41  1  0  0  0  0
 22 42  1  0  0  0  0
 22 43  1  0  0  0  0
 23 24  1  0  0  0  0
 24 44  1  0  0  0  0
 24 45  1  0  0  0  0
 25 26  4  0  0  0  0
 25 46  1  0  0  0  0
 26 27  4  0  0  0  0
 26 47  1  0  0  0  0
 27 28  4  0  0  0  0
 28 29  4  0  0  0  0
 28 48  1  0  0  0  0
 29 49  1  0  0  0  0
M  END
> <ConfClashScore>
0 

> <ConfOneFourInteractionScore>
-0.984874 

> <ConfScore>
-0.0341279 

> <ConfScorePBest>
0.00473946 

> <ConfTolerance>
0.587883 

> <HETNAM>
     OWQ A 303  OWQ                                                       

> <pdb_OW>
Q_303 -16.5129 3.80749 7.62812 0.15963 1.39178 -0.28144 -3.20151 0 0 0 -1.30514 0 0 0 0 0 0 0 0 -8.31393

$$$$
6yky_lig_1.pdb
 OpenBabel04162415593D

 49 53  0  0  0  0  0  0  0  0999 V2000
   25.1048    1.8136  -65.3759 C   0  0  0  1  0  0  0  0  0  0  0  0
   26.9167    0.5034  -65.9326 C   0  0  0  1  0  0  0  0  0  0  0  0
   25.4179    1.8284  -64.0982 N   0  0  0  1  0  0  0  0  0  0  0  0
   26.7287    1.4699  -61.1390 C   0  0  0  1  0  0  0  0  0  0  0  0
   27.0558    0.7204  -60.0249 C   0  0  0  1  0  0  0  0  0  0  0  0
   25.5591    3.0326  -59.7471 C   0  0  0  1  0  0  0  0  0  0  0  0
   25.9769    2.6263  -61.0004 C   0  0  0  1  0  0  0  0  0  0  0  0
   25.8872    2.2809  -58.6295 C   0  0  0  1  0  0  0  0  0  0  0  0
   26.6367    1.1279  -58.7680 C   0  0  0  1  0  0  0  0  0  0  0  0
   23.1223    3.1204  -64.7538 C   0  0  0  1  0  0  0  0  0  0  0  0
   22.0633    2.1256  -64.2031 C   0  0  0  1  0  0  0  0  0  0  0  0
   20.8332    2.9504  -63.7700 C   0  0  0  1  0  0  0  0  0  0  0  0
   20.2754    5.3812  -64.2727 C   0  0  0  1  0  0  0  0  0  0  0  0
   25.8296    1.1708  -66.2747 N   0  0  0  1  0  0  0  0  0  0  0  0
   27.2965    0.4858  -64.5857 C   0  0  0  1  0  0  0  0  0  0  0  0
   26.4936    1.1852  -63.6613 C   0  0  0  1  0  0  0  0  0  0  0  0
   27.0810    1.0061  -62.4394 N   0  0  0  1  0  0  0  0  0  0  0  0
   28.3159   -0.0766  -63.9004 N   0  0  0  1  0  0  0  0  0  0  0  0
   28.2164    0.2092  -62.6490 N   0  0  0  1  0  0  0  0  0  0  0  0
   25.4188    2.7738  -57.4583 O   0  0  0  1  0  0  0  0  0  0  0  0
   23.9888    2.4968  -65.7384 N   0  0  0  1  0  0  0  0  0  0  0  0
   25.8042    2.0880  -56.2568 C   0  0  0  1  0  0  0  0  0  0  0  0
   21.0465    4.2500  -64.4677 N   0  0  0  1  0  0  0  0  0  0  0  0
   22.1889    4.1669  -65.3925 C   0  0  0  1  0  0  0  0  0  0  0  0
   20.7537    6.4327  -63.5130 C   0  0  0  1  0  0  0  0  0  0  0  0
   19.9964    7.5850  -63.4214 C   0  0  0  1  0  0  0  0  0  0  0  0
   18.8161    7.7389  -64.0293 N   0  0  0  1  0  0  0  0  0  0  0  0
   18.3624    6.7098  -64.7590 C   0  0  0  1  0  0  0  0  0  0  0  0
   19.0568    5.5219  -64.9075 C   0  0  0  1  0  0  0  0  0  0  0  0
   27.4788    0.0013  -66.6491 H   0  0  0  1  0  0  0  0  0  0  0  0
   27.6165   -0.1494  -60.1295 H   0  0  0  1  0  0  0  0  0  0  0  0
   24.9985    3.9023  -59.6425 H   0  0  0  1  0  0  0  0  0  0  0  0
   25.7274    3.1881  -61.8392 H   0  0  0  1  0  0  0  0  0  0  0  0
   26.8863    0.5661  -57.9292 H   0  0  0  1  0  0  0  0  0  0  0  0
   23.7171    3.5425  -63.9709 H   0  0  0  1  0  0  0  0  0  0  0  0
   21.7855    1.4286  -64.9659 H   0  0  0  1  0  0  0  0  0  0  0  0
   22.4619    1.5959  -63.3632 H   0  0  0  1  0  0  0  0  0  0  0  0
   19.9247    2.4852  -64.0910 H   0  0  0  1  0  0  0  0  0  0  0  0
   20.8116    3.0819  -62.7084 H   0  0  0  1  0  0  0  0  0  0  0  0
   23.7623    2.5710  -66.6890 H   0  0  0  1  0  0  0  0  0  0  0  0
   25.0480    1.3789  -55.9920 H   0  0  0  1  0  0  0  0  0  0  0  0
   25.9216    2.7968  -55.4639 H   0  0  0  1  0  0  0  0  0  0  0  0
   26.7304    1.5773  -56.4194 H   0  0  0  1  0  0  0  0  0  0  0  0
   21.8686    3.8470  -66.3621 H   0  0  0  1  0  0  0  0  0  0  0  0
   22.6805    5.1138  -65.4731 H   0  0  0  1  0  0  0  0  0  0  0  0
   21.6663    6.3579  -63.0198 H   0  0  0  1  0  0  0  0  0  0  0  0
   20.3636    8.3727  -62.8503 H   0  0  0  1  0  0  0  0  0  0  0  0
   17.4439    6.8089  -65.2365 H   0  0  0  1  0  0  0  0  0  0  0  0
   18.6685    4.7500  -65.4862 H   0  0  0  1  0  0  0  0  0  0  0  0
  1  3  4  0  0  0  0
  1 14  4  0  0  0  0
  1 21  1  0  0  0  0
  2 14  4  0  0  0  0
  2 15  4  0  0  0  0
  2 30  1  0  0  0  0
  3 16  4  0  0  0  0
  4  5  4  0  0  0  0
  4  7  4  0  0  0  0
  4 17  1  0  0  0  0
  5  9  4  0  0  0  0
  5 31  1  0  0  0  0
  6  7  4  0  0  0  0
  6  8  4  0  0  0  0
  6 32  1  0  0  0  0
  7 33  1  0  0  0  0
  8  9  4  0  0  0  0
  8 20  1  0  0  0  0
  9 34  1  0  0  0  0
 10 11  1  0  0  0  0
 10 21  1  0  0  0  0
 10 24  1  0  0  0  0
 10 35  1  0  0  0  0
 11 12  1  0  0  0  0
 11 36  1  0  0  0  0
 11 37  1  0  0  0  0
 12 23  1  0  0  0  0
 12 38  1  0  0  0  0
 12 39  1  0  0  0  0
 13 23  1  0  0  0  0
 13 25  4  0  0  0  0
 13 29  4  0  0  0  0
 15 16  4  0  0  0  0
 15 18  4  0  0  0  0
 16 17  4  0  0  0  0
 17 19  4  0  0  0  0
 18 19  4  0  0  0  0
 20 22  1  0  0  0  0
 21 40  1  0  0  0  0
 22 41  1  0  0  0  0
 22 42  1  0  0  0  0
 22 43  1  0  0  0  0
 23 24  1  0  0  0  0
 24 44  1  0  0  0  0
 24 45  1  0  0  0  0
 25 26  4  0  0  0  0
 25 46  1  0  0  0  0
 26 27  4  0  0  0  0
 26 47  1  0  0  0  0
 27 28  4  0  0  0  0
 28 29  4  0  0  0  0
 28 48  1  0  0  0  0
 29 49  1  0  0  0  0
M  END
> <ConfClashScore>
0 

> <ConfOneFourInteractionScore>
-0.986948 

> <ConfScore>
-0.0293989 

> <ConfScorePBest>
0.00472613 

> <ConfTolerance>
0.364781 

> <HETNAM>
     OWQ A 303  OWQ                                                       

> <pdb_OW>
Q_303 -16.5129 3.80749 7.62812 0.15963 1.39178 -0.28144 -3.20151 0 0 0 -1.30514 0 0 0 0 0 0 0 0 -8.31393

$$$$
6yky_lig_1.pdb
 OpenBabel04162415593D

 49 53  0  0  0  0  0  0  0  0999 V2000
   25.1047    1.8135  -65.3758 C   0  0  0  1  0  0  0  0  0  0  0  0
   26.9167    0.5034  -65.9326 C   0  0  0  1  0  0  0  0  0  0  0  0
   25.4178    1.8283  -64.0981 N   0  0  0  1  0  0  0  0  0  0  0  0
   26.8386    1.5659  -61.1518 C   0  0  0  1  0  0  0  0  0  0  0  0
   27.0455    0.8055  -60.0164 C   0  0  0  1  0  0  0  0  0  0  0  0
   25.9893    3.3553  -59.8012 C   0  0  0  1  0  0  0  0  0  0  0  0
   26.3073    2.8418  -61.0443 C   0  0  0  1  0  0  0  0  0  0  0  0
   26.1968    2.5927  -58.6623 C   0  0  0  1  0  0  0  0  0  0  0  0
   26.7266    1.3207  -58.7697 C   0  0  0  1  0  0  0  0  0  0  0  0
   23.1169    3.1955  -64.8894 C   0  0  0  1  0  0  0  0  0  0  0  0
   21.9166    2.3563  -64.5624 C   0  0  0  1  0  0  0  0  0  0  0  0
   21.0225    2.5878  -65.8126 C   0  0  0  1  0  0  0  0  0  0  0  0
   20.6070    4.6970  -67.0444 C   0  0  0  1  0  0  0  0  0  0  0  0
   25.8296    1.1707  -66.2747 N   0  0  0  1  0  0  0  0  0  0  0  0
   27.2965    0.4858  -64.5857 C   0  0  0  1  0  0  0  0  0  0  0  0
   26.4937    1.1852  -63.6613 C   0  0  0  1  0  0  0  0  0  0  0  0
   27.0810    1.0060  -62.4394 N   0  0  0  1  0  0  0  0  0  0  0  0
   28.3159   -0.0766  -63.9004 N   0  0  0  1  0  0  0  0  0  0  0  0
   28.2164    0.2092  -62.6490 N   0  0  0  1  0  0  0  0  0  0  0  0
   25.9737    3.1199  -57.4529 O   0  0  0  1  0  0  0  0  0  0  0  0
   24.0074    2.4762  -65.7836 N   0  0  0  1  0  0  0  0  0  0  0  0
   25.9806    2.2953  -56.2393 C   0  0  0  1  0  0  0  0  0  0  0  0
   21.3693    3.9363  -66.1784 N   0  0  0  1  0  0  0  0  0  0  0  0
   22.5867    4.4297  -65.5619 C   0  0  0  1  0  0  0  0  0  0  0  0
   19.5845    5.4641  -66.5175 C   0  0  0  1  0  0  0  0  0  0  0  0
   18.7603    6.1580  -67.3828 C   0  0  0  1  0  0  0  0  0  0  0  0
   18.8966    6.1257  -68.7120 N   0  0  0  1  0  0  0  0  0  0  0  0
   19.8893    5.3744  -69.2094 C   0  0  0  1  0  0  0  0  0  0  0  0
   20.7625    4.6508  -68.4161 C   0  0  0  1  0  0  0  0  0  0  0  0
   27.4789    0.0014  -66.6492 H   0  0  0  1  0  0  0  0  0  0  0  0
   27.4404   -0.1532  -60.0974 H   0  0  0  1  0  0  0  0  0  0  0  0
   25.5944    4.3141  -59.7202 H   0  0  0  1  0  0  0  0  0  0  0  0
   26.1478    3.4124  -61.8991 H   0  0  0  1  0  0  0  0  0  0  0  0
   26.8860    0.7500  -57.9150 H   0  0  0  1  0  0  0  0  0  0  0  0
   23.6431    3.4561  -63.9949 H   0  0  0  1  0  0  0  0  0  0  0  0
   21.4345    2.6958  -63.6696 H   0  0  0  1  0  0  0  0  0  0  0  0
   22.1792    1.3245  -64.4562 H   0  0  0  1  0  0  0  0  0  0  0  0
   19.9838    2.5055  -65.5689 H   0  0  0  1  0  0  0  0  0  0  0  0
   21.2614    1.8983  -66.5951 H   0  0  0  1  0  0  0  0  0  0  0  0
   23.7962    2.4736  -66.7405 H   0  0  0  1  0  0  0  0  0  0  0  0
   24.9970    1.9136  -56.0612 H   0  0  0  1  0  0  0  0  0  0  0  0
   26.2880    2.8910  -55.4054 H   0  0  0  1  0  0  0  0  0  0  0  0
   26.6618    1.4800  -56.3662 H   0  0  0  1  0  0  0  0  0  0  0  0
   23.2728    4.7978  -66.2958 H   0  0  0  1  0  0  0  0  0  0  0  0
   22.3772    5.2008  -64.8503 H   0  0  0  1  0  0  0  0  0  0  0  0
   19.4384    5.5179  -65.4892 H   0  0  0  1  0  0  0  0  0  0  0  0
   17.9950    6.7349  -66.9792 H   0  0  0  1  0  0  0  0  0  0  0  0
   20.0091    5.3334  -70.2416 H   0  0  0  1  0  0  0  0  0  0  0  0
   21.5212    4.0831  -68.8446 H   0  0  0  1  0  0  0  0  0  0  0  0
  1  3  4  0  0  0  0
  1 14  4  0  0  0  0
  1 21  1  0  0  0  0
  2 14  4  0  0  0  0
  2 15  4  0  0  0  0
  2 30  1  0  0  0  0
  3 16  4  0  0  0  0
  4  5  4  0  0  0  0
  4  7  4  0  0  0  0
  4 17  1  0  0  0  0
  5  9  4  0  0  0  0
  5 31  1  0  0  0  0
  6  7  4  0  0  0  0
  6  8  4  0  0  0  0
  6 32  1  0  0  0  0
  7 33  1  0  0  0  0
  8  9  4  0  0  0  0
  8 20  1  0  0  0  0
  9 34  1  0  0  0  0
 10 11  1  0  0  0  0
 10 21  1  0  0  0  0
 10 24  1  0  0  0  0
 10 35  1  0  0  0  0
 11 12  1  0  0  0  0
 11 36  1  0  0  0  0
 11 37  1  0  0  0  0
 12 23  1  0  0  0  0
 12 38  1  0  0  0  0
 12 39  1  0  0  0  0
 13 23  1  0  0  0  0
 13 25  4  0  0  0  0
 13 29  4  0  0  0  0
 15 16  4  0  0  0  0
 15 18  4  0  0  0  0
 16 17  4  0  0  0  0
 17 19  4  0  0  0  0
 18 19  4  0  0  0  0
 20 22  1  0  0  0  0
 21 40  1  0  0  0  0
 22 41  1  0  0  0  0
 22 42  1  0  0  0  0
 22 43  1  0  0  0  0
 23 24  1  0  0  0  0
 24 44  1  0  0  0  0
 24 45  1  0  0  0  0
 25 26  4  0  0  0  0
 25 46  1  0  0  0  0
 26 27  4  0  0  0  0
 26 47  1  0  0  0  0
 27 28  4  0  0  0  0
 28 29  4  0  0  0  0
 28 48  1  0  0  0  0
 29 49  1  0  0  0  0
M  END
> <ConfClashScore>
0 

> <ConfOneFourInteractionScore>
-0.986948 

> <ConfScore>
-0.0291748 

> <ConfScorePBest>
0.0047128 

> <ConfTolerance>
0.500976 

> <HETNAM>
     OWQ A 303  OWQ                                                       

> <pdb_OW>
Q_303 -16.5129 3.80749 7.62812 0.15963 1.39178 -0.28144 -3.20151 0 0 0 -1.30514 0 0 0 0 0 0 0 0 -8.31393

$$$$
6yky_lig_1.pdb
 OpenBabel04162415593D

 49 53  0  0  0  0  0  0  0  0999 V2000
   25.1048    1.8136  -65.3759 C   0  0  0  1  0  0  0  0  0  0  0  0
   26.9167    0.5034  -65.9326 C   0  0  0  1  0  0  0  0  0  0  0  0
   25.4179    1.8285  -64.0983 N   0  0  0  1  0  0  0  0  0  0  0  0
   26.7519    1.5718  -61.1737 C   0  0  0  1  0  0  0  0  0  0  0  0
   25.7391    2.5071  -61.0759 C   0  0  0  1  0  0  0  0  0  0  0  0
   27.2493    1.8639  -58.8468 C   0  0  0  1  0  0  0  0  0  0  0  0
   27.5099    1.2516  -60.0582 C   0  0  0  1  0  0  0  0  0  0  0  0
   26.2335    2.8020  -58.7486 C   0  0  0  1  0  0  0  0  0  0  0  0
   25.4778    3.1211  -59.8610 C   0  0  0  1  0  0  0  0  0  0  0  0
   23.1232    3.1736  -64.8507 C   0  0  0  1  0  0  0  0  0  0  0  0
   22.0526    3.9255  -65.5858 C   0  0  0  1  0  0  0  0  0  0  0  0
   22.8070    5.2194  -66.0009 C   0  0  0  1  0  0  0  0  0  0  0  0
   24.4216    6.5959  -64.6672 C   0  0  0  1  0  0  0  0  0  0  0  0
   25.8297    1.1708  -66.2748 N   0  0  0  1  0  0  0  0  0  0  0  0
   27.2964    0.4857  -64.5857 C   0  0  0  1  0  0  0  0  0  0  0  0
   26.4937    1.1853  -63.6614 C   0  0  0  1  0  0  0  0  0  0  0  0
   27.0810    1.0062  -62.4395 N   0  0  0  1  0  0  0  0  0  0  0  0
   28.3159   -0.0766  -63.9004 N   0  0  0  1  0  0  0  0  0  0  0  0
   28.2164    0.2092  -62.6490 N   0  0  0  1  0  0  0  0  0  0  0  0
   26.0754    3.3364  -57.5180 O   0  0  0  1  0  0  0  0  0  0  0  0
   23.9920    2.4858  -65.7895 N   0  0  0  1  0  0  0  0  0  0  0  0
   25.1630    4.4438  -57.3342 C   0  0  0  1  0  0  0  0  0  0  0  0
   23.7323    5.3850  -64.9104 N   0  0  0  1  0  0  0  0  0  0  0  0
   23.8983    4.2054  -64.0817 C   0  0  0  1  0  0  0  0  0  0  0  0
   23.8527    7.5868  -63.8887 C   0  0  0  1  0  0  0  0  0  0  0  0
   24.5626    8.7527  -63.6732 C   0  0  0  1  0  0  0  0  0  0  0  0
   25.7776    8.9780  -64.1826 N   0  0  0  1  0  0  0  0  0  0  0  0
   26.3153    8.0106  -64.9391 C   0  0  0  1  0  0  0  0  0  0  0  0
   25.6764    6.8116  -65.2027 C   0  0  0  1  0  0  0  0  0  0  0  0
   27.4788    0.0013  -66.6491 H   0  0  0  1  0  0  0  0  0  0  0  0
   25.1730    2.7501  -61.9138 H   0  0  0  1  0  0  0  0  0  0  0  0
   27.8154    1.6208  -58.0089 H   0  0  0  1  0  0  0  0  0  0  0  0
   28.2747    0.5508  -60.1329 H   0  0  0  1  0  0  0  0  0  0  0  0
   24.7131    3.8219  -59.7865 H   0  0  0  1  0  0  0  0  0  0  0  0
   22.6856    2.4622  -64.1819 H   0  0  0  1  0  0  0  0  0  0  0  0
   21.2223    4.1457  -64.9477 H   0  0  0  1  0  0  0  0  0  0  0  0
   21.7111    3.3814  -66.4415 H   0  0  0  1  0  0  0  0  0  0  0  0
   23.3203    5.0895  -66.9306 H   0  0  0  1  0  0  0  0  0  0  0  0
   22.1395    6.0524  -66.0749 H   0  0  0  1  0  0  0  0  0  0  0  0
   23.7733    2.5050  -66.7445 H   0  0  0  1  0  0  0  0  0  0  0  0
   24.1720    4.1375  -57.5971 H   0  0  0  1  0  0  0  0  0  0  0  0
   25.4617    5.2592  -57.9595 H   0  0  0  1  0  0  0  0  0  0  0  0
   25.1805    4.7539  -56.3103 H   0  0  0  1  0  0  0  0  0  0  0  0
   24.9294    3.9328  -63.9954 H   0  0  0  1  0  0  0  0  0  0  0  0
   23.4853    4.3545  -63.1059 H   0  0  0  1  0  0  0  0  0  0  0  0
   22.9082    7.4572  -63.4730 H   0  0  0  1  0  0  0  0  0  0  0  0
   24.1295    9.4925  -63.0846 H   0  0  0  1  0  0  0  0  0  0  0  0
   27.2585    8.1689  -65.3476 H   0  0  0  1  0  0  0  0  0  0  0  0
   26.1324    6.0868  -65.7930 H   0  0  0  1  0  0  0  0  0  0  0  0
  1  3  4  0  0  0  0
  1 14  4  0  0  0  0
  1 21  1  0  0  0  0
  2 14  4  0  0  0  0
  2 15  4  0  0  0  0
  2 30  1  0  0  0  0
  3 16  4  0  0  0  0
  4  5  4  0  0  0  0
  4  7  4  0  0  0  0
  4 17  1  0  0  0  0
  5  9  4  0  0  0  0
  5 31  1  0  0  0  0
  6  7  4  0  0  0  0
  6  8  4  0  0  0  0
  6 32  1  0  0  0  0
  7 33  1  0  0  0  0
  8  9  4  0  0  0  0
  8 20  1  0  0  0  0
  9 34  1  0  0  0  0
 10 11  1  0  0  0  0
 10 21  1  0  0  0  0
 10 24  1  0  0  0  0
 10 35  1  0  0  0  0
 11 12  1  0  0  0  0
 11 36  1  0  0  0  0
 11 37  1  0  0  0  0
 12 23  1  0  0  0  0
 12 38  1  0  0  0  0
 12 39  1  0  0  0  0
 13 23  1  0  0  0  0
 13 25  4  0  0  0  0
 13 29  4  0  0  0  0
 15 16  4  0  0  0  0
 15 18  4  0  0  0  0
 16 17  4  0  0  0  0
 17 19  4  0  0  0  0
 18 19  4  0  0  0  0
 20 22  1  0  0  0  0
 21 40  1  0  0  0  0
 22 41  1  0  0  0  0
 22 42  1  0  0  0  0
 22 43  1  0  0  0  0
 23 24  1  0  0  0  0
 24 44  1  0  0  0  0
 24 45  1  0  0  0  0
 25 26  4  0  0  0  0
 25 46  1  0  0  0  0
 26 27  4  0  0  0  0
 26 47  1  0  0  0  0
 27 28  4  0  0  0  0
 28 29  4  0  0  0  0
 28 48  1  0  0  0  0
 29 49  1  0  0  0  0
M  END
> <ConfClashScore>
0 

> <ConfOneFourInteractionScore>
-0.984874 

> <ConfScore>
-0.0285649 

> <ConfScorePBest>
0.00469947 

> <ConfTolerance>
0.521579 

> <HETNAM>
     OWQ A 303  OWQ                                                       

> <pdb_OW>
Q_303 -16.5129 3.80749 7.62812 0.15963 1.39178 -0.28144 -3.20151 0 0 0 -1.30514 0 0 0 0 0 0 0 0 -8.31393

$$$$
6yky_lig_1.pdb
 OpenBabel04162415593D

 49 53  0  0  0  0  0  0  0  0999 V2000
   25.1046    1.8133  -65.3759 C   0  0  0  1  0  0  0  0  0  0  0  0
   26.9167    0.5034  -65.9326 C   0  0  0  1  0  0  0  0  0  0  0  0
   25.4176    1.8281  -64.0982 N   0  0  0  1  0  0  0  0  0  0  0  0
   26.7668    1.4471  -61.1214 C   0  0  0  1  0  0  0  0  0  0  0  0
   27.7199    2.1875  -60.4481 C   0  0  0  1  0  0  0  0  0  0  0  0
   25.3753    1.4585  -59.1693 C   0  0  0  1  0  0  0  0  0  0  0  0
   25.5939    1.0797  -60.4804 C   0  0  0  1  0  0  0  0  0  0  0  0
   26.3312    2.2012  -58.4937 C   0  0  0  1  0  0  0  0  0  0  0  0
   27.5006    2.5674  -59.1331 C   0  0  0  1  0  0  0  0  0  0  0  0
   23.2745    3.3868  -64.8669 C   0  0  0  1  0  0  0  0  0  0  0  0
   21.8798    3.7697  -65.4101 C   0  0  0  1  0  0  0  0  0  0  0  0
   21.6643    5.2329  -65.1165 C   0  0  0  1  0  0  0  0  0  0  0  0
   23.4341    7.0174  -64.5140 C   0  0  0  1  0  0  0  0  0  0  0  0
   25.8296    1.1705  -66.2748 N   0  0  0  1  0  0  0  0  0  0  0  0
   27.2965    0.4857  -64.5857 C   0  0  0  1  0  0  0  0  0  0  0  0
   26.4935    1.1851  -63.6614 C   0  0  0  1  0  0  0  0  0  0  0  0
   27.0808    1.0060  -62.4395 N   0  0  0  1  0  0  0  0  0  0  0  0
   28.3159   -0.0766  -63.9004 N   0  0  0  1  0  0  0  0  0  0  0  0
   28.2164    0.2092  -62.6490 N   0  0  0  1  0  0  0  0  0  0  0  0
   26.0094    2.5085  -57.2147 O   0  0  0  1  0  0  0  0  0  0  0  0
   23.9765    2.4945  -65.7951 N   0  0  0  1  0  0  0  0  0  0  0  0
   27.0439    3.0763  -56.3961 C   0  0  0  1  0  0  0  0  0  0  0  0
   23.1017    5.6862  -64.7801 N   0  0  0  1  0  0  0  0  0  0  0  0
   23.9727    4.7286  -64.7654 C   0  0  0  1  0  0  0  0  0  0  0  0
   23.4131    7.5039  -63.2200 C   0  0  0  1  0  0  0  0  0  0  0  0
   23.7527    8.8255  -63.0012 C   0  0  0  1  0  0  0  0  0  0  0  0
   24.1002    9.6667  -63.9799 N   0  0  0  1  0  0  0  0  0  0  0  0
   24.1122    9.1827  -65.2301 C   0  0  0  1  0  0  0  0  0  0  0  0
   23.7901    7.8726  -65.5385 C   0  0  0  1  0  0  0  0  0  0  0  0
   27.4790    0.0014  -66.6492 H   0  0  0  1  0  0  0  0  0  0  0  0
   28.6015    2.4597  -60.9278 H   0  0  0  1  0  0  0  0  0  0  0  0
   24.4937    1.1864  -58.6895 H   0  0  0  1  0  0  0  0  0  0  0  0
   24.8785    0.5192  -60.9859 H   0  0  0  1  0  0  0  0  0  0  0  0
   28.2159    3.1280  -58.6277 H   0  0  0  1  0  0  0  0  0  0  0  0
   23.1994    2.9175  -63.9082 H   0  0  0  1  0  0  0  0  0  0  0  0
   21.1260    3.1852  -64.9251 H   0  0  0  1  0  0  0  0  0  0  0  0
   21.8398    3.5992  -66.4657 H   0  0  0  1  0  0  0  0  0  0  0  0
   21.2794    5.7514  -65.9699 H   0  0  0  1  0  0  0  0  0  0  0  0
   21.0045    5.3731  -64.2860 H   0  0  0  1  0  0  0  0  0  0  0  0
   23.6467    2.3811  -66.7110 H   0  0  0  1  0  0  0  0  0  0  0  0
   27.3321    4.0271  -56.7932 H   0  0  0  1  0  0  0  0  0  0  0  0
   27.8906    2.4222  -56.3871 H   0  0  0  1  0  0  0  0  0  0  0  0
   26.6794    3.2026  -55.3980 H   0  0  0  1  0  0  0  0  0  0  0  0
   24.5282    4.7698  -63.8518 H   0  0  0  1  0  0  0  0  0  0  0  0
   24.6392    4.8440  -65.5943 H   0  0  0  1  0  0  0  0  0  0  0  0
   23.1468    6.8871  -62.4262 H   0  0  0  1  0  0  0  0  0  0  0  0
   23.7371    9.1839  -62.0250 H   0  0  0  1  0  0  0  0  0  0  0  0
   24.3762    9.8230  -66.0059 H   0  0  0  1  0  0  0  0  0  0  0  0
   23.8156    7.5383  -66.5230 H   0  0  0  1  0  0  0  0  0  0  0  0
  1  3  4  0  0  0  0
  1 14  4  0  0  0  0
  1 21  1  0  0  0  0
  2 14  4  0  0  0  0
  2 15  4  0  0  0  0
  2 30  1  0  0  0  0
  3 16  4  0  0  0  0
  4  5  4  0  0  0  0
  4  7  4  0  0  0  0
  4 17  1  0  0  0  0
  5  9  4  0  0  0  0
  5 31  1  0  0  0  0
  6  7  4  0  0  0  0
  6  8  4  0  0  0  0
  6 32  1  0  0  0  0
  7 33  1  0  0  0  0
  8  9  4  0  0  0  0
  8 20  1  0  0  0  0
  9 34  1  0  0  0  0
 10 11  1  0  0  0  0
 10 21  1  0  0  0  0
 10 24  1  0  0  0  0
 10 35  1  0  0  0  0
 11 12  1  0  0  0  0
 11 36  1  0  0  0  0
 11 37  1  0  0  0  0
 12 23  1  0  0  0  0
 12 38  1  0  0  0  0
 12 39  1  0  0  0  0
 13 23  1  0  0  0  0
 13 25  4  0  0  0  0
 13 29  4  0  0  0  0
 15 16  4  0  0  0  0
 15 18  4  0  0  0  0
 16 17  4  0  0  0  0
 17 19  4  0  0  0  0
 18 19  4  0  0  0  0
 20 22  1  0  0  0  0
 21 40  1  0  0  0  0
 22 41  1  0  0  0  0
 22 42  1  0  0  0  0
 22 43  1  0  0  0  0
 23 24  1  0  0  0  0
 24 44  1  0  0  0  0
 24 45  1  0  0  0  0
 25 26  4  0  0  0  0
 25 46  1  0  0  0  0
 26 27  4  0  0  0  0
 26 47  1  0  0  0  0
 27 28  4  0  0  0  0
 28 29  4  0  0  0  0
 28 48  1  0  0  0  0
 29 49  1  0  0  0  0
M  END
> <ConfClashScore>
0 

> <ConfOneFourInteractionScore>
-0.986948 

> <ConfScore>
-0.0284774 

> <ConfScorePBest>
0.00468614 

> <ConfTolerance>
0.485187 

> <HETNAM>
     OWQ A 303  OWQ                                                       

> <pdb_OW>
Q_303 -16.5129 3.80749 7.62812 0.15963 1.39178 -0.28144 -3.20151 0 0 0 -1.30514 0 0 0 0 0 0 0 0 -8.31393

$$$$
6yky_lig_1.pdb
 OpenBabel04162415593D

 49 53  0  0  0  0  0  0  0  0999 V2000
   25.1047    1.8136  -65.3759 C   0  0  0  1  0  0  0  0  0  0  0  0
   26.9167    0.5034  -65.9326 C   0  0  0  1  0  0  0  0  0  0  0  0
   25.4178    1.8283  -64.0981 N   0  0  0  1  0  0  0  0  0  0  0  0
   26.7669    1.4474  -61.1214 C   0  0  0  1  0  0  0  0  0  0  0  0
   25.4754    1.2525  -60.6698 C   0  0  0  1  0  0  0  0  0  0  0  0
   27.2993    2.6210  -59.1001 C   0  0  0  1  0  0  0  0  0  0  0  0
   27.6796    2.1349  -60.3367 C   0  0  0  1  0  0  0  0  0  0  0  0
   26.0039    2.4256  -58.6468 C   0  0  0  1  0  0  0  0  0  0  0  0
   25.0942    1.7401  -59.4295 C   0  0  0  1  0  0  0  0  0  0  0  0
   23.6575    2.6151  -67.1968 C   0  0  0  1  0  0  0  0  0  0  0  0
   22.8397    3.8992  -67.4590 C   0  0  0  1  0  0  0  0  0  0  0  0
   21.7575    3.5535  -68.4506 C   0  0  0  1  0  0  0  0  0  0  0  0
   20.8830    1.2227  -69.0863 C   0  0  0  1  0  0  0  0  0  0  0  0
   25.8296    1.1706  -66.2747 N   0  0  0  1  0  0  0  0  0  0  0  0
   27.2964    0.4857  -64.5857 C   0  0  0  1  0  0  0  0  0  0  0  0
   26.4936    1.1852  -63.6613 C   0  0  0  1  0  0  0  0  0  0  0  0
   27.0809    1.0062  -62.4395 N   0  0  0  1  0  0  0  0  0  0  0  0
   28.3159   -0.0766  -63.9004 N   0  0  0  1  0  0  0  0  0  0  0  0
   28.2164    0.2092  -62.6490 N   0  0  0  1  0  0  0  0  0  0  0  0
   25.5190    2.8563  -57.4659 O   0  0  0  1  0  0  0  0  0  0  0  0
   23.9919    2.4856  -65.7894 N   0  0  0  1  0  0  0  0  0  0  0  0
   26.4574    3.5986  -56.6530 C   0  0  0  1  0  0  0  0  0  0  0  0
   21.7783    2.0105  -68.3918 N   0  0  0  1  0  0  0  0  0  0  0  0
   22.7069    1.5187  -67.6357 C   0  0  0  1  0  0  0  0  0  0  0  0
   19.6317    0.9503  -68.5648 C   0  0  0  1  0  0  0  0  0  0  0  0
   18.7648    0.1603  -69.2954 C   0  0  0  1  0  0  0  0  0  0  0  0
   19.0730   -0.3618  -70.4865 N   0  0  0  1  0  0  0  0  0  0  0  0
   20.2910   -0.0933  -70.9781 C   0  0  0  1  0  0  0  0  0  0  0  0
   21.2193    0.6909  -70.3158 C   0  0  0  1  0  0  0  0  0  0  0  0
   27.4789    0.0013  -66.6492 H   0  0  0  1  0  0  0  0  0  0  0  0
   24.7897    0.7401  -61.2604 H   0  0  0  1  0  0  0  0  0  0  0  0
   27.9850    3.1335  -58.5095 H   0  0  0  1  0  0  0  0  0  0  0  0
   28.6503    2.2850  -60.6784 H   0  0  0  1  0  0  0  0  0  0  0  0
   24.1234    1.5900  -59.0879 H   0  0  0  1  0  0  0  0  0  0  0  0
   24.5549    2.6036  -67.7795 H   0  0  0  1  0  0  0  0  0  0  0  0
   23.4744    4.6604  -67.8619 H   0  0  0  1  0  0  0  0  0  0  0  0
   22.4015    4.2456  -66.5464 H   0  0  0  1  0  0  0  0  0  0  0  0
   20.8086    3.9446  -68.1475 H   0  0  0  1  0  0  0  0  0  0  0  0
   21.9948    3.9117  -69.4306 H   0  0  0  1  0  0  0  0  0  0  0  0
   23.4029    2.8915  -65.1195 H   0  0  0  1  0  0  0  0  0  0  0  0
   26.5898    4.5775  -57.0641 H   0  0  0  1  0  0  0  0  0  0  0  0
   27.3977    3.0882  -56.6379 H   0  0  0  1  0  0  0  0  0  0  0  0
   26.0788    3.6792  -55.6554 H   0  0  0  1  0  0  0  0  0  0  0  0
   22.2601    1.0716  -66.7724 H   0  0  0  1  0  0  0  0  0  0  0  0
   23.2510    0.7763  -68.1813 H   0  0  0  1  0  0  0  0  0  0  0  0
   19.3483    1.3330  -67.6402 H   0  0  0  1  0  0  0  0  0  0  0  0
   17.8244   -0.0383  -68.8980 H   0  0  0  1  0  0  0  0  0  0  0  0
   20.5509   -0.4938  -71.9020 H   0  0  0  1  0  0  0  0  0  0  0  0
   22.1524    0.8763  -70.7359 H   0  0  0  1  0  0  0  0  0  0  0  0
  1  3  4  0  0  0  0
  1 14  4  0  0  0  0
  1 21  1  0  0  0  0
  2 14  4  0  0  0  0
  2 15  4  0  0  0  0
  2 30  1  0  0  0  0
  3 16  4  0  0  0  0
  4  5  4  0  0  0  0
  4  7  4  0  0  0  0
  4 17  1  0  0  0  0
  5  9  4  0  0  0  0
  5 31  1  0  0  0  0
  6  7  4  0  0  0  0
  6  8  4  0  0  0  0
  6 32  1  0  0  0  0
  7 33  1  0  0  0  0
  8  9  4  0  0  0  0
  8 20  1  0  0  0  0
  9 34  1  0  0  0  0
 10 11  1  0  0  0  0
 10 21  1  0  0  0  0
 10 24  1  0  0  0  0
 10 35  1  0  0  0  0
 11 12  1  0  0  0  0
 11 36  1  0  0  0  0
 11 37  1  0  0  0  0
 12 23  1  0  0  0  0
 12 38  1  0  0  0  0
 12 39  1  0  0  0  0
 13 23  1  0  0  0  0
 13 25  4  0  0  0  0
 13 29  4  0  0  0  0
 15 16  4  0  0  0  0
 15 18  4  0  0  0  0
 16 17  4  0  0  0  0
 17 19  4  0  0  0  0
 18 19  4  0  0  0  0
 20 22  1  0  0  0  0
 21 40  1  0  0  0  0
 22 41  1  0  0  0  0
 22 42  1  0  0  0  0
 22 43  1  0  0  0  0
 23 24  1  0  0  0  0
 24 44  1  0  0  0  0
 24 45  1  0  0  0  0
 25 26  4  0  0  0  0
 25 46  1  0  0  0  0
 26 27  4  0  0  0  0
 26 47  1  0  0  0  0
 27 28  4  0  0  0  0
 28 29  4  0  0  0  0
 28 48  1  0  0  0  0
 29 49  1  0  0  0  0
M  END
> <ConfClashScore>
0 

> <ConfOneFourInteractionScore>
-0.986948 

> <ConfScore>
-0.0278977 

> <ConfScorePBest>
0.00467282 

> <ConfTolerance>
0.399142 

> <HETNAM>
     OWQ A 303  OWQ                                                       

> <pdb_OW>
Q_303 -16.5129 3.80749 7.62812 0.15963 1.39178 -0.28144 -3.20151 0 0 0 -1.30514 0 0 0 0 0 0 0 0 -8.31393

$$$$
6yky_lig_1.pdb
 OpenBabel04162415593D

 49 53  0  0  0  0  0  0  0  0999 V2000
   25.1047    1.8134  -65.3760 C   0  0  0  1  0  0  0  0  0  0  0  0
   26.9167    0.5034  -65.9326 C   0  0  0  1  0  0  0  0  0  0  0  0
   25.4177    1.8282  -64.0982 N   0  0  0  1  0  0  0  0  0  0  0  0
   26.6540    1.4119  -61.1420 C   0  0  0  1  0  0  0  0  0  0  0  0
   25.5939    2.2878  -61.0048 C   0  0  0  1  0  0  0  0  0  0  0  0
   27.0044    1.4609  -58.7709 C   0  0  0  1  0  0  0  0  0  0  0  0
   27.3621    0.9998  -60.0238 C   0  0  0  1  0  0  0  0  0  0  0  0
   25.9411    2.3395  -58.6331 C   0  0  0  1  0  0  0  0  0  0  0  0
   25.2352    2.7502  -59.7482 C   0  0  0  1  0  0  0  0  0  0  0  0
   23.6188    2.5552  -67.2467 C   0  0  0  1  0  0  0  0  0  0  0  0
   22.7737    3.8321  -67.5106 C   0  0  0  1  0  0  0  0  0  0  0  0
   21.8423    3.5335  -68.7039 C   0  0  0  1  0  0  0  0  0  0  0  0
   21.2775    1.2766  -69.8207 C   0  0  0  1  0  0  0  0  0  0  0  0
   25.8296    1.1706  -66.2748 N   0  0  0  1  0  0  0  0  0  0  0  0
   27.2965    0.4857  -64.5857 C   0  0  0  1  0  0  0  0  0  0  0  0
   26.4935    1.1851  -63.6614 C   0  0  0  1  0  0  0  0  0  0  0  0
   27.0809    1.0061  -62.4394 N   0  0  0  1  0  0  0  0  0  0  0  0
   28.3159   -0.0766  -63.9004 N   0  0  0  1  0  0  0  0  0  0  0  0
   28.2164    0.2092  -62.6490 N   0  0  0  1  0  0  0  0  0  0  0  0
   25.6876    2.7264  -57.3603 O   0  0  0  1  0  0  0  0  0  0  0  0
   24.0269    2.4521  -65.8449 N   0  0  0  1  0  0  0  0  0  0  0  0
   24.6895    3.7411  -57.1692 C   0  0  0  1  0  0  0  0  0  0  0  0
   21.8677    2.0452  -68.7766 N   0  0  0  1  0  0  0  0  0  0  0  0
   22.5848    1.4765  -67.6236 C   0  0  0  1  0  0  0  0  0  0  0  0
   21.8806    1.1937  -71.0621 C   0  0  0  1  0  0  0  0  0  0  0  0
   21.2760    0.4339  -72.0454 C   0  0  0  1  0  0  0  0  0  0  0  0
   20.1297   -0.2281  -71.8617 N   0  0  0  1  0  0  0  0  0  0  0  0
   19.5537   -0.1355  -70.6547 C   0  0  0  1  0  0  0  0  0  0  0  0
   20.0917    0.5996  -69.6128 C   0  0  0  1  0  0  0  0  0  0  0  0
   27.4790    0.0013  -66.6491 H   0  0  0  1  0  0  0  0  0  0  0  0
   25.0653    2.6001  -61.8442 H   0  0  0  1  0  0  0  0  0  0  0  0
   27.5330    1.1487  -57.9315 H   0  0  0  1  0  0  0  0  0  0  0  0
   28.1624    0.3438  -60.1275 H   0  0  0  1  0  0  0  0  0  0  0  0
   24.4349    3.4063  -59.6445 H   0  0  0  1  0  0  0  0  0  0  0  0
   24.4842    2.5137  -67.8746 H   0  0  0  1  0  0  0  0  0  0  0  0
   23.4174    4.6537  -67.7463 H   0  0  0  1  0  0  0  0  0  0  0  0
   22.1926    4.0707  -66.6444 H   0  0  0  1  0  0  0  0  0  0  0  0
   22.2188    3.9699  -69.6055 H   0  0  0  1  0  0  0  0  0  0  0  0
   20.8518    3.8936  -68.5195 H   0  0  0  1  0  0  0  0  0  0  0  0
   23.4540    2.8949  -65.1844 H   0  0  0  1  0  0  0  0  0  0  0  0
   23.8961    3.5987  -57.8730 H   0  0  0  1  0  0  0  0  0  0  0  0
   25.1287    4.7053  -57.3175 H   0  0  0  1  0  0  0  0  0  0  0  0
   24.2998    3.6751  -56.1749 H   0  0  0  1  0  0  0  0  0  0  0  0
   21.9126    1.2961  -66.8110 H   0  0  0  1  0  0  0  0  0  0  0  0
   23.0720    0.5629  -67.8937 H   0  0  0  1  0  0  0  0  0  0  0  0
   22.7724    1.6938  -71.2523 H   0  0  0  1  0  0  0  0  0  0  0  0
   21.7367    0.3741  -72.9758 H   0  0  0  1  0  0  0  0  0  0  0  0
   18.6590   -0.6406  -70.4934 H   0  0  0  1  0  0  0  0  0  0  0  0
   19.6123    0.6414  -68.6908 H   0  0  0  1  0  0  0  0  0  0  0  0
  1  3  4  0  0  0  0
  1 14  4  0  0  0  0
  1 21  1  0  0  0  0
  2 14  4  0  0  0  0
  2 15  4  0  0  0  0
  2 30  1  0  0  0  0
  3 16  4  0  0  0  0
  4  5  4  0  0  0  0
  4  7  4  0  0  0  0
  4 17  1  0  0  0  0
  5  9  4  0  0  0  0
  5 31  1  0  0  0  0
  6  7  4  0  0  0  0
  6  8  4  0  0  0  0
  6 32  1  0  0  0  0
  7 33  1  0  0  0  0
  8  9  4  0  0  0  0
  8 20  1  0  0  0  0
  9 34  1  0  0  0  0
 10 11  1  0  0  0  0
 10 21  1  0  0  0  0
 10 24  1  0  0  0  0
 10 35  1  0  0  0  0
 11 12  1  0  0  0  0
 11 36  1  0  0  0  0
 11 37  1  0  0  0  0
 12 23  1  0  0  0  0
 12 38  1  0  0  0  0
 12 39  1  0  0  0  0
 13 23  1  0  0  0  0
 13 25  4  0  0  0  0
 13 29  4  0  0  0  0
 15 16  4  0  0  0  0
 15 18  4  0  0  0  0
 16 17  4  0  0  0  0
 17 19  4  0  0  0  0
 18 19  4  0  0  0  0
 20 22  1  0  0  0  0
 21 40  1  0  0  0  0
 22 41  1  0  0  0  0
 22 42  1  0  0  0  0
 22 43  1  0  0  0  0
 23 24  1  0  0  0  0
 24 44  1  0  0  0  0
 24 45  1  0  0  0  0
 25 26  4  0  0  0  0
 25 46  1  0  0  0  0
 26 27  4  0  0  0  0
 26 47  1  0  0  0  0
 27 28  4  0  0  0  0
 28 29  4  0  0  0  0
 28 48  1  0  0  0  0
 29 49  1  0  0  0  0
M  END
> <ConfClashScore>
0 

> <ConfOneFourInteractionScore>
-0.986948 

> <ConfScore>
-0.0267352 

> <ConfScorePBest>
0.00465949 

> <ConfTolerance>
0.365686 

> <HETNAM>
     OWQ A 303  OWQ                                                       

> <pdb_OW>
Q_303 -16.5129 3.80749 7.62812 0.15963 1.39178 -0.28144 -3.20151 0 0 0 -1.30514 0 0 0 0 0 0 0 0 -8.31393

$$$$
6yky_lig_1.pdb
 OpenBabel04162415593D

 49 53  0  0  0  0  0  0  0  0999 V2000
   25.1046    1.8134  -65.3760 C   0  0  0  1  0  0  0  0  0  0  0  0
   26.9167    0.5034  -65.9326 C   0  0  0  1  0  0  0  0  0  0  0  0
   25.4177    1.8282  -64.0982 N   0  0  0  1  0  0  0  0  0  0  0  0
   26.7285    1.4698  -61.1391 C   0  0  0  1  0  0  0  0  0  0  0  0
   27.0616    0.7235  -60.0246 C   0  0  0  1  0  0  0  0  0  0  0  0
   25.5532    3.0282  -59.7472 C   0  0  0  1  0  0  0  0  0  0  0  0
   25.9710    2.6224  -61.0006 C   0  0  0  1  0  0  0  0  0  0  0  0
   25.8873    2.2798  -58.6291 C   0  0  0  1  0  0  0  0  0  0  0  0
   26.6426    1.1306  -58.7675 C   0  0  0  1  0  0  0  0  0  0  0  0
   23.7593    2.5142  -67.2538 C   0  0  0  1  0  0  0  0  0  0  0  0
   24.1620    3.8770  -67.8824 C   0  0  0  1  0  0  0  0  0  0  0  0
   23.3109    4.0704  -69.1549 C   0  0  0  1  0  0  0  0  0  0  0  0
   21.2486    2.7783  -69.9275 C   0  0  0  1  0  0  0  0  0  0  0  0
   25.8296    1.1706  -66.2748 N   0  0  0  1  0  0  0  0  0  0  0  0
   27.2965    0.4857  -64.5857 C   0  0  0  1  0  0  0  0  0  0  0  0
   26.4935    1.1851  -63.6614 C   0  0  0  1  0  0  0  0  0  0  0  0
   27.0808    1.0061  -62.4395 N   0  0  0  1  0  0  0  0  0  0  0  0
   28.3159   -0.0766  -63.9005 N   0  0  0  1  0  0  0  0  0  0  0  0
   28.2164    0.2093  -62.6490 N   0  0  0  1  0  0  0  0  0  0  0  0
   25.4210    2.7693  -57.4639 O   0  0  0  1  0  0  0  0  0  0  0  0
   23.9669    2.5004  -65.7987 N   0  0  0  1  0  0  0  0  0  0  0  0
   25.5959    1.9000  -56.3209 C   0  0  0  1  0  0  0  0  0  0  0  0
   22.2060    3.0887  -68.9639 N   0  0  0  1  0  0  0  0  0  0  0  0
   22.2626    2.4912  -67.6197 C   0  0  0  1  0  0  0  0  0  0  0  0
   20.0567    3.4768  -69.9813 C   0  0  0  1  0  0  0  0  0  0  0  0
   19.1743    3.2074  -71.0102 C   0  0  0  1  0  0  0  0  0  0  0  0
   19.4104    2.2993  -71.9619 N   0  0  0  1  0  0  0  0  0  0  0  0
   20.5679    1.6263  -71.8950 C   0  0  0  1  0  0  0  0  0  0  0  0
   21.5094    1.8351  -70.9024 C   0  0  0  1  0  0  0  0  0  0  0  0
   27.4789    0.0014  -66.6492 H   0  0  0  1  0  0  0  0  0  0  0  0
   27.6265   -0.1433  -60.1289 H   0  0  0  1  0  0  0  0  0  0  0  0
   24.9883    3.8952  -59.6427 H   0  0  0  1  0  0  0  0  0  0  0  0
   25.7170    3.1817  -61.8398 H   0  0  0  1  0  0  0  0  0  0  0  0
   26.8966    0.5713  -57.9283 H   0  0  0  1  0  0  0  0  0  0  0  0
   24.2904    1.6984  -67.6982 H   0  0  0  1  0  0  0  0  0  0  0  0
   23.9691    4.6696  -67.1900 H   0  0  0  1  0  0  0  0  0  0  0  0
   25.2015    3.8693  -68.1359 H   0  0  0  1  0  0  0  0  0  0  0  0
   23.8771    3.8471  -70.0350 H   0  0  0  1  0  0  0  0  0  0  0  0
   22.9326    5.0693  -69.2174 H   0  0  0  1  0  0  0  0  0  0  0  0
   23.3532    2.9401  -65.1739 H   0  0  0  1  0  0  0  0  0  0  0  0
   24.6975    1.8890  -55.7398 H   0  0  0  1  0  0  0  0  0  0  0  0
   26.4047    2.2600  -55.7200 H   0  0  0  1  0  0  0  0  0  0  0  0
   25.8149    0.9083  -56.6577 H   0  0  0  1  0  0  0  0  0  0  0  0
   21.6936    3.0709  -66.9233 H   0  0  0  1  0  0  0  0  0  0  0  0
   21.8921    1.4874  -67.6356 H   0  0  0  1  0  0  0  0  0  0  0  0
   19.8285    4.1915  -69.2611 H   0  0  0  1  0  0  0  0  0  0  0  0
   18.2808    3.7385  -71.0456 H   0  0  0  1  0  0  0  0  0  0  0  0
   20.7681    0.9127  -72.6245 H   0  0  0  1  0  0  0  0  0  0  0  0
   22.3964    1.2922  -70.8906 H   0  0  0  1  0  0  0  0  0  0  0  0
  1  3  4  0  0  0  0
  1 14  4  0  0  0  0
  1 21  1  0  0  0  0
  2 14  4  0  0  0  0
  2 15  4  0  0  0  0
  2 30  1  0  0  0  0
  3 16  4  0  0  0  0
  4  5  4  0  0  0  0
  4  7  4  0  0  0  0
  4 17  1  0  0  0  0
  5  9  4  0  0  0  0
  5 31  1  0  0  0  0
  6  7  4  0  0  0  0
  6  8  4  0  0  0  0
  6 32  1  0  0  0  0
  7 33  1  0  0  0  0
  8  9  4  0  0  0  0
  8 20  1  0  0  0  0
  9 34  1  0  0  0  0
 10 11  1  0  0  0  0
 10 21  1  0  0  0  0
 10 24  1  0  0  0  0
 10 35  1  0  0  0  0
 11 12  1  0  0  0  0
 11 36  1  0  0  0  0
 11 37  1  0  0  0  0
 12 23  1  0  0  0  0
 12 38  1  0  0  0  0
 12 39  1  0  0  0  0
 13 23  1  0  0  0  0
 13 25  4  0  0  0  0
 13 29  4  0  0  0  0
 15 16  4  0  0  0  0
 15 18  4  0  0  0  0
 16 17  4  0  0  0  0
 17 19  4  0  0  0  0
 18 19  4  0  0  0  0
 20 22  1  0  0  0  0
 21 40  1  0  0  0  0
 22 41  1  0  0  0  0
 22 42  1  0  0  0  0
 22 43  1  0  0  0  0
 23 24  1  0  0  0  0
 24 44  1  0  0  0  0
 24 45  1  0  0  0  0
 25 26  4  0  0  0  0
 25 46  1  0  0  0  0
 26 27  4  0  0  0  0
 26 47  1  0  0  0  0
 27 28  4  0  0  0  0
 28 29  4  0  0  0  0
 28 48  1  0  0  0  0
 29 49  1  0  0  0  0
M  END
> <ConfClashScore>
0 

> <ConfOneFourInteractionScore>
-0.986948 

> <ConfScore>
-0.0265769 

> <ConfScorePBest>
0.00464616 

> <ConfTolerance>
0.332876 

> <HETNAM>
     OWQ A 303  OWQ                                                       

> <pdb_OW>
Q_303 -16.5129 3.80749 7.62812 0.15963 1.39178 -0.28144 -3.20151 0 0 0 -1.30514 0 0 0 0 0 0 0 0 -8.31393

$$$$
6yky_lig_1.pdb
 OpenBabel04162415593D

 49 53  0  0  0  0  0  0  0  0999 V2000
   25.1048    1.8135  -65.3759 C   0  0  0  1  0  0  0  0  0  0  0  0
   26.9167    0.5034  -65.9326 C   0  0  0  1  0  0  0  0  0  0  0  0
   25.4178    1.8283  -64.0982 N   0  0  0  1  0  0  0  0  0  0  0  0
   26.7286    1.4699  -61.1390 C   0  0  0  1  0  0  0  0  0  0  0  0
   26.2566    2.7575  -60.9679 C   0  0  0  1  0  0  0  0  0  0  0  0
   26.6889    1.1373  -58.7652 C   0  0  0  1  0  0  0  0  0  0  0  0
   26.9476    0.6594  -60.0360 C   0  0  0  1  0  0  0  0  0  0  0  0
   26.2155    2.4288  -58.5934 C   0  0  0  1  0  0  0  0  0  0  0  0
   25.9972    3.2368  -59.6934 C   0  0  0  1  0  0  0  0  0  0  0  0
   23.5898    2.5102  -67.1847 C   0  0  0  1  0  0  0  0  0  0  0  0
   22.1305    2.9944  -67.3352 C   0  0  0  1  0  0  0  0  0  0  0  0
   21.4743    2.1379  -68.3885 C   0  0  0  1  0  0  0  0  0  0  0  0
   22.2536   -0.1643  -69.3092 C   0  0  0  1  0  0  0  0  0  0  0  0
   25.8297    1.1708  -66.2748 N   0  0  0  1  0  0  0  0  0  0  0  0
   27.2966    0.4858  -64.5857 C   0  0  0  1  0  0  0  0  0  0  0  0
   26.4937    1.1851  -63.6614 C   0  0  0  1  0  0  0  0  0  0  0  0
   27.0809    1.0061  -62.4395 N   0  0  0  1  0  0  0  0  0  0  0  0
   28.3159   -0.0766  -63.9004 N   0  0  0  1  0  0  0  0  0  0  0  0
   28.2164    0.2092  -62.6490 N   0  0  0  1  0  0  0  0  0  0  0  0
   26.0534    2.9746  -57.3537 O   0  0  0  1  0  0  0  0  0  0  0  0
   23.9919    2.4856  -65.7894 N   0  0  0  1  0  0  0  0  0  0  0  0
   25.7281    4.3939  -57.1727 C   0  0  0  1  0  0  0  0  0  0  0  0
   22.4765    0.9674  -68.4905 N   0  0  0  1  0  0  0  0  0  0  0  0
   23.5378    1.1098  -67.7631 C   0  0  0  1  0  0  0  0  0  0  0  0
   21.7488   -1.3343  -68.7724 C   0  0  0  1  0  0  0  0  0  0  0  0
   21.5427   -2.4147  -69.6088 C   0  0  0  1  0  0  0  0  0  0  0  0
   21.8094   -2.3918  -70.9182 N   0  0  0  1  0  0  0  0  0  0  0  0
   22.3025   -1.2526  -71.4246 C   0  0  0  1  0  0  0  0  0  0  0  0
   22.5361   -0.1224  -70.6607 C   0  0  0  1  0  0  0  0  0  0  0  0
   27.4789    0.0014  -66.6492 H   0  0  0  1  0  0  0  0  0  0  0  0
   26.0962    3.3668  -61.7954 H   0  0  0  1  0  0  0  0  0  0  0  0
   26.8494    0.5280  -57.9379 H   0  0  0  1  0  0  0  0  0  0  0  0
   27.3067   -0.3082  -60.1646 H   0  0  0  1  0  0  0  0  0  0  0  0
   25.6381    4.2043  -59.5648 H   0  0  0  1  0  0  0  0  0  0  0  0
   24.2615    3.1318  -67.7391 H   0  0  0  1  0  0  0  0  0  0  0  0
   21.6131    2.8889  -66.4045 H   0  0  0  1  0  0  0  0  0  0  0  0
   22.1157    4.0206  -67.6378 H   0  0  0  1  0  0  0  0  0  0  0  0
   20.5087    1.8009  -68.0741 H   0  0  0  1  0  0  0  0  0  0  0  0
   21.3851    2.6597  -69.3184 H   0  0  0  1  0  0  0  0  0  0  0  0
   23.4499    2.9641  -65.1279 H   0  0  0  1  0  0  0  0  0  0  0  0
   24.8504    4.6338  -57.7357 H   0  0  0  1  0  0  0  0  0  0  0  0
   26.5458    4.9934  -57.5147 H   0  0  0  1  0  0  0  0  0  0  0  0
   25.5510    4.5895  -56.1358 H   0  0  0  1  0  0  0  0  0  0  0  0
   23.5176    0.3979  -66.9647 H   0  0  0  1  0  0  0  0  0  0  0  0
   24.4054    0.9443  -68.3673 H   0  0  0  1  0  0  0  0  0  0  0  0
   21.5285   -1.3998  -67.7581 H   0  0  0  1  0  0  0  0  0  0  0  0
   21.1603   -3.2905  -69.1985 H   0  0  0  1  0  0  0  0  0  0  0  0
   22.5201   -1.2163  -72.4409 H   0  0  0  1  0  0  0  0  0  0  0  0
   22.9169    0.7419  -71.0958 H   0  0  0  1  0  0  0  0  0  0  0  0
  1  3  4  0  0  0  0
  1 14  4  0  0  0  0
  1 21  1  0  0  0  0
  2 14  4  0  0  0  0
  2 15  4  0  0  0  0
  2 30  1  0  0  0  0
  3 16  4  0  0  0  0
  4  5  4  0  0  0  0
  4  7  4  0  0  0  0
  4 17  1  0  0  0  0
  5  9  4  0  0  0  0
  5 31  1  0  0  0  0
  6  7  4  0  0  0  0
  6  8  4  0  0  0  0
  6 32  1  0  0  0  0
  7 33  1  0  0  0  0
  8  9  4  0  0  0  0
  8 20  1  0  0  0  0
  9 34  1  0  0  0  0
 10 11  1  0  0  0  0
 10 21  1  0  0  0  0
 10 24  1  0  0  0  0
 10 35  1  0  0  0  0
 11 12  1  0  0  0  0
 11 36  1  0  0  0  0
 11 37  1  0  0  0  0
 12 23  1  0  0  0  0
 12 38  1  0  0  0  0
 12 39  1  0  0  0  0
 13 23  1  0  0  0  0
 13 25  4  0  0  0  0
 13 29  4  0  0  0  0
 15 16  4  0  0  0  0
 15 18  4  0  0  0  0
 16 17  4  0  0  0  0
 17 19  4  0  0  0  0
 18 19  4  0  0  0  0
 20 22  1  0  0  0  0
 21 40  1  0  0  0  0
 22 41  1  0  0  0  0
 22 42  1  0  0  0  0
 22 43  1  0  0  0  0
 23 24  1  0  0  0  0
 24 44  1  0  0  0  0
 24 45  1  0  0  0  0
 25 26  4  0  0  0  0
 25 46  1  0  0  0  0
 26 27  4  0  0  0  0
 26 47  1  0  0  0  0
 27 28  4  0  0  0  0
 28 29  4  0  0  0  0
 28 48  1  0  0  0  0
 29 49  1  0  0  0  0
M  END
> <ConfClashScore>
0 

> <ConfOneFourInteractionScore>
-0.987833 

> <ConfScore>
-0.0255576 

> <ConfScorePBest>
0.00463283 

> <ConfTolerance>
0.396056 

> <HETNAM>
     OWQ A 303  OWQ                                                       

> <pdb_OW>
Q_303 -16.5129 3.80749 7.62812 0.15963 1.39178 -0.28144 -3.20151 0 0 0 -1.30514 0 0 0 0 0 0 0 0 -8.31393

$$$$
6yky_lig_1.pdb
 OpenBabel04162415593D

 49 53  0  0  0  0  0  0  0  0999 V2000
   25.1047    1.8134  -65.3760 C   0  0  0  1  0  0  0  0  0  0  0  0
   26.9167    0.5034  -65.9326 C   0  0  0  1  0  0  0  0  0  0  0  0
   25.4177    1.8281  -64.0982 N   0  0  0  1  0  0  0  0  0  0  0  0
   26.7668    1.4471  -61.1215 C   0  0  0  1  0  0  0  0  0  0  0  0
   27.6602    1.1413  -60.1122 C   0  0  0  1  0  0  0  0  0  0  0  0
   25.2724    2.4068  -59.5112 C   0  0  0  1  0  0  0  0  0  0  0  0
   25.5700    2.0783  -60.8204 C   0  0  0  1  0  0  0  0  0  0  0  0
   26.1683    2.1002  -58.4987 C   0  0  0  1  0  0  0  0  0  0  0  0
   27.3616    1.4708  -58.7993 C   0  0  0  1  0  0  0  0  0  0  0  0
   23.6419    2.4223  -67.2610 C   0  0  0  1  0  0  0  0  0  0  0  0
   24.7447    3.0210  -68.1269 C   0  0  0  1  0  0  0  0  0  0  0  0
   24.5249    4.5354  -68.0158 C   0  0  0  1  0  0  0  0  0  0  0  0
   22.4010    5.8414  -67.6655 C   0  0  0  1  0  0  0  0  0  0  0  0
   25.8296    1.1706  -66.2748 N   0  0  0  1  0  0  0  0  0  0  0  0
   27.2965    0.4857  -64.5857 C   0  0  0  1  0  0  0  0  0  0  0  0
   26.4936    1.1850  -63.6614 C   0  0  0  1  0  0  0  0  0  0  0  0
   27.0808    1.0060  -62.4395 N   0  0  0  1  0  0  0  0  0  0  0  0
   28.3159   -0.0766  -63.9005 N   0  0  0  1  0  0  0  0  0  0  0  0
   28.2164    0.2093  -62.6490 N   0  0  0  1  0  0  0  0  0  0  0  0
   25.8301    2.3322  -57.2081 O   0  0  0  1  0  0  0  0  0  0  0  0
   24.0033    2.4661  -65.8550 N   0  0  0  1  0  0  0  0  0  0  0  0
   26.8138    2.0278  -56.2071 C   0  0  0  1  0  0  0  0  0  0  0  0
   23.0813    4.6428  -67.7378 N   0  0  0  1  0  0  0  0  0  0  0  0
   22.4439    3.3228  -67.5452 C   0  0  0  1  0  0  0  0  0  0  0  0
   21.8423    6.4041  -68.7980 C   0  0  0  1  0  0  0  0  0  0  0  0
   21.1662    7.6035  -68.6798 C   0  0  0  1  0  0  0  0  0  0  0  0
   21.0241    8.2561  -67.5222 N   0  0  0  1  0  0  0  0  0  0  0  0
   21.5744    7.7011  -66.4330 C   0  0  0  1  0  0  0  0  0  0  0  0
   22.2649    6.5020  -66.4601 C   0  0  0  1  0  0  0  0  0  0  0  0
   27.4790    0.0014  -66.6492 H   0  0  0  1  0  0  0  0  0  0  0  0
   28.5563    0.6641  -60.3378 H   0  0  0  1  0  0  0  0  0  0  0  0
   24.3764    2.8840  -59.2856 H   0  0  0  1  0  0  0  0  0  0  0  0
   24.8961    2.3047  -61.5794 H   0  0  0  1  0  0  0  0  0  0  0  0
   28.0356    1.2444  -58.0403 H   0  0  0  1  0  0  0  0  0  0  0  0
   23.4373    1.4115  -67.5459 H   0  0  0  1  0  0  0  0  0  0  0  0
   24.6488    2.6966  -69.1421 H   0  0  0  1  0  0  0  0  0  0  0  0
   25.7101    2.7488  -67.7546 H   0  0  0  1  0  0  0  0  0  0  0  0
   24.7775    5.0284  -68.9312 H   0  0  0  1  0  0  0  0  0  0  0  0
   25.1021    4.9497  -67.2158 H   0  0  0  1  0  0  0  0  0  0  0  0
   23.4432    2.9768  -65.2338 H   0  0  0  1  0  0  0  0  0  0  0  0
   27.7004    2.5974  -56.3927 H   0  0  0  1  0  0  0  0  0  0  0  0
   27.0468    0.9841  -56.2421 H   0  0  0  1  0  0  0  0  0  0  0  0
   26.4271    2.2753  -55.2406 H   0  0  0  1  0  0  0  0  0  0  0  0
   21.7653    3.3372  -66.7180 H   0  0  0  1  0  0  0  0  0  0  0  0
   21.9252    3.0106  -68.4273 H   0  0  0  1  0  0  0  0  0  0  0  0
   21.9294    5.9338  -69.7215 H   0  0  0  1  0  0  0  0  0  0  0  0
   20.7465    8.0197  -69.5356 H   0  0  0  1  0  0  0  0  0  0  0  0
   21.4778    8.1959  -65.5233 H   0  0  0  1  0  0  0  0  0  0  0  0
   22.6734    6.1059  -65.5896 H   0  0  0  1  0  0  0  0  0  0  0  0
  1  3  4  0  0  0  0
  1 14  4  0  0  0  0
  1 21  1  0  0  0  0
  2 14  4  0  0  0  0
  2 15  4  0  0  0  0
  2 30  1  0  0  0  0
  3 16  4  0  0  0  0
  4  5  4  0  0  0  0
  4  7  4  0  0  0  0
  4 17  1  0  0  0  0
  5  9  4  0  0  0  0
  5 31  1  0  0  0  0
  6  7  4  0  0  0  0
  6  8  4  0  0  0  0
  6 32  1  0  0  0  0
  7 33  1  0  0  0  0
  8  9  4  0  0  0  0
  8 20  1  0  0  0  0
  9 34  1  0  0  0  0
 10 11  1  0  0  0  0
 10 21  1  0  0  0  0
 10 24  1  0  0  0  0
 10 35  1  0  0  0  0
 11 12  1  0  0  0  0
 11 36  1  0  0  0  0
 11 37  1  0  0  0  0
 12 23  1  0  0  0  0
 12 38  1  0  0  0  0
 12 39  1  0  0  0  0
 13 23  1  0  0  0  0
 13 25  4  0  0  0  0
 13 29  4  0  0  0  0
 15 16  4  0  0  0  0
 15 18  4  0  0  0  0
 16 17  4  0  0  0  0
 17 19  4  0  0  0  0
 18 19  4  0  0  0  0
 20 22  1  0  0  0  0
 21 40  1  0  0  0  0
 22 41  1  0  0  0  0
 22 42  1  0  0  0  0
 22 43  1  0  0  0  0
 23 24  1  0  0  0  0
 24 44  1  0  0  0  0
 24 45  1  0  0  0  0
 25 26  4  0  0  0  0
 25 46  1  0  0  0  0
 26 27  4  0  0  0  0
 26 47  1  0  0  0  0
 27 28  4  0  0  0  0
 28 29  4  0  0  0  0
 28 48  1  0  0  0  0
 29 49  1  0  0  0  0
M  END
> <ConfClashScore>
0 

> <ConfOneFourInteractionScore>
-0.981795 

> <ConfScore>
-0.0251673 

> <ConfScorePBest>
0.0046195 

> <ConfTolerance>
0.551668 

> <HETNAM>
     OWQ A 303  OWQ                                                       

> <pdb_OW>
Q_303 -16.5129 3.80749 7.62812 0.15963 1.39178 -0.28144 -3.20151 0 0 0 -1.30514 0 0 0 0 0 0 0 0 -8.31393

$$$$
6yky_lig_1.pdb
 OpenBabel04162415593D

 49 53  0  0  0  0  0  0  0  0999 V2000
   25.1047    1.8135  -65.3760 C   0  0  0  1  0  0  0  0  0  0  0  0
   26.9167    0.5034  -65.9325 C   0  0  0  1  0  0  0  0  0  0  0  0
   25.4178    1.8283  -64.0982 N   0  0  0  1  0  0  0  0  0  0  0  0
   26.8385    1.5661  -61.1519 C   0  0  0  1  0  0  0  0  0  0  0  0
   26.1923    2.7824  -61.0367 C   0  0  0  1  0  0  0  0  0  0  0  0
   27.1765    1.5185  -58.7789 C   0  0  0  1  0  0  0  0  0  0  0  0
   27.3338    0.9344  -60.0217 C   0  0  0  1  0  0  0  0  0  0  0  0
   26.5283    2.7384  -58.6632 C   0  0  0  1  0  0  0  0  0  0  0  0
   26.0346    3.3680  -59.7902 C   0  0  0  1  0  0  0  0  0  0  0  0
   23.1199    3.2000  -64.8902 C   0  0  0  1  0  0  0  0  0  0  0  0
   22.5823    2.2786  -63.7726 C   0  0  0  1  0  0  0  0  0  0  0  0
   21.1252    2.6109  -63.5720 C   0  0  0  1  0  0  0  0  0  0  0  0
   19.5593    3.8833  -65.1655 C   0  0  0  1  0  0  0  0  0  0  0  0
   25.8296    1.1707  -66.2748 N   0  0  0  1  0  0  0  0  0  0  0  0
   27.2965    0.4857  -64.5857 C   0  0  0  1  0  0  0  0  0  0  0  0
   26.4936    1.1852  -63.6614 C   0  0  0  1  0  0  0  0  0  0  0  0
   27.0809    1.0061  -62.4395 N   0  0  0  1  0  0  0  0  0  0  0  0
   28.3158   -0.0766  -63.9004 N   0  0  0  1  0  0  0  0  0  0  0  0
   28.2164    0.2092  -62.6490 N   0  0  0  1  0  0  0  0  0  0  0  0
   26.4390    3.2142  -57.3986 O   0  0  0  1  0  0  0  0  0  0  0  0
   24.0075    2.4763  -65.7837 N   0  0  0  1  0  0  0  0  0  0  0  0
   25.7066    4.4346  -57.2068 C   0  0  0  1  0  0  0  0  0  0  0  0
   20.8232    3.4205  -64.8520 N   0  0  0  1  0  0  0  0  0  0  0  0
   21.8543    3.6288  -65.6063 C   0  0  0  1  0  0  0  0  0  0  0  0
   19.1775    5.1701  -64.8336 C   0  0  0  1  0  0  0  0  0  0  0  0
   17.9057    5.5934  -65.1694 C   0  0  0  1  0  0  0  0  0  0  0  0
   17.0162    4.8202  -65.7995 N   0  0  0  1  0  0  0  0  0  0  0  0
   17.3982    3.5735  -66.1112 C   0  0  0  1  0  0  0  0  0  0  0  0
   18.6528    3.0694  -65.8163 C   0  0  0  1  0  0  0  0  0  0  0  0
   27.4789    0.0013  -66.6492 H   0  0  0  1  0  0  0  0  0  0  0  0
   25.8243    3.2581  -61.8852 H   0  0  0  1  0  0  0  0  0  0  0  0
   27.5444    1.0427  -57.9305 H   0  0  0  1  0  0  0  0  0  0  0  0
   27.8235    0.0212  -60.1089 H   0  0  0  1  0  0  0  0  0  0  0  0
   25.5448    4.2812  -59.7031 H   0  0  0  1  0  0  0  0  0  0  0  0
   23.6356    4.0431  -64.4802 H   0  0  0  1  0  0  0  0  0  0  0  0
   23.1240    2.4503  -62.8660 H   0  0  0  1  0  0  0  0  0  0  0  0
   22.6867    1.2540  -64.0625 H   0  0  0  1  0  0  0  0  0  0  0  0
   20.5255    1.7264  -63.5171 H   0  0  0  1  0  0  0  0  0  0  0  0
   20.9750    3.1996  -62.6912 H   0  0  0  1  0  0  0  0  0  0  0  0
   23.7942    2.4704  -66.7402 H   0  0  0  1  0  0  0  0  0  0  0  0
   25.6632    4.6649  -56.1629 H   0  0  0  1  0  0  0  0  0  0  0  0
   24.7135    4.3178  -57.5876 H   0  0  0  1  0  0  0  0  0  0  0  0
   26.1974    5.2303  -57.7274 H   0  0  0  1  0  0  0  0  0  0  0  0
   21.7511    3.0653  -66.5100 H   0  0  0  1  0  0  0  0  0  0  0  0
   21.9164    4.6710  -65.8405 H   0  0  0  1  0  0  0  0  0  0  0  0
   19.8352    5.8073  -64.3408 H   0  0  0  1  0  0  0  0  0  0  0  0
   17.6264    6.5634  -64.9189 H   0  0  0  1  0  0  0  0  0  0  0  0
   16.7186    2.9552  -66.5985 H   0  0  0  1  0  0  0  0  0  0  0  0
   18.9082    2.0963  -66.0796 H   0  0  0  1  0  0  0  0  0  0  0  0
  1  3  4  0  0  0  0
  1 14  4  0  0  0  0
  1 21  1  0  0  0  0
  2 14  4  0  0  0  0
  2 15  4  0  0  0  0
  2 30  1  0  0  0  0
  3 16  4  0  0  0  0
  4  5  4  0  0  0  0
  4  7  4  0  0  0  0
  4 17  1  0  0  0  0
  5  9  4  0  0  0  0
  5 31  1  0  0  0  0
  6  7  4  0  0  0  0
  6  8  4  0  0  0  0
  6 32  1  0  0  0  0
  7 33  1  0  0  0  0
  8  9  4  0  0  0  0
  8 20  1  0  0  0  0
  9 34  1  0  0  0  0
 10 11  1  0  0  0  0
 10 21  1  0  0  0  0
 10 24  1  0  0  0  0
 10 35  1  0  0  0  0
 11 12  1  0  0  0  0
 11 36  1  0  0  0  0
 11 37  1  0  0  0  0
 12 23  1  0  0  0  0
 12 38  1  0  0  0  0
 12 39  1  0  0  0  0
 13 23  1  0  0  0  0
 13 25  4  0  0  0  0
 13 29  4  0  0  0  0
 15 16  4  0  0  0  0
 15 18  4  0  0  0  0
 16 17  4  0  0  0  0
 17 19  4  0  0  0  0
 18 19  4  0  0  0  0
 20 22  1  0  0  0  0
 21 40  1  0  0  0  0
 22 41  1  0  0  0  0
 22 42  1  0  0  0  0
 22 43  1  0  0  0  0
 23 24  1  0  0  0  0
 24 44  1  0  0  0  0
 24 45  1  0  0  0  0
 25 26  4  0  0  0  0
 25 46  1  0  0  0  0
 26 27  4  0  0  0  0
 26 47  1  0  0  0  0
 27 28  4  0  0  0  0
 28 29  4  0  0  0  0
 28 48  1  0  0  0  0
 29 49  1  0  0  0  0
M  END
> <ConfClashScore>
0 

> <ConfOneFourInteractionScore>
-0.987833 

> <ConfScore>
-0.0247287 

> <ConfScorePBest>
0.00460617 

> <ConfTolerance>
0.419689 

> <HETNAM>
     OWQ A 303  OWQ                                                       

> <pdb_OW>
Q_303 -16.5129 3.80749 7.62812 0.15963 1.39178 -0.28144 -3.20151 0 0 0 -1.30514 0 0 0 0 0 0 0 0 -8.31393

$$$$
6yky_lig_1.pdb
 OpenBabel04162415593D

 49 53  0  0  0  0  0  0  0  0999 V2000
   25.1048    1.8135  -65.3760 C   0  0  0  1  0  0  0  0  0  0  0  0
   26.9167    0.5034  -65.9326 C   0  0  0  1  0  0  0  0  0  0  0  0
   25.4178    1.8283  -64.0982 N   0  0  0  1  0  0  0  0  0  0  0  0
   26.6375    1.3733  -61.1360 C   0  0  0  1  0  0  0  0  0  0  0  0
   27.5419    1.4506  -60.0938 C   0  0  0  1  0  0  0  0  0  0  0  0
   24.8421    1.8326  -59.6153 C   0  0  0  1  0  0  0  0  0  0  0  0
   25.2854    1.5619  -60.8961 C   0  0  0  1  0  0  0  0  0  0  0  0
   25.7490    1.9102  -58.5698 C   0  0  0  1  0  0  0  0  0  0  0  0
   27.0972    1.7221  -58.8093 C   0  0  0  1  0  0  0  0  0  0  0  0
   23.0608    3.1977  -64.9317 C   0  0  0  1  0  0  0  0  0  0  0  0
   21.9175    2.2892  -64.5058 C   0  0  0  1  0  0  0  0  0  0  0  0
   20.8111    3.2708  -64.1630 C   0  0  0  1  0  0  0  0  0  0  0  0
   20.0803    5.3148  -65.4335 C   0  0  0  1  0  0  0  0  0  0  0  0
   25.8297    1.1707  -66.2748 N   0  0  0  1  0  0  0  0  0  0  0  0
   27.2965    0.4857  -64.5857 C   0  0  0  1  0  0  0  0  0  0  0  0
   26.4936    1.1852  -63.6614 C   0  0  0  1  0  0  0  0  0  0  0  0
   27.0809    1.0061  -62.4395 N   0  0  0  1  0  0  0  0  0  0  0  0
   28.3158   -0.0766  -63.9004 N   0  0  0  1  0  0  0  0  0  0  0  0
   28.2165    0.2092  -62.6490 N   0  0  0  1  0  0  0  0  0  0  0  0
   25.3799    2.1667  -57.2923 O   0  0  0  1  0  0  0  0  0  0  0  0
   24.0075    2.4763  -65.7837 N   0  0  0  1  0  0  0  0  0  0  0  0
   24.0262    2.5938  -57.0736 C   0  0  0  1  0  0  0  0  0  0  0  0
   21.0275    4.3633  -65.1227 N   0  0  0  1  0  0  0  0  0  0  0  0
   22.3750    4.3208  -65.7121 C   0  0  0  1  0  0  0  0  0  0  0  0
   19.9134    6.4305  -64.6341 C   0  0  0  1  0  0  0  0  0  0  0  0
   18.9546    7.3619  -64.9846 C   0  0  0  1  0  0  0  0  0  0  0  0
   18.1715    7.2409  -66.0608 N   0  0  0  1  0  0  0  0  0  0  0  0
   18.3410    6.1522  -66.8244 C   0  0  0  1  0  0  0  0  0  0  0  0
   19.2792    5.1725  -66.5495 C   0  0  0  1  0  0  0  0  0  0  0  0
   27.4790    0.0013  -66.6492 H   0  0  0  1  0  0  0  0  0  0  0  0
   28.5560    1.3052  -60.2732 H   0  0  0  1  0  0  0  0  0  0  0  0
   23.8281    1.9780  -59.4360 H   0  0  0  1  0  0  0  0  0  0  0  0
   24.6045    1.4997  -61.6799 H   0  0  0  1  0  0  0  0  0  0  0  0
   27.7781    1.7843  -58.0256 H   0  0  0  1  0  0  0  0  0  0  0  0
   23.5743    3.5874  -64.0777 H   0  0  0  1  0  0  0  0  0  0  0  0
   21.6229    1.6416  -65.3049 H   0  0  0  1  0  0  0  0  0  0  0  0
   22.1893    1.7031  -63.6529 H   0  0  0  1  0  0  0  0  0  0  0  0
   20.9054    3.6198  -63.1559 H   0  0  0  1  0  0  0  0  0  0  0  0
   19.8474    2.8260  -64.2982 H   0  0  0  1  0  0  0  0  0  0  0  0
   23.8237    2.4760  -66.7463 H   0  0  0  1  0  0  0  0  0  0  0  0
   23.8733    2.7756  -56.0304 H   0  0  0  1  0  0  0  0  0  0  0  0
   23.3537    1.8303  -57.4048 H   0  0  0  1  0  0  0  0  0  0  0  0
   23.8433    3.4937  -57.6228 H   0  0  0  1  0  0  0  0  0  0  0  0
   22.3301    4.0908  -66.7562 H   0  0  0  1  0  0  0  0  0  0  0  0
   22.8844    5.2514  -65.5730 H   0  0  0  1  0  0  0  0  0  0  0  0
   20.4985    6.5663  -63.7851 H   0  0  0  1  0  0  0  0  0  0  0  0
   18.8365    8.1999  -64.3800 H   0  0  0  1  0  0  0  0  0  0  0  0
   17.7383    6.0382  -67.6642 H   0  0  0  1  0  0  0  0  0  0  0  0
   19.3790    4.3450  -67.1715 H   0  0  0  1  0  0  0  0  0  0  0  0
  1  3  4  0  0  0  0
  1 14  4  0  0  0  0
  1 21  1  0  0  0  0
  2 14  4  0  0  0  0
  2 15  4  0  0  0  0
  2 30  1  0  0  0  0
  3 16  4  0  0  0  0
  4  5  4  0  0  0  0
  4  7  4  0  0  0  0
  4 17  1  0  0  0  0
  5  9  4  0  0  0  0
  5 31  1  0  0  0  0
  6  7  4  0  0  0  0
  6  8  4  0  0  0  0
  6 32  1  0  0  0  0
  7 33  1  0  0  0  0
  8  9  4  0  0  0  0
  8 20  1  0  0  0  0
  9 34  1  0  0  0  0
 10 11  1  0  0  0  0
 10 21  1  0  0  0  0
 10 24  1  0  0  0  0
 10 35  1  0  0  0  0
 11 12  1  0  0  0  0
 11 36  1  0  0  0  0
 11 37  1  0  0  0  0
 12 23  1  0  0  0  0
 12 38  1  0  0  0  0
 12 39  1  0  0  0  0
 13 23  1  0  0  0  0
 13 25  4  0  0  0  0
 13 29  4  0  0  0  0
 15 16  4  0  0  0  0
 15 18  4  0  0  0  0
 16 17  4  0  0  0  0
 17 19  4  0  0  0  0
 18 19  4  0  0  0  0
 20 22  1  0  0  0  0
 21 40  1  0  0  0  0
 22 41  1  0  0  0  0
 22 42  1  0  0  0  0
 22 43  1  0  0  0  0
 23 24  1  0  0  0  0
 24 44  1  0  0  0  0
 24 45  1  0  0  0  0
 25 26  4  0  0  0  0
 25 46  1  0  0  0  0
 26 27  4  0  0  0  0
 26 47  1  0  0  0  0
 27 28  4  0  0  0  0
 28 29  4  0  0  0  0
 28 48  1  0  0  0  0
 29 49  1  0  0  0  0
M  END
> <ConfClashScore>
0 

> <ConfOneFourInteractionScore>
-0.986948 

> <ConfScore>
-0.0245295 

> <ConfScorePBest>
0.00459285 

> <ConfTolerance>
0.455067 

> <HETNAM>
     OWQ A 303  OWQ                                                       

> <pdb_OW>
Q_303 -16.5129 3.80749 7.62812 0.15963 1.39178 -0.28144 -3.20151 0 0 0 -1.30514 0 0 0 0 0 0 0 0 -8.31393

$$$$
6yky_lig_1.pdb
 OpenBabel04162415593D

 49 53  0  0  0  0  0  0  0  0999 V2000
   25.1048    1.8137  -65.3759 C   0  0  0  1  0  0  0  0  0  0  0  0
   26.9167    0.5034  -65.9326 C   0  0  0  1  0  0  0  0  0  0  0  0
   25.4179    1.8284  -64.0982 N   0  0  0  1  0  0  0  0  0  0  0  0
   26.7287    1.4700  -61.1391 C   0  0  0  1  0  0  0  0  0  0  0  0
   25.4148    1.7857  -60.8494 C   0  0  0  1  0  0  0  0  0  0  0  0
   27.3921    2.2241  -58.9622 C   0  0  0  1  0  0  0  0  0  0  0  0
   27.7194    1.6919  -60.1952 C   0  0  0  1  0  0  0  0  0  0  0  0
   26.0742    2.5406  -58.6715 C   0  0  0  1  0  0  0  0  0  0  0  0
   25.0867    2.3192  -59.6128 C   0  0  0  1  0  0  0  0  0  0  0  0
   23.4896    2.7578  -67.0366 C   0  0  0  1  0  0  0  0  0  0  0  0
   23.9983    4.0944  -67.5647 C   0  0  0  1  0  0  0  0  0  0  0  0
   23.0752    5.1298  -66.9093 C   0  0  0  1  0  0  0  0  0  0  0  0
   20.6523    4.9399  -66.1932 C   0  0  0  1  0  0  0  0  0  0  0  0
   25.8297    1.1707  -66.2747 N   0  0  0  1  0  0  0  0  0  0  0  0
   27.2964    0.4857  -64.5858 C   0  0  0  1  0  0  0  0  0  0  0  0
   26.4937    1.1852  -63.6615 C   0  0  0  1  0  0  0  0  0  0  0  0
   27.0810    1.0062  -62.4395 N   0  0  0  1  0  0  0  0  0  0  0  0
   28.3159   -0.0766  -63.9004 N   0  0  0  1  0  0  0  0  0  0  0  0
   28.2164    0.2092  -62.6490 N   0  0  0  1  0  0  0  0  0  0  0  0
   25.8759    3.0596  -57.4366 O   0  0  0  1  0  0  0  0  0  0  0  0
   23.9993    2.4986  -65.6891 N   0  0  0  1  0  0  0  0  0  0  0  0
   24.5203    3.3340  -57.0499 C   0  0  0  1  0  0  0  0  0  0  0  0
   21.8330    4.3704  -66.6799 N   0  0  0  1  0  0  0  0  0  0  0  0
   21.9751    2.9391  -67.0220 C   0  0  0  1  0  0  0  0  0  0  0  0
   19.7255    5.5647  -67.0070 C   0  0  0  1  0  0  0  0  0  0  0  0
   18.5859    6.0941  -66.4321 C   0  0  0  1  0  0  0  0  0  0  0  0
   18.3298    6.0375  -65.1215 N   0  0  0  1  0  0  0  0  0  0  0  0
   19.2389    5.4327  -64.3437 C   0  0  0  1  0  0  0  0  0  0  0  0
   20.4047    4.8726  -64.8360 C   0  0  0  1  0  0  0  0  0  0  0  0
   27.4788    0.0013  -66.6492 H   0  0  0  1  0  0  0  0  0  0  0  0
   24.6722    1.6229  -61.5591 H   0  0  0  1  0  0  0  0  0  0  0  0
   28.1347    2.3868  -58.2526 H   0  0  0  1  0  0  0  0  0  0  0  0
   28.7086    1.4582  -60.4147 H   0  0  0  1  0  0  0  0  0  0  0  0
   24.0973    2.5530  -59.3934 H   0  0  0  1  0  0  0  0  0  0  0  0
   23.7732    1.9562  -67.6861 H   0  0  0  1  0  0  0  0  0  0  0  0
   23.9199    4.1362  -68.6310 H   0  0  0  1  0  0  0  0  0  0  0  0
   25.0158    4.2550  -67.2750 H   0  0  0  1  0  0  0  0  0  0  0  0
   22.9033    5.9594  -67.5628 H   0  0  0  1  0  0  0  0  0  0  0  0
   23.4866    5.4816  -65.9862 H   0  0  0  1  0  0  0  0  0  0  0  0
   23.4792    2.8628  -64.9425 H   0  0  0  1  0  0  0  0  0  0  0  0
   24.0922    4.0429  -57.7276 H   0  0  0  1  0  0  0  0  0  0  0  0
   24.5068    3.7357  -56.0583 H   0  0  0  1  0  0  0  0  0  0  0  0
   23.9519    2.4278  -57.0760 H   0  0  0  1  0  0  0  0  0  0  0  0
   21.5501    2.7258  -67.9805 H   0  0  0  1  0  0  0  0  0  0  0  0
   21.5175    2.3166  -66.2818 H   0  0  0  1  0  0  0  0  0  0  0  0
   19.8831    5.6349  -68.0326 H   0  0  0  1  0  0  0  0  0  0  0  0
   17.8921    6.5605  -67.0507 H   0  0  0  1  0  0  0  0  0  0  0  0
   19.0593    5.3820  -63.3207 H   0  0  0  1  0  0  0  0  0  0  0  0
   21.0816    4.4098  -64.1963 H   0  0  0  1  0  0  0  0  0  0  0  0
  1  3  4  0  0  0  0
  1 14  4  0  0  0  0
  1 21  1  0  0  0  0
  2 14  4  0  0  0  0
  2 15  4  0  0  0  0
  2 30  1  0  0  0  0
  3 16  4  0  0  0  0
  4  5  4  0  0  0  0
  4  7  4  0  0  0  0
  4 17  1  0  0  0  0
  5  9  4  0  0  0  0
  5 31  1  0  0  0  0
  6  7  4  0  0  0  0
  6  8  4  0  0  0  0
  6 32  1  0  0  0  0
  7 33  1  0  0  0  0
  8  9  4  0  0  0  0
  8 20  1  0  0  0  0
  9 34  1  0  0  0  0
 10 11  1  0  0  0  0
 10 21  1  0  0  0  0
 10 24  1  0  0  0  0
 10 35  1  0  0  0  0
 11 12  1  0  0  0  0
 11 36  1  0  0  0  0
 11 37  1  0  0  0  0
 12 23  1  0  0  0  0
 12 38  1  0  0  0  0
 12 39  1  0  0  0  0
 13 23  1  0  0  0  0
 13 25  4  0  0  0  0
 13 29  4  0  0  0  0
 15 16  4  0  0  0  0
 15 18  4  0  0  0  0
 16 17  4  0  0  0  0
 17 19  4  0  0  0  0
 18 19  4  0  0  0  0
 20 22  1  0  0  0  0
 21 40  1  0  0  0  0
 22 41  1  0  0  0  0
 22 42  1  0  0  0  0
 22 43  1  0  0  0  0
 23 24  1  0  0  0  0
 24 44  1  0  0  0  0
 24 45  1  0  0  0  0
 25 26  4  0  0  0  0
 25 46  1  0  0  0  0
 26 27  4  0  0  0  0
 26 47  1  0  0  0  0
 27 28  4  0  0  0  0
 28 29  4  0  0  0  0
 28 48  1  0  0  0  0
 29 49  1  0  0  0  0
M  END
> <ConfClashScore>
0 

> <ConfOneFourInteractionScore>
-0.986948 

> <ConfScore>
-0.0243054 

> <ConfScorePBest>
0.00457952 

> <ConfTolerance>
0.728291 

> <HETNAM>
     OWQ A 303  OWQ                                                       

> <pdb_OW>
Q_303 -16.5129 3.80749 7.62812 0.15963 1.39178 -0.28144 -3.20151 0 0 0 -1.30514 0 0 0 0 0 0 0 0 -8.31393

$$$$
6yky_lig_1.pdb
 OpenBabel04162415593D

 49 53  0  0  0  0  0  0  0  0999 V2000
   25.1047    1.8135  -65.3759 C   0  0  0  1  0  0  0  0  0  0  0  0
   26.9167    0.5034  -65.9326 C   0  0  0  1  0  0  0  0  0  0  0  0
   25.4178    1.8283  -64.0982 N   0  0  0  1  0  0  0  0  0  0  0  0
   26.7286    1.4698  -61.1390 C   0  0  0  1  0  0  0  0  0  0  0  0
   27.6433    2.1826  -60.3872 C   0  0  0  1  0  0  0  0  0  0  0  0
   25.1908    1.4992  -59.3000 C   0  0  0  1  0  0  0  0  0  0  0  0
   25.5016    1.1252  -60.5938 C   0  0  0  1  0  0  0  0  0  0  0  0
   26.1081    2.2141  -58.5459 C   0  0  0  1  0  0  0  0  0  0  0  0
   27.3316    2.5576  -59.0896 C   0  0  0  1  0  0  0  0  0  0  0  0
   23.1446    3.2370  -64.8966 C   0  0  0  1  0  0  0  0  0  0  0  0
   21.7902    3.4191  -65.5162 C   0  0  0  1  0  0  0  0  0  0  0  0
   22.0420    4.6172  -66.4737 C   0  0  0  1  0  0  0  0  0  0  0  0
   23.3760    6.7133  -66.0721 C   0  0  0  1  0  0  0  0  0  0  0  0
   25.8297    1.1707  -66.2747 N   0  0  0  1  0  0  0  0  0  0  0  0
   27.2965    0.4857  -64.5856 C   0  0  0  1  0  0  0  0  0  0  0  0
   26.4936    1.1851  -63.6614 C   0  0  0  1  0  0  0  0  0  0  0  0
   27.0809    1.0061  -62.4394 N   0  0  0  1  0  0  0  0  0  0  0  0
   28.3159   -0.0766  -63.9004 N   0  0  0  1  0  0  0  0  0  0  0  0
   28.2164    0.2093  -62.6490 N   0  0  0  1  0  0  0  0  0  0  0  0
   25.9209    2.6246  -57.2861 O   0  0  0  1  0  0  0  0  0  0  0  0
   24.0074    2.4762  -65.7837 N   0  0  0  1  0  0  0  0  0  0  0  0
   27.0125    3.2009  -56.4928 C   0  0  0  1  0  0  0  0  0  0  0  0
   23.0462    5.3610  -65.7588 N   0  0  0  1  0  0  0  0  0  0  0  0
   23.6946    4.6200  -64.6929 C   0  0  0  1  0  0  0  0  0  0  0  0
   22.7640    7.3613  -67.1291 C   0  0  0  1  0  0  0  0  0  0  0  0
   23.1103    8.6725  -67.3951 C   0  0  0  1  0  0  0  0  0  0  0  0
   24.0137    9.3529  -66.6831 N   0  0  0  1  0  0  0  0  0  0  0  0
   24.6024    8.7109  -65.6639 C   0  0  0  1  0  0  0  0  0  0  0  0
   24.3130    7.4006  -65.3255 C   0  0  0  1  0  0  0  0  0  0  0  0
   27.4790    0.0014  -66.6492 H   0  0  0  1  0  0  0  0  0  0  0  0
   28.5655    2.4377  -60.7949 H   0  0  0  1  0  0  0  0  0  0  0  0
   24.2687    1.2441  -58.8924 H   0  0  0  1  0  0  0  0  0  0  0  0
   24.8149    0.5854  -61.1583 H   0  0  0  1  0  0  0  0  0  0  0  0
   28.0182    3.0975  -58.5252 H   0  0  0  1  0  0  0  0  0  0  0  0
   23.0594    2.7288  -63.9588 H   0  0  0  1  0  0  0  0  0  0  0  0
   21.0526    3.6574  -64.7787 H   0  0  0  1  0  0  0  0  0  0  0  0
   21.4871    2.5459  -66.0553 H   0  0  0  1  0  0  0  0  0  0  0  0
   22.4057    4.2862  -67.4241 H   0  0  0  1  0  0  0  0  0  0  0  0
   21.1538    5.1971  -66.6135 H   0  0  0  1  0  0  0  0  0  0  0  0
   23.7764    2.4437  -66.7355 H   0  0  0  1  0  0  0  0  0  0  0  0
   27.4168    4.0491  -57.0047 H   0  0  0  1  0  0  0  0  0  0  0  0
   27.7797    2.4677  -56.3567 H   0  0  0  1  0  0  0  0  0  0  0  0
   26.6368    3.5063  -55.5386 H   0  0  0  1  0  0  0  0  0  0  0  0
   24.7591    4.6351  -64.8007 H   0  0  0  1  0  0  0  0  0  0  0  0
   23.4275    5.0072  -63.7319 H   0  0  0  1  0  0  0  0  0  0  0  0
   22.0565    6.8714  -67.7129 H   0  0  0  1  0  0  0  0  0  0  0  0
   22.6441    9.1543  -68.1901 H   0  0  0  1  0  0  0  0  0  0  0  0
   25.3111    9.2225  -65.1003 H   0  0  0  1  0  0  0  0  0  0  0  0
   24.7918    6.9422  -64.5241 H   0  0  0  1  0  0  0  0  0  0  0  0
  1  3  4  0  0  0  0
  1 14  4  0  0  0  0
  1 21  1  0  0  0  0
  2 14  4  0  0  0  0
  2 15  4  0  0  0  0
  2 30  1  0  0  0  0
  3 16  4  0  0  0  0
  4  5  4  0  0  0  0
  4  7  4  0  0  0  0
  4 17  1  0  0  0  0
  5  9  4  0  0  0  0
  5 31  1  0  0  0  0
  6  7  4  0  0  0  0
  6  8  4  0  0  0  0
  6 32  1  0  0  0  0
  7 33  1  0  0  0  0
  8  9  4  0  0  0  0
  8 20  1  0  0  0  0
  9 34  1  0  0  0  0
 10 11  1  0  0  0  0
 10 21  1  0  0  0  0
 10 24  1  0  0  0  0
 10 35  1  0  0  0  0
 11 12  1  0  0  0  0
 11 36  1  0  0  0  0
 11 37  1  0  0  0  0
 12 23  1  0  0  0  0
 12 38  1  0  0  0  0
 12 39  1  0  0  0  0
 13 23  1  0  0  0  0
 13 25  4  0  0  0  0
 13 29  4  0  0  0  0
 15 16  4  0  0  0  0
 15 18  4  0  0  0  0
 16 17  4  0  0  0  0
 17 19  4  0  0  0  0
 18 19  4  0  0  0  0
 20 22  1  0  0  0  0
 21 40  1  0  0  0  0
 22 41  1  0  0  0  0
 22 42  1  0  0  0  0
 22 43  1  0  0  0  0
 23 24  1  0  0  0  0
 24 44  1  0  0  0  0
 24 45  1  0  0  0  0
 25 26  4  0  0  0  0
 25 46  1  0  0  0  0
 26 27  4  0  0  0  0
 26 47  1  0  0  0  0
 27 28  4  0  0  0  0
 28 29  4  0  0  0  0
 28 48  1  0  0  0  0
 29 49  1  0  0  0  0
M  END
> <ConfClashScore>
0 

> <ConfOneFourInteractionScore>
-0.984874 

> <ConfScore>
-0.0227727 

> <ConfScorePBest>
0.00456619 

> <ConfTolerance>
0.62159 

> <HETNAM>
     OWQ A 303  OWQ                                                       

> <pdb_OW>
Q_303 -16.5129 3.80749 7.62812 0.15963 1.39178 -0.28144 -3.20151 0 0 0 -1.30514 0 0 0 0 0 0 0 0 -8.31393

$$$$
6yky_lig_1.pdb
 OpenBabel04162415593D

 49 53  0  0  0  0  0  0  0  0999 V2000
   25.1048    1.8136  -65.3760 C   0  0  0  1  0  0  0  0  0  0  0  0
   26.9167    0.5034  -65.9326 C   0  0  0  1  0  0  0  0  0  0  0  0
   25.4178    1.8284  -64.0982 N   0  0  0  1  0  0  0  0  0  0  0  0
   26.7670    1.4473  -61.1215 C   0  0  0  1  0  0  0  0  0  0  0  0
   25.9802    2.5683  -60.9361 C   0  0  0  1  0  0  0  0  0  0  0  0
   27.0958    1.2834  -58.7525 C   0  0  0  1  0  0  0  0  0  0  0  0
   27.3279    0.8054  -60.0284 C   0  0  0  1  0  0  0  0  0  0  0  0
   26.3066    2.4077  -58.5663 C   0  0  0  1  0  0  0  0  0  0  0  0
   25.7476    3.0477  -59.6564 C   0  0  0  1  0  0  0  0  0  0  0  0
   23.5670    2.5398  -67.1664 C   0  0  0  1  0  0  0  0  0  0  0  0
   23.4757    4.0025  -67.6552 C   0  0  0  1  0  0  0  0  0  0  0  0
   22.2262    4.1251  -68.4903 C   0  0  0  1  0  0  0  0  0  0  0  0
   20.1764    2.5238  -68.5747 C   0  0  0  1  0  0  0  0  0  0  0  0
   25.8296    1.1707  -66.2748 N   0  0  0  1  0  0  0  0  0  0  0  0
   27.2965    0.4857  -64.5858 C   0  0  0  1  0  0  0  0  0  0  0  0
   26.4937    1.1851  -63.6614 C   0  0  0  1  0  0  0  0  0  0  0  0
   27.0810    1.0062  -62.4395 N   0  0  0  1  0  0  0  0  0  0  0  0
   28.3159   -0.0766  -63.9004 N   0  0  0  1  0  0  0  0  0  0  0  0
   28.2164    0.2092  -62.6490 N   0  0  0  1  0  0  0  0  0  0  0  0
   26.1547    2.7852  -57.2747 O   0  0  0  1  0  0  0  0  0  0  0  0
   24.0075    2.4763  -65.7837 N   0  0  0  1  0  0  0  0  0  0  0  0
   25.2477    3.8666  -57.0094 C   0  0  0  1  0  0  0  0  0  0  0  0
   21.4777    2.8313  -68.1019 N   0  0  0  1  0  0  0  0  0  0  0  0
   22.1389    2.0512  -67.3080 C   0  0  0  1  0  0  0  0  0  0  0  0
   20.0575    1.7127  -69.6881 C   0  0  0  1  0  0  0  0  0  0  0  0
   18.7991    1.4802  -70.2096 C   0  0  0  1  0  0  0  0  0  0  0  0
   17.6820    2.0027  -69.6945 N   0  0  0  1  0  0  0  0  0  0  0  0
   17.8125    2.7906  -68.6177 C   0  0  0  1  0  0  0  0  0  0  0  0
   19.0327    3.0734  -68.0291 C   0  0  0  1  0  0  0  0  0  0  0  0
   27.4789    0.0013  -66.6492 H   0  0  0  1  0  0  0  0  0  0  0  0
   25.5627    3.0522  -61.7566 H   0  0  0  1  0  0  0  0  0  0  0  0
   27.5133    0.7995  -57.9320 H   0  0  0  1  0  0  0  0  0  0  0  0
   27.9232   -0.0358  -60.1683 H   0  0  0  1  0  0  0  0  0  0  0  0
   25.1522    3.8888  -59.5166 H   0  0  0  1  0  0  0  0  0  0  0  0
   24.2325    1.9690  -67.7798 H   0  0  0  1  0  0  0  0  0  0  0  0
   24.3346    4.2444  -68.2456 H   0  0  0  1  0  0  0  0  0  0  0  0
   23.4208    4.6648  -66.8166 H   0  0  0  1  0  0  0  0  0  0  0  0
   22.4540    4.1474  -69.5355 H   0  0  0  1  0  0  0  0  0  0  0  0
   21.6638    4.9969  -68.2285 H   0  0  0  1  0  0  0  0  0  0  0  0
   23.4737    2.9439  -65.1079 H   0  0  0  1  0  0  0  0  0  0  0  0
   25.0955    3.9542  -55.9538 H   0  0  0  1  0  0  0  0  0  0  0  0
   24.3115    3.6724  -57.4896 H   0  0  0  1  0  0  0  0  0  0  0  0
   25.6603    4.7787  -57.3869 H   0  0  0  1  0  0  0  0  0  0  0  0
   22.1426    1.0592  -67.7090 H   0  0  0  1  0  0  0  0  0  0  0  0
   21.6700    2.0458  -66.3461 H   0  0  0  1  0  0  0  0  0  0  0  0
   20.8992    1.2858  -70.1249 H   0  0  0  1  0  0  0  0  0  0  0  0
   18.7171    0.8671  -71.0457 H   0  0  0  1  0  0  0  0  0  0  0  0
   16.9551    3.2097  -68.2046 H   0  0  0  1  0  0  0  0  0  0  0  0
   19.0874    3.6879  -67.1918 H   0  0  0  1  0  0  0  0  0  0  0  0
  1  3  4  0  0  0  0
  1 14  4  0  0  0  0
  1 21  1  0  0  0  0
  2 14  4  0  0  0  0
  2 15  4  0  0  0  0
  2 30  1  0  0  0  0
  3 16  4  0  0  0  0
  4  5  4  0  0  0  0
  4  7  4  0  0  0  0
  4 17  1  0  0  0  0
  5  9  4  0  0  0  0
  5 31  1  0  0  0  0
  6  7  4  0  0  0  0
  6  8  4  0  0  0  0
  6 32  1  0  0  0  0
  7 33  1  0  0  0  0
  8  9  4  0  0  0  0
  8 20  1  0  0  0  0
  9 34  1  0  0  0  0
 10 11  1  0  0  0  0
 10 21  1  0  0  0  0
 10 24  1  0  0  0  0
 10 35  1  0  0  0  0
 11 12  1  0  0  0  0
 11 36  1  0  0  0  0
 11 37  1  0  0  0  0
 12 23  1  0  0  0  0
 12 38  1  0  0  0  0
 12 39  1  0  0  0  0
 13 23  1  0  0  0  0
 13 25  4  0  0  0  0
 13 29  4  0  0  0  0
 15 16  4  0  0  0  0
 15 18  4  0  0  0  0
 16 17  4  0  0  0  0
 17 19  4  0  0  0  0
 18 19  4  0  0  0  0
 20 22  1  0  0  0  0
 21 40  1  0  0  0  0
 22 41  1  0  0  0  0
 22 42  1  0  0  0  0
 22 43  1  0  0  0  0
 23 24  1  0  0  0  0
 24 44  1  0  0  0  0
 24 45  1  0  0  0  0
 25 26  4  0  0  0  0
 25 46  1  0  0  0  0
 26 27  4  0  0  0  0
 26 47  1  0  0  0  0
 27 28  4  0  0  0  0
 28 29  4  0  0  0  0
 28 48  1  0  0  0  0
 29 49  1  0  0  0  0
M  END
> <ConfClashScore>
0 

> <ConfOneFourInteractionScore>
-0.986948 

> <ConfScore>
-0.0211729 

> <ConfScorePBest>
0.00455286 

> <ConfTolerance>
0.499495 

> <HETNAM>
     OWQ A 303  OWQ                                                       

> <pdb_OW>
Q_303 -16.5129 3.80749 7.62812 0.15963 1.39178 -0.28144 -3.20151 0 0 0 -1.30514 0 0 0 0 0 0 0 0 -8.31393

$$$$
6yky_lig_1.pdb
 OpenBabel04162415593D

 49 53  0  0  0  0  0  0  0  0999 V2000
   25.1047    1.8135  -65.3760 C   0  0  0  1  0  0  0  0  0  0  0  0
   26.9167    0.5034  -65.9326 C   0  0  0  1  0  0  0  0  0  0  0  0
   25.4178    1.8283  -64.0982 N   0  0  0  1  0  0  0  0  0  0  0  0
   26.6877    1.3784  -61.1215 C   0  0  0  1  0  0  0  0  0  0  0  0
   26.4868    0.3667  -60.2016 C   0  0  0  1  0  0  0  0  0  0  0  0
   25.9525    2.9934  -59.5095 C   0  0  0  1  0  0  0  0  0  0  0  0
   26.4175    2.6934  -60.7760 C   0  0  0  1  0  0  0  0  0  0  0  0
   25.7509    1.9789  -58.5866 C   0  0  0  1  0  0  0  0  0  0  0  0
   26.0203    0.6678  -58.9314 C   0  0  0  1  0  0  0  0  0  0  0  0
   23.6420    2.4889  -67.2413 C   0  0  0  1  0  0  0  0  0  0  0  0
   22.6391    3.6289  -67.5712 C   0  0  0  1  0  0  0  0  0  0  0  0
   21.8092    3.1778  -68.7915 C   0  0  0  1  0  0  0  0  0  0  0  0
   21.6214    0.8605  -69.8458 C   0  0  0  1  0  0  0  0  0  0  0  0
   25.8297    1.1707  -66.2748 N   0  0  0  1  0  0  0  0  0  0  0  0
   27.2965    0.4857  -64.5857 C   0  0  0  1  0  0  0  0  0  0  0  0
   26.4936    1.1852  -63.6614 C   0  0  0  1  0  0  0  0  0  0  0  0
   27.0809    1.0061  -62.4395 N   0  0  0  1  0  0  0  0  0  0  0  0
   28.3159   -0.0766  -63.9004 N   0  0  0  1  0  0  0  0  0  0  0  0
   28.2164    0.2092  -62.6490 N   0  0  0  1  0  0  0  0  0  0  0  0
   25.2929    2.2046  -57.3324 O   0  0  0  1  0  0  0  0  0  0  0  0
   23.9998    2.4734  -65.8284 N   0  0  0  1  0  0  0  0  0  0  0  0
   25.1077    3.5731  -56.9378 C   0  0  0  1  0  0  0  0  0  0  0  0
   22.0448    1.7066  -68.8236 N   0  0  0  1  0  0  0  0  0  0  0  0
   22.7852    1.2683  -67.6292 C   0  0  0  1  0  0  0  0  0  0  0  0
   20.7784    1.3225  -70.8395 C   0  0  0  1  0  0  0  0  0  0  0  0
   20.3861    0.4503  -71.8370 C   0  0  0  1  0  0  0  0  0  0  0  0
   20.7775   -0.8264  -71.8927 N   0  0  0  1  0  0  0  0  0  0  0  0
   21.5913   -1.2621  -70.9205 C   0  0  0  1  0  0  0  0  0  0  0  0
   22.0357   -0.4565  -69.8866 C   0  0  0  1  0  0  0  0  0  0  0  0
   27.4790    0.0014  -66.6492 H   0  0  0  1  0  0  0  0  0  0  0  0
   26.6856   -0.6202  -60.4622 H   0  0  0  1  0  0  0  0  0  0  0  0
   25.7536    3.9804  -59.2488 H   0  0  0  1  0  0  0  0  0  0  0  0
   26.5650    3.4542  -61.4696 H   0  0  0  1  0  0  0  0  0  0  0  0
   25.8730   -0.0931  -58.2378 H   0  0  0  1  0  0  0  0  0  0  0  0
   24.5304    2.5563  -67.8340 H   0  0  0  1  0  0  0  0  0  0  0  0
   23.1713    4.5276  -67.8036 H   0  0  0  1  0  0  0  0  0  0  0  0
   21.9944    3.8016  -66.7349 H   0  0  0  1  0  0  0  0  0  0  0  0
   22.1587    3.6439  -69.6890 H   0  0  0  1  0  0  0  0  0  0  0  0
   20.7713    3.3992  -68.6549 H   0  0  0  1  0  0  0  0  0  0  0  0
   23.4321    2.9494  -65.1869 H   0  0  0  1  0  0  0  0  0  0  0  0
   26.0451    4.0871  -56.9808 H   0  0  0  1  0  0  0  0  0  0  0  0
   24.7277    3.6074  -55.9382 H   0  0  0  1  0  0  0  0  0  0  0  0
   24.4122    4.0440  -57.6007 H   0  0  0  1  0  0  0  0  0  0  0  0
   22.1112    1.0122  -66.8386 H   0  0  0  1  0  0  0  0  0  0  0  0
   23.4059    0.4267  -67.8561 H   0  0  0  1  0  0  0  0  0  0  0  0
   20.4458    2.3079  -70.8363 H   0  0  0  1  0  0  0  0  0  0  0  0
   19.7538    0.8055  -72.5825 H   0  0  0  1  0  0  0  0  0  0  0  0
   21.9037   -2.2537  -70.9444 H   0  0  0  1  0  0  0  0  0  0  0  0
   22.6696   -0.8356  -69.1544 H   0  0  0  1  0  0  0  0  0  0  0  0
  1  3  4  0  0  0  0
  1 14  4  0  0  0  0
  1 21  1  0  0  0  0
  2 14  4  0  0  0  0
  2 15  4  0  0  0  0
  2 30  1  0  0  0  0
  3 16  4  0  0  0  0
  4  5  4  0  0  0  0
  4  7  4  0  0  0  0
  4 17  1  0  0  0  0
  5  9  4  0  0  0  0
  5 31  1  0  0  0  0
  6  7  4  0  0  0  0
  6  8  4  0  0  0  0
  6 32  1  0  0  0  0
  7 33  1  0  0  0  0
  8  9  4  0  0  0  0
  8 20  1  0  0  0  0
  9 34  1  0  0  0  0
 10 11  1  0  0  0  0
 10 21  1  0  0  0  0
 10 24  1  0  0  0  0
 10 35  1  0  0  0  0
 11 12  1  0  0  0  0
 11 36  1  0  0  0  0
 11 37  1  0  0  0  0
 12 23  1  0  0  0  0
 12 38  1  0  0  0  0
 12 39  1  0  0  0  0
 13 23  1  0  0  0  0
 13 25  4  0  0  0  0
 13 29  4  0  0  0  0
 15 16  4  0  0  0  0
 15 18  4  0  0  0  0
 16 17  4  0  0  0  0
 17 19  4  0  0  0  0
 18 19  4  0  0  0  0
 20 22  1  0  0  0  0
 21 40  1  0  0  0  0
 22 41  1  0  0  0  0
 22 42  1  0  0  0  0
 22 43  1  0  0  0  0
 23 24  1  0  0  0  0
 24 44  1  0  0  0  0
 24 45  1  0  0  0  0
 25 26  4  0  0  0  0
 25 46  1  0  0  0  0
 26 27  4  0  0  0  0
 26 47  1  0  0  0  0
 27 28  4  0  0  0  0
 28 29  4  0  0  0  0
 28 48  1  0  0  0  0
 29 49  1  0  0  0  0
M  END
> <ConfClashScore>
0 

> <ConfOneFourInteractionScore>
-0.984874 

> <ConfScore>
-0.0209873 

> <ConfScorePBest>
0.00453953 

> <ConfTolerance>
0.359035 

> <HETNAM>
     OWQ A 303  OWQ                                                       

> <pdb_OW>
Q_303 -16.5129 3.80749 7.62812 0.15963 1.39178 -0.28144 -3.20151 0 0 0 -1.30514 0 0 0 0 0 0 0 0 -8.31393

$$$$
6yky_lig_1.pdb
 OpenBabel04162415593D

 49 53  0  0  0  0  0  0  0  0999 V2000
   25.1046    1.8133  -65.3759 C   0  0  0  1  0  0  0  0  0  0  0  0
   26.9167    0.5034  -65.9326 C   0  0  0  1  0  0  0  0  0  0  0  0
   25.4177    1.8281  -64.0981 N   0  0  0  1  0  0  0  0  0  0  0  0
   26.6540    1.4117  -61.1419 C   0  0  0  1  0  0  0  0  0  0  0  0
   25.3808    1.1002  -60.7035 C   0  0  0  1  0  0  0  0  0  0  0  0
   27.0404    2.6662  -59.1359 C   0  0  0  1  0  0  0  0  0  0  0  0
   27.4841    2.1980  -60.3583 C   0  0  0  1  0  0  0  0  0  0  0  0
   25.7634    2.3539  -58.6960 C   0  0  0  1  0  0  0  0  0  0  0  0
   24.9360    1.5697  -59.4776 C   0  0  0  1  0  0  0  0  0  0  0  0
   23.4809    2.4179  -67.1727 C   0  0  0  1  0  0  0  0  0  0  0  0
   22.6385    3.6769  -67.4758 C   0  0  0  1  0  0  0  0  0  0  0  0
   21.4201    3.2335  -68.2457 C   0  0  0  1  0  0  0  0  0  0  0  0
   20.4267    0.8403  -68.4525 C   0  0  0  1  0  0  0  0  0  0  0  0
   25.8295    1.1706  -66.2747 N   0  0  0  1  0  0  0  0  0  0  0  0
   27.2964    0.4857  -64.5857 C   0  0  0  1  0  0  0  0  0  0  0  0
   26.4935    1.1850  -63.6613 C   0  0  0  1  0  0  0  0  0  0  0  0
   27.0808    1.0060  -62.4394 N   0  0  0  1  0  0  0  0  0  0  0  0
   28.3158   -0.0766  -63.9004 N   0  0  0  1  0  0  0  0  0  0  0  0
   28.2164    0.2092  -62.6490 N   0  0  0  1  0  0  0  0  0  0  0  0
   25.4384    2.8722  -57.4879 O   0  0  0  1  0  0  0  0  0  0  0  0
   24.0210    2.4604  -65.8195 N   0  0  0  1  0  0  0  0  0  0  0  0
   24.2475    2.3734  -56.8587 C   0  0  0  1  0  0  0  0  0  0  0  0
   21.4431    1.7103  -67.9923 N   0  0  0  1  0  0  0  0  0  0  0  0
   22.4713    1.2969  -67.3230 C   0  0  0  1  0  0  0  0  0  0  0  0
   20.3947    0.3319  -69.7379 C   0  0  0  1  0  0  0  0  0  0  0  0
   19.3615   -0.5146  -70.0924 C   0  0  0  1  0  0  0  0  0  0  0  0
   18.3821   -0.8693  -69.2550 N   0  0  0  1  0  0  0  0  0  0  0  0
   18.4233   -0.3656  -68.0133 C   0  0  0  1  0  0  0  0  0  0  0  0
   19.4223    0.4853  -67.5735 C   0  0  0  1  0  0  0  0  0  0  0  0
   27.4790    0.0014  -66.6491 H   0  0  0  1  0  0  0  0  0  0  0  0
   24.7567    0.5135  -61.2933 H   0  0  0  1  0  0  0  0  0  0  0  0
   27.6645    3.2529  -58.5461 H   0  0  0  1  0  0  0  0  0  0  0  0
   28.4406    2.4357  -60.6901 H   0  0  0  1  0  0  0  0  0  0  0  0
   23.9794    1.3321  -59.1457 H   0  0  0  1  0  0  0  0  0  0  0  0
   24.2821    2.3120  -67.8739 H   0  0  0  1  0  0  0  0  0  0  0  0
   22.3415    4.1463  -66.5611 H   0  0  0  1  0  0  0  0  0  0  0  0
   23.2098    4.3662  -68.0617 H   0  0  0  1  0  0  0  0  0  0  0  0
   21.5115    3.4589  -69.2877 H   0  0  0  1  0  0  0  0  0  0  0  0
   20.5282    3.6816  -67.8601 H   0  0  0  1  0  0  0  0  0  0  0  0
   23.5433    3.0180  -65.1706 H   0  0  0  1  0  0  0  0  0  0  0  0
   23.9809    3.0116  -56.0423 H   0  0  0  1  0  0  0  0  0  0  0  0
   24.4251    1.3833  -56.4940 H   0  0  0  1  0  0  0  0  0  0  0  0
   23.4495    2.3538  -57.5713 H   0  0  0  1  0  0  0  0  0  0  0  0
   22.1553    0.9732  -66.3534 H   0  0  0  1  0  0  0  0  0  0  0  0
   22.9256    0.4791  -67.8422 H   0  0  0  1  0  0  0  0  0  0  0  0
   21.1343    0.5819  -70.4251 H   0  0  0  1  0  0  0  0  0  0  0  0
   19.3453   -0.8951  -71.0600 H   0  0  0  1  0  0  0  0  0  0  0  0
   17.6678   -0.6270  -67.3481 H   0  0  0  1  0  0  0  0  0  0  0  0
   19.4168    0.8503  -66.5997 H   0  0  0  1  0  0  0  0  0  0  0  0
  1  3  4  0  0  0  0
  1 14  4  0  0  0  0
  1 21  1  0  0  0  0
  2 14  4  0  0  0  0
  2 15  4  0  0  0  0
  2 30  1  0  0  0  0
  3 16  4  0  0  0  0
  4  5  4  0  0  0  0
  4  7  4  0  0  0  0
  4 17  1  0  0  0  0
  5  9  4  0  0  0  0
  5 31  1  0  0  0  0
  6  7  4  0  0  0  0
  6  8  4  0  0  0  0
  6 32  1  0  0  0  0
  7 33  1  0  0  0  0
  8  9  4  0  0  0  0
  8 20  1  0  0  0  0
  9 34  1  0  0  0  0
 10 11  1  0  0  0  0
 10 21  1  0  0  0  0
 10 24  1  0  0  0  0
 10 35  1  0  0  0  0
 11 12  1  0  0  0  0
 11 36  1  0  0  0  0
 11 37  1  0  0  0  0
 12 23  1  0  0  0  0
 12 38  1  0  0  0  0
 12 39  1  0  0  0  0
 13 23  1  0  0  0  0
 13 25  4  0  0  0  0
 13 29  4  0  0  0  0
 15 16  4  0  0  0  0
 15 18  4  0  0  0  0
 16 17  4  0  0  0  0
 17 19  4  0  0  0  0
 18 19  4  0  0  0  0
 20 22  1  0  0  0  0
 21 40  1  0  0  0  0
 22 41  1  0  0  0  0
 22 42  1  0  0  0  0
 22 43  1  0  0  0  0
 23 24  1  0  0  0  0
 24 44  1  0  0  0  0
 24 45  1  0  0  0  0
 25 26  4  0  0  0  0
 25 46  1  0  0  0  0
 26 27  4  0  0  0  0
 26 47  1  0  0  0  0
 27 28  4  0  0  0  0
 28 29  4  0  0  0  0
 28 48  1  0  0  0  0
 29 49  1  0  0  0  0
M  END
> <ConfClashScore>
0 

> <ConfOneFourInteractionScore>
-0.986948 

> <ConfScore>
-0.0198018 

> <ConfScorePBest>
0.00452621 

> <ConfTolerance>
0.582448 

> <HETNAM>
     OWQ A 303  OWQ                                                       

> <pdb_OW>
Q_303 -16.5129 3.80749 7.62812 0.15963 1.39178 -0.28144 -3.20151 0 0 0 -1.30514 0 0 0 0 0 0 0 0 -8.31393

$$$$
6yky_lig_1.pdb
 OpenBabel04162415593D

 49 53  0  0  0  0  0  0  0  0999 V2000
   25.1047    1.8135  -65.3759 C   0  0  0  1  0  0  0  0  0  0  0  0
   26.9167    0.5034  -65.9326 C   0  0  0  1  0  0  0  0  0  0  0  0
   25.4178    1.8283  -64.0982 N   0  0  0  1  0  0  0  0  0  0  0  0
   26.7669    1.4472  -61.1215 C   0  0  0  1  0  0  0  0  0  0  0  0
   26.8970    0.5809  -60.0525 C   0  0  0  1  0  0  0  0  0  0  0  0
   25.8560    3.1160  -59.6612 C   0  0  0  1  0  0  0  0  0  0  0  0
   26.2432    2.7157  -60.9261 C   0  0  0  1  0  0  0  0  0  0  0  0
   25.9864    2.2473  -58.5888 C   0  0  0  1  0  0  0  0  0  0  0  0
   26.5086    0.9826  -58.7838 C   0  0  0  1  0  0  0  0  0  0  0  0
   23.5781    2.8007  -67.0534 C   0  0  0  1  0  0  0  0  0  0  0  0
   24.7279    3.3671  -67.8337 C   0  0  0  1  0  0  0  0  0  0  0  0
   24.7051    4.8563  -67.3891 C   0  0  0  1  0  0  0  0  0  0  0  0
   22.7346    6.3672  -67.0507 C   0  0  0  1  0  0  0  0  0  0  0  0
   25.8296    1.1707  -66.2748 N   0  0  0  1  0  0  0  0  0  0  0  0
   27.2965    0.4857  -64.5857 C   0  0  0  1  0  0  0  0  0  0  0  0
   26.4936    1.1851  -63.6614 C   0  0  0  1  0  0  0  0  0  0  0  0
   27.0809    1.0061  -62.4395 N   0  0  0  1  0  0  0  0  0  0  0  0
   28.3159   -0.0766  -63.9004 N   0  0  0  1  0  0  0  0  0  0  0  0
   28.2164    0.2093  -62.6490 N   0  0  0  1  0  0  0  0  0  0  0  0
   25.6379    2.5248  -57.3101 O   0  0  0  1  0  0  0  0  0  0  0  0
   23.9888    2.5047  -65.6920 N   0  0  0  1  0  0  0  0  0  0  0  0
   25.0880    3.8252  -57.0473 C   0  0  0  1  0  0  0  0  0  0  0  0
   23.3003    5.0757  -67.1627 N   0  0  0  1  0  0  0  0  0  0  0  0
   22.5137    3.8609  -67.0589 C   0  0  0  1  0  0  0  0  0  0  0  0
   21.3624    6.5369  -67.0372 C   0  0  0  1  0  0  0  0  0  0  0  0
   20.8519    7.8159  -66.9224 C   0  0  0  1  0  0  0  0  0  0  0  0
   21.6178    8.9069  -66.8258 N   0  0  0  1  0  0  0  0  0  0  0  0
   22.9463    8.7282  -66.8445 C   0  0  0  1  0  0  0  0  0  0  0  0
   23.5420    7.4836  -66.9527 C   0  0  0  1  0  0  0  0  0  0  0  0
   27.4790    0.0014  -66.6491 H   0  0  0  1  0  0  0  0  0  0  0  0
   27.2862   -0.3722  -60.1998 H   0  0  0  1  0  0  0  0  0  0  0  0
   25.4668    4.0691  -59.5138 H   0  0  0  1  0  0  0  0  0  0  0  0
   26.1416    3.3660  -61.7313 H   0  0  0  1  0  0  0  0  0  0  0  0
   26.6103    0.3321  -57.9787 H   0  0  0  1  0  0  0  0  0  0  0  0
   23.2162    1.9081  -67.5195 H   0  0  0  1  0  0  0  0  0  0  0  0
   25.6503    2.8946  -67.5676 H   0  0  0  1  0  0  0  0  0  0  0  0
   24.5688    3.2721  -68.8875 H   0  0  0  1  0  0  0  0  0  0  0  0
   25.0802    5.4981  -68.1586 H   0  0  0  1  0  0  0  0  0  0  0  0
   25.2715    5.0038  -66.4934 H   0  0  0  1  0  0  0  0  0  0  0  0
   23.4224    2.8257  -64.9595 H   0  0  0  1  0  0  0  0  0  0  0  0
   25.8118    4.5748  -57.2903 H   0  0  0  1  0  0  0  0  0  0  0  0
   24.8309    3.9007  -56.0113 H   0  0  0  1  0  0  0  0  0  0  0  0
   24.2118    3.9690  -57.6442 H   0  0  0  1  0  0  0  0  0  0  0  0
   21.8580    3.7494  -67.8972 H   0  0  0  1  0  0  0  0  0  0  0  0
   21.9427    3.8433  -66.1541 H   0  0  0  1  0  0  0  0  0  0  0  0
   20.7265    5.7173  -67.1122 H   0  0  0  1  0  0  0  0  0  0  0  0
   19.8189    7.9356  -66.9103 H   0  0  0  1  0  0  0  0  0  0  0  0
   23.5592    9.5655  -66.7743 H   0  0  0  1  0  0  0  0  0  0  0  0
   24.5778    7.3908  -66.9602 H   0  0  0  1  0  0  0  0  0  0  0  0
  1  3  4  0  0  0  0
  1 14  4  0  0  0  0
  1 21  1  0  0  0  0
  2 14  4  0  0  0  0
  2 15  4  0  0  0  0
  2 30  1  0  0  0  0
  3 16  4  0  0  0  0
  4  5  4  0  0  0  0
  4  7  4  0  0  0  0
  4 17  1  0  0  0  0
  5  9  4  0  0  0  0
  5 31  1  0  0  0  0
  6  7  4  0  0  0  0
  6  8  4  0  0  0  0
  6 32  1  0  0  0  0
  7 33  1  0  0  0  0
  8  9  4  0  0  0  0
  8 20  1  0  0  0  0
  9 34  1  0  0  0  0
 10 11  1  0  0  0  0
 10 21  1  0  0  0  0
 10 24  1  0  0  0  0
 10 35  1  0  0  0  0
 11 12  1  0  0  0  0
 11 36  1  0  0  0  0
 11 37  1  0  0  0  0
 12 23  1  0  0  0  0
 12 38  1  0  0  0  0
 12 39  1  0  0  0  0
 13 23  1  0  0  0  0
 13 25  4  0  0  0  0
 13 29  4  0  0  0  0
 15 16  4  0  0  0  0
 15 18  4  0  0  0  0
 16 17  4  0  0  0  0
 17 19  4  0  0  0  0
 18 19  4  0  0  0  0
 20 22  1  0  0  0  0
 21 40  1  0  0  0  0
 22 41  1  0  0  0  0
 22 42  1  0  0  0  0
 22 43  1  0  0  0  0
 23 24  1  0  0  0  0
 24 44  1  0  0  0  0
 24 45  1  0  0  0  0
 25 26  4  0  0  0  0
 25 46  1  0  0  0  0
 26 27  4  0  0  0  0
 26 47  1  0  0  0  0
 27 28  4  0  0  0  0
 28 29  4  0  0  0  0
 28 48  1  0  0  0  0
 29 49  1  0  0  0  0
M  END
> <ConfClashScore>
0 

> <ConfOneFourInteractionScore>
-0.987833 

> <ConfScore>
-0.0196037 

> <ConfScorePBest>
0.00451288 

> <ConfTolerance>
0.554298 

> <HETNAM>
     OWQ A 303  OWQ                                                       

> <pdb_OW>
Q_303 -16.5129 3.80749 7.62812 0.15963 1.39178 -0.28144 -3.20151 0 0 0 -1.30514 0 0 0 0 0 0 0 0 -8.31393

$$$$
6yky_lig_1.pdb
 OpenBabel04162415593D

 49 53  0  0  0  0  0  0  0  0999 V2000
   25.1047    1.8135  -65.3761 C   0  0  0  1  0  0  0  0  0  0  0  0
   26.9167    0.5034  -65.9326 C   0  0  0  1  0  0  0  0  0  0  0  0
   25.4178    1.8283  -64.0983 N   0  0  0  1  0  0  0  0  0  0  0  0
   26.6855    1.4950  -61.1608 C   0  0  0  1  0  0  0  0  0  0  0  0
   25.5138    2.2243  -61.0865 C   0  0  0  1  0  0  0  0  0  0  0  0
   27.0936    1.9094  -58.8351 C   0  0  0  1  0  0  0  0  0  0  0  0
   27.4779    1.3395  -60.0342 C   0  0  0  1  0  0  0  0  0  0  0  0
   25.9186    2.6409  -58.7604 C   0  0  0  1  0  0  0  0  0  0  0  0
   25.1286    2.7958  -59.8839 C   0  0  0  1  0  0  0  0  0  0  0  0
   23.1567    3.2547  -64.9005 C   0  0  0  1  0  0  0  0  0  0  0  0
   21.7125    3.3315  -65.4435 C   0  0  0  1  0  0  0  0  0  0  0  0
   21.2178    4.7384  -65.2206 C   0  0  0  1  0  0  0  0  0  0  0  0
   22.6102    6.8774  -64.7291 C   0  0  0  1  0  0  0  0  0  0  0  0
   25.8297    1.1706  -66.2748 N   0  0  0  1  0  0  0  0  0  0  0  0
   27.2965    0.4857  -64.5857 C   0  0  0  1  0  0  0  0  0  0  0  0
   26.4937    1.1852  -63.6614 C   0  0  0  1  0  0  0  0  0  0  0  0
   27.0809    1.0061  -62.4396 N   0  0  0  1  0  0  0  0  0  0  0  0
   28.3159   -0.0766  -63.9004 N   0  0  0  1  0  0  0  0  0  0  0  0
   28.2164    0.2092  -62.6490 N   0  0  0  1  0  0  0  0  0  0  0  0
   25.4438    3.2474  -57.6466 O   0  0  0  1  0  0  0  0  0  0  0  0
   24.0074    2.4761  -65.7838 N   0  0  0  1  0  0  0  0  0  0  0  0
   26.3189    3.3091  -56.5094 C   0  0  0  1  0  0  0  0  0  0  0  0
   22.5410    5.4784  -64.9263 N   0  0  0  1  0  0  0  0  0  0  0  0
   23.5813    4.7097  -64.8753 C   0  0  0  1  0  0  0  0  0  0  0  0
   21.5060    7.6771  -64.9592 C   0  0  0  1  0  0  0  0  0  0  0  0
   21.6163    9.0387  -64.7502 C   0  0  0  1  0  0  0  0  0  0  0  0
   22.7416    9.6300  -64.3375 N   0  0  0  1  0  0  0  0  0  0  0  0
   23.8056    8.8432  -64.1225 C   0  0  0  1  0  0  0  0  0  0  0  0
   23.7821    7.4712  -64.3029 C   0  0  0  1  0  0  0  0  0  0  0  0
   27.4789    0.0013  -66.6492 H   0  0  0  1  0  0  0  0  0  0  0  0
   24.9213    2.3443  -61.9328 H   0  0  0  1  0  0  0  0  0  0  0  0
   27.6861    1.7894  -57.9889 H   0  0  0  1  0  0  0  0  0  0  0  0
   28.3617    0.7940  -60.0912 H   0  0  0  1  0  0  0  0  0  0  0  0
   24.2449    3.3413  -59.8269 H   0  0  0  1  0  0  0  0  0  0  0  0
   23.1775    2.8298  -63.9187 H   0  0  0  1  0  0  0  0  0  0  0  0
   21.0882    2.6378  -64.9200 H   0  0  0  1  0  0  0  0  0  0  0  0
   21.7027    3.1024  -66.4886 H   0  0  0  1  0  0  0  0  0  0  0  0
   20.7368    5.1277  -66.0936 H   0  0  0  1  0  0  0  0  0  0  0  0
   20.5462    4.7907  -64.3894 H   0  0  0  1  0  0  0  0  0  0  0  0
   23.7678    2.4311  -66.7330 H   0  0  0  1  0  0  0  0  0  0  0  0
   27.2881    3.6375  -56.8220 H   0  0  0  1  0  0  0  0  0  0  0  0
   26.3971    2.3381  -56.0668 H   0  0  0  1  0  0  0  0  0  0  0  0
   25.9234    3.9977  -55.7923 H   0  0  0  1  0  0  0  0  0  0  0  0
   24.2100    4.9093  -65.7179 H   0  0  0  1  0  0  0  0  0  0  0  0
   24.1213    4.9050  -63.9725 H   0  0  0  1  0  0  0  0  0  0  0  0
   20.6094    7.2618  -65.2834 H   0  0  0  1  0  0  0  0  0  0  0  0
   20.7810    9.6336  -64.9229 H   0  0  0  1  0  0  0  0  0  0  0  0
   24.6916    9.2853  -63.8046 H   0  0  0  1  0  0  0  0  0  0  0  0
   24.6309    6.8983  -64.1211 H   0  0  0  1  0  0  0  0  0  0  0  0
  1  3  4  0  0  0  0
  1 14  4  0  0  0  0
  1 21  1  0  0  0  0
  2 14  4  0  0  0  0
  2 15  4  0  0  0  0
  2 30  1  0  0  0  0
  3 16  4  0  0  0  0
  4  5  4  0  0  0  0
  4  7  4  0  0  0  0
  4 17  1  0  0  0  0
  5  9  4  0  0  0  0
  5 31  1  0  0  0  0
  6  7  4  0  0  0  0
  6  8  4  0  0  0  0
  6 32  1  0  0  0  0
  7 33  1  0  0  0  0
  8  9  4  0  0  0  0
  8 20  1  0  0  0  0
  9 34  1  0  0  0  0
 10 11  1  0  0  0  0
 10 21  1  0  0  0  0
 10 24  1  0  0  0  0
 10 35  1  0  0  0  0
 11 12  1  0  0  0  0
 11 36  1  0  0  0  0
 11 37  1  0  0  0  0
 12 23  1  0  0  0  0
 12 38  1  0  0  0  0
 12 39  1  0  0  0  0
 13 23  1  0  0  0  0
 13 25  4  0  0  0  0
 13 29  4  0  0  0  0
 15 16  4  0  0  0  0
 15 18  4  0  0  0  0
 16 17  4  0  0  0  0
 17 19  4  0  0  0  0
 18 19  4  0  0  0  0
 20 22  1  0  0  0  0
 21 40  1  0  0  0  0
 22 41  1  0  0  0  0
 22 42  1  0  0  0  0
 22 43  1  0  0  0  0
 23 24  1  0  0  0  0
 24 44  1  0  0  0  0
 24 45  1  0  0  0  0
 25 26  4  0  0  0  0
 25 46  1  0  0  0  0
 26 27  4  0  0  0  0
 26 47  1  0  0  0  0
 27 28  4  0  0  0  0
 28 29  4  0  0  0  0
 28 48  1  0  0  0  0
 29 49  1  0  0  0  0
M  END
> <ConfClashScore>
0 

> <ConfOneFourInteractionScore>
-0.984874 

> <ConfScore>
-0.0183275 

> <ConfScorePBest>
0.00449955 

> <ConfTolerance>
0.451086 

> <HETNAM>
     OWQ A 303  OWQ                                                       

> <pdb_OW>
Q_303 -16.5129 3.80749 7.62812 0.15963 1.39178 -0.28144 -3.20151 0 0 0 -1.30514 0 0 0 0 0 0 0 0 -8.31393

$$$$
6yky_lig_1.pdb
 OpenBabel04162415593D

 49 53  0  0  0  0  0  0  0  0999 V2000
   25.1048    1.8136  -65.3759 C   0  0  0  1  0  0  0  0  0  0  0  0
   26.9167    0.5034  -65.9326 C   0  0  0  1  0  0  0  0  0  0  0  0
   25.4179    1.8284  -64.0982 N   0  0  0  1  0  0  0  0  0  0  0  0
   26.7286    1.4699  -61.1390 C   0  0  0  1  0  0  0  0  0  0  0  0
   25.3991    1.5540  -60.7710 C   0  0  0  1  0  0  0  0  0  0  0  0
   27.3715    2.4549  -59.0501 C   0  0  0  1  0  0  0  0  0  0  0  0
   27.7162    1.9234  -60.2785 C   0  0  0  1  0  0  0  0  0  0  0  0
   26.0380    2.5394  -58.6809 C   0  0  0  1  0  0  0  0  0  0  0  0
   25.0536    2.0872  -59.5391 C   0  0  0  1  0  0  0  0  0  0  0  0
   23.1349    3.2224  -64.8938 C   0  0  0  1  0  0  0  0  0  0  0  0
   21.8002    2.4719  -64.6299 C   0  0  0  1  0  0  0  0  0  0  0  0
   20.7245    3.5338  -64.3196 C   0  0  0  1  0  0  0  0  0  0  0  0
   20.8124    6.0684  -64.6486 C   0  0  0  1  0  0  0  0  0  0  0  0
   25.8296    1.1707  -66.2747 N   0  0  0  1  0  0  0  0  0  0  0  0
   27.2965    0.4858  -64.5856 C   0  0  0  1  0  0  0  0  0  0  0  0
   26.4936    1.1852  -63.6613 C   0  0  0  1  0  0  0  0  0  0  0  0
   27.0809    1.0061  -62.4395 N   0  0  0  1  0  0  0  0  0  0  0  0
   28.3159   -0.0766  -63.9004 N   0  0  0  1  0  0  0  0  0  0  0  0
   28.2164    0.2092  -62.6490 N   0  0  0  1  0  0  0  0  0  0  0  0
   25.5831    3.0409  -57.5162 O   0  0  0  1  0  0  0  0  0  0  0  0
   24.0075    2.4763  -65.7837 N   0  0  0  1  0  0  0  0  0  0  0  0
   26.5979    3.6096  -56.6565 C   0  0  0  1  0  0  0  0  0  0  0  0
   21.3429    4.7884  -64.8340 N   0  0  0  1  0  0  0  0  0  0  0  0
   22.5880    4.4979  -65.5637 C   0  0  0  1  0  0  0  0  0  0  0  0
   21.1981    6.8417  -63.5693 C   0  0  0  1  0  0  0  0  0  0  0  0
   20.6517    8.1029  -63.4262 C   0  0  0  1  0  0  0  0  0  0  0  0
   19.7615    8.6192  -64.2790 N   0  0  0  1  0  0  0  0  0  0  0  0
   19.3932    7.8568  -65.3185 C   0  0  0  1  0  0  0  0  0  0  0  0
   19.8925    6.5852  -65.5400 C   0  0  0  1  0  0  0  0  0  0  0  0
   27.4789    0.0014  -66.6492 H   0  0  0  1  0  0  0  0  0  0  0  0
   24.6580    1.2175  -61.4184 H   0  0  0  1  0  0  0  0  0  0  0  0
   28.1127    2.7914  -58.4027 H   0  0  0  1  0  0  0  0  0  0  0  0
   28.7164    1.8637  -60.5571 H   0  0  0  1  0  0  0  0  0  0  0  0
   24.0533    2.1468  -59.2604 H   0  0  0  1  0  0  0  0  0  0  0  0
   23.6548    3.4418  -63.9848 H   0  0  0  1  0  0  0  0  0  0  0  0
   21.5196    1.9101  -65.4962 H   0  0  0  1  0  0  0  0  0  0  0  0
   21.9118    1.8107  -63.7960 H   0  0  0  1  0  0  0  0  0  0  0  0
   19.8100    3.3170  -64.8311 H   0  0  0  1  0  0  0  0  0  0  0  0
   20.5387    3.5987  -63.2679 H   0  0  0  1  0  0  0  0  0  0  0  0
   23.7836    2.4545  -66.7375 H   0  0  0  1  0  0  0  0  0  0  0  0
   27.2825    2.8437  -56.3570 H   0  0  0  1  0  0  0  0  0  0  0  0
   26.1347    4.0323  -55.7895 H   0  0  0  1  0  0  0  0  0  0  0  0
   27.1273    4.3733  -57.1868 H   0  0  0  1  0  0  0  0  0  0  0  0
   22.3877    4.3250  -66.6005 H   0  0  0  1  0  0  0  0  0  0  0  0
   23.2826    5.3055  -65.4640 H   0  0  0  1  0  0  0  0  0  0  0  0
   21.8865    6.4810  -62.8782 H   0  0  0  1  0  0  0  0  0  0  0  0
   20.9485    8.6799  -62.6134 H   0  0  0  1  0  0  0  0  0  0  0  0
   18.6984    8.2396  -65.9911 H   0  0  0  1  0  0  0  0  0  0  0  0
   19.5811    6.0294  -66.3620 H   0  0  0  1  0  0  0  0  0  0  0  0
  1  3  4  0  0  0  0
  1 14  4  0  0  0  0
  1 21  1  0  0  0  0
  2 14  4  0  0  0  0
  2 15  4  0  0  0  0
  2 30  1  0  0  0  0
  3 16  4  0  0  0  0
  4  5  4  0  0  0  0
  4  7  4  0  0  0  0
  4 17  1  0  0  0  0
  5  9  4  0  0  0  0
  5 31  1  0  0  0  0
  6  7  4  0  0  0  0
  6  8  4  0  0  0  0
  6 32  1  0  0  0  0
  7 33  1  0  0  0  0
  8  9  4  0  0  0  0
  8 20  1  0  0  0  0
  9 34  1  0  0  0  0
 10 11  1  0  0  0  0
 10 21  1  0  0  0  0
 10 24  1  0  0  0  0
 10 35  1  0  0  0  0
 11 12  1  0  0  0  0
 11 36  1  0  0  0  0
 11 37  1  0  0  0  0
 12 23  1  0  0  0  0
 12 38  1  0  0  0  0
 12 39  1  0  0  0  0
 13 23  1  0  0  0  0
 13 25  4  0  0  0  0
 13 29  4  0  0  0  0
 15 16  4  0  0  0  0
 15 18  4  0  0  0  0
 16 17  4  0  0  0  0
 17 19  4  0  0  0  0
 18 19  4  0  0  0  0
 20 22  1  0  0  0  0
 21 40  1  0  0  0  0
 22 41  1  0  0  0  0
 22 42  1  0  0  0  0
 22 43  1  0  0  0  0
 23 24  1  0  0  0  0
 24 44  1  0  0  0  0
 24 45  1  0  0  0  0
 25 26  4  0  0  0  0
 25 46  1  0  0  0  0
 26 27  4  0  0  0  0
 26 47  1  0  0  0  0
 27 28  4  0  0  0  0
 28 29  4  0  0  0  0
 28 48  1  0  0  0  0
 29 49  1  0  0  0  0
M  END
> <ConfClashScore>
0 

> <ConfOneFourInteractionScore>
-0.986948 

> <ConfScore>
-0.0171202 

> <ConfScorePBest>
0.00448622 

> <ConfTolerance>
0.369653 

> <HETNAM>
     OWQ A 303  OWQ                                                       

> <pdb_OW>
Q_303 -16.5129 3.80749 7.62812 0.15963 1.39178 -0.28144 -3.20151 0 0 0 -1.30514 0 0 0 0 0 0 0 0 -8.31393

$$$$
6yky_lig_1.pdb
 OpenBabel04162415593D

 49 53  0  0  0  0  0  0  0  0999 V2000
   25.1048    1.8136  -65.3760 C   0  0  0  1  0  0  0  0  0  0  0  0
   26.9167    0.5034  -65.9326 C   0  0  0  1  0  0  0  0  0  0  0  0
   25.4179    1.8284  -64.0982 N   0  0  0  1  0  0  0  0  0  0  0  0
   26.7671    1.4474  -61.1215 C   0  0  0  1  0  0  0  0  0  0  0  0
   25.8535    2.4761  -60.9893 C   0  0  0  1  0  0  0  0  0  0  0  0
   27.1363    1.4679  -58.7528 C   0  0  0  1  0  0  0  0  0  0  0  0
   27.4115    0.9444  -60.0021 C   0  0  0  1  0  0  0  0  0  0  0  0
   26.2202    2.4997  -58.6201 C   0  0  0  1  0  0  0  0  0  0  0  0
   25.5777    3.0012  -59.7364 C   0  0  0  1  0  0  0  0  0  0  0  0
   23.5190    2.4079  -67.1604 C   0  0  0  1  0  0  0  0  0  0  0  0
   23.0222    3.7667  -67.6446 C   0  0  0  1  0  0  0  0  0  0  0  0
   21.6175    3.8654  -67.0520 C   0  0  0  1  0  0  0  0  0  0  0  0
   19.8485    2.0618  -66.8056 C   0  0  0  1  0  0  0  0  0  0  0  0
   25.8297    1.1706  -66.2747 N   0  0  0  1  0  0  0  0  0  0  0  0
   27.2965    0.4857  -64.5856 C   0  0  0  1  0  0  0  0  0  0  0  0
   26.4937    1.1852  -63.6614 C   0  0  0  1  0  0  0  0  0  0  0  0
   27.0810    1.0062  -62.4395 N   0  0  0  1  0  0  0  0  0  0  0  0
   28.3159   -0.0766  -63.9004 N   0  0  0  1  0  0  0  0  0  0  0  0
   28.2164    0.2092  -62.6490 N   0  0  0  1  0  0  0  0  0  0  0  0
   25.8969    2.9283  -57.3341 O   0  0  0  1  0  0  0  0  0  0  0  0
   23.9920    2.4856  -65.7894 N   0  0  0  1  0  0  0  0  0  0  0  0
   26.3886    2.1423  -56.2374 C   0  0  0  1  0  0  0  0  0  0  0  0
   21.1704    2.4592  -67.0264 N   0  0  0  1  0  0  0  0  0  0  0  0
   22.2831    1.5260  -67.2610 C   0  0  0  1  0  0  0  0  0  0  0  0
   19.4041    0.7700  -67.0189 C   0  0  0  1  0  0  0  0  0  0  0  0
   18.0780    0.4733  -66.7679 C   0  0  0  1  0  0  0  0  0  0  0  0
   17.1936    1.3743  -66.3297 N   0  0  0  1  0  0  0  0  0  0  0  0
   17.6370    2.6239  -66.1314 C   0  0  0  1  0  0  0  0  0  0  0  0
   18.9482    3.0068  -66.3536 C   0  0  0  1  0  0  0  0  0  0  0  0
   27.4789    0.0013  -66.6491 H   0  0  0  1  0  0  0  0  0  0  0  0
   25.3731    2.8561  -61.8298 H   0  0  0  1  0  0  0  0  0  0  0  0
   27.6168    1.0880  -57.9125 H   0  0  0  1  0  0  0  0  0  0  0  0
   28.1018    0.1730  -60.1021 H   0  0  0  1  0  0  0  0  0  0  0  0
   24.8874    3.7725  -59.6365 H   0  0  0  1  0  0  0  0  0  0  0  0
   24.3036    2.0409  -67.7887 H   0  0  0  1  0  0  0  0  0  0  0  0
   22.9896    3.8031  -68.7134 H   0  0  0  1  0  0  0  0  0  0  0  0
   23.6473    4.5545  -67.2792 H   0  0  0  1  0  0  0  0  0  0  0  0
   20.9795    4.4606  -67.6716 H   0  0  0  1  0  0  0  0  0  0  0  0
   21.6441    4.2788  -66.0655 H   0  0  0  1  0  0  0  0  0  0  0  0
   23.4990    3.0350  -65.1448 H   0  0  0  1  0  0  0  0  0  0  0  0
   25.9198    1.1805  -56.2487 H   0  0  0  1  0  0  0  0  0  0  0  0
   26.1647    2.6372  -55.3155 H   0  0  0  1  0  0  0  0  0  0  0  0
   27.4479    2.0235  -56.3308 H   0  0  0  1  0  0  0  0  0  0  0  0
   22.2097    1.0809  -68.2313 H   0  0  0  1  0  0  0  0  0  0  0  0
   22.3006    0.7580  -66.5162 H   0  0  0  1  0  0  0  0  0  0  0  0
   20.0557    0.0354  -67.3617 H   0  0  0  1  0  0  0  0  0  0  0  0
   17.7515   -0.5010  -66.9282 H   0  0  0  1  0  0  0  0  0  0  0  0
   16.9628    3.3404  -65.7942 H   0  0  0  1  0  0  0  0  0  0  0  0
   19.2500    3.9874  -66.1835 H   0  0  0  1  0  0  0  0  0  0  0  0
  1  3  4  0  0  0  0
  1 14  4  0  0  0  0
  1 21  1  0  0  0  0
  2 14  4  0  0  0  0
  2 15  4  0  0  0  0
  2 30  1  0  0  0  0
  3 16  4  0  0  0  0
  4  5  4  0  0  0  0
  4  7  4  0  0  0  0
  4 17  1  0  0  0  0
  5  9  4  0  0  0  0
  5 31  1  0  0  0  0
  6  7  4  0  0  0  0
  6  8  4  0  0  0  0
  6 32  1  0  0  0  0
  7 33  1  0  0  0  0
  8  9  4  0  0  0  0
  8 20  1  0  0  0  0
  9 34  1  0  0  0  0
 10 11  1  0  0  0  0
 10 21  1  0  0  0  0
 10 24  1  0  0  0  0
 10 35  1  0  0  0  0
 11 12  1  0  0  0  0
 11 36  1  0  0  0  0
 11 37  1  0  0  0  0
 12 23  1  0  0  0  0
 12 38  1  0  0  0  0
 12 39  1  0  0  0  0
 13 23  1  0  0  0  0
 13 25  4  0  0  0  0
 13 29  4  0  0  0  0
 15 16  4  0  0  0  0
 15 18  4  0  0  0  0
 16 17  4  0  0  0  0
 17 19  4  0  0  0  0
 18 19  4  0  0  0  0
 20 22  1  0  0  0  0
 21 40  1  0  0  0  0
 22 41  1  0  0  0  0
 22 42  1  0  0  0  0
 22 43  1  0  0  0  0
 23 24  1  0  0  0  0
 24 44  1  0  0  0  0
 24 45  1  0  0  0  0
 25 26  4  0  0  0  0
 25 46  1  0  0  0  0
 26 27  4  0  0  0  0
 26 47  1  0  0  0  0
 27 28  4  0  0  0  0
 28 29  4  0  0  0  0
 28 48  1  0  0  0  0
 29 49  1  0  0  0  0
M  END
> <ConfClashScore>
0 

> <ConfOneFourInteractionScore>
-0.986948 

> <ConfScore>
-0.0170758 

> <ConfScorePBest>
0.00447289 

> <ConfTolerance>
0.594735 

> <HETNAM>
     OWQ A 303  OWQ                                                       

> <pdb_OW>
Q_303 -16.5129 3.80749 7.62812 0.15963 1.39178 -0.28144 -3.20151 0 0 0 -1.30514 0 0 0 0 0 0 0 0 -8.31393

$$$$
6yky_lig_1.pdb
 OpenBabel04162415593D

 49 53  0  0  0  0  0  0  0  0999 V2000
   25.1047    1.8135  -65.3760 C   0  0  0  1  0  0  0  0  0  0  0  0
   26.9167    0.5034  -65.9326 C   0  0  0  1  0  0  0  0  0  0  0  0
   25.4178    1.8284  -64.0982 N   0  0  0  1  0  0  0  0  0  0  0  0
   26.7286    1.4699  -61.1391 C   0  0  0  1  0  0  0  0  0  0  0  0
   25.5707    0.9725  -60.5719 C   0  0  0  1  0  0  0  0  0  0  0  0
   27.0201    2.9354  -59.2643 C   0  0  0  1  0  0  0  0  0  0  0  0
   27.4531    2.4548  -60.4857 C   0  0  0  1  0  0  0  0  0  0  0  0
   25.8586    2.4366  -58.6953 C   0  0  0  1  0  0  0  0  0  0  0  0
   25.1365    1.4546  -59.3469 C   0  0  0  1  0  0  0  0  0  0  0  0
   23.4755    2.6395  -67.0442 C   0  0  0  1  0  0  0  0  0  0  0  0
   24.2199    3.7186  -67.7940 C   0  0  0  1  0  0  0  0  0  0  0  0
   23.2448    4.1340  -68.8937 C   0  0  0  1  0  0  0  0  0  0  0  0
   20.7317    4.3314  -68.8192 C   0  0  0  1  0  0  0  0  0  0  0  0
   25.8297    1.1706  -66.2747 N   0  0  0  1  0  0  0  0  0  0  0  0
   27.2965    0.4857  -64.5857 C   0  0  0  1  0  0  0  0  0  0  0  0
   26.4936    1.1852  -63.6614 C   0  0  0  1  0  0  0  0  0  0  0  0
   27.0809    1.0061  -62.4395 N   0  0  0  1  0  0  0  0  0  0  0  0
   28.3159   -0.0766  -63.9004 N   0  0  0  1  0  0  0  0  0  0  0  0
   28.2164    0.2092  -62.6490 N   0  0  0  1  0  0  0  0  0  0  0  0
   25.3416    2.8272  -57.5247 O   0  0  0  1  0  0  0  0  0  0  0  0
   23.9888    2.5048  -65.6920 N   0  0  0  1  0  0  0  0  0  0  0  0
   24.0060    2.4012  -57.0912 C   0  0  0  1  0  0  0  0  0  0  0  0
   21.9321    3.8896  -68.2810 N   0  0  0  1  0  0  0  0  0  0  0  0
   22.0384    3.1202  -67.0276 C   0  0  0  1  0  0  0  0  0  0  0  0
   20.6981    4.9451  -70.0577 C   0  0  0  1  0  0  0  0  0  0  0  0
   19.4807    5.3663  -70.5580 C   0  0  0  1  0  0  0  0  0  0  0  0
   18.3252    5.2144  -69.9038 N   0  0  0  1  0  0  0  0  0  0  0  0
   18.3731    4.6218  -68.7022 C   0  0  0  1  0  0  0  0  0  0  0  0
   19.5472    4.1667  -68.1281 C   0  0  0  1  0  0  0  0  0  0  0  0
   27.4789    0.0013  -66.6492 H   0  0  0  1  0  0  0  0  0  0  0  0
   25.0251    0.2365  -61.0641 H   0  0  0  1  0  0  0  0  0  0  0  0
   27.5657    3.6714  -58.7722 H   0  0  0  1  0  0  0  0  0  0  0  0
   28.3222    2.8319  -60.9145 H   0  0  0  1  0  0  0  0  0  0  0  0
   24.2674    1.0775  -58.9182 H   0  0  0  1  0  0  0  0  0  0  0  0
   23.5555    1.7009  -67.5517 H   0  0  0  1  0  0  0  0  0  0  0  0
   24.4443    4.5441  -67.1515 H   0  0  0  1  0  0  0  0  0  0  0  0
   25.1267    3.3354  -68.2133 H   0  0  0  1  0  0  0  0  0  0  0  0
   23.3657    5.1672  -69.1445 H   0  0  0  1  0  0  0  0  0  0  0  0
   23.3770    3.5357  -69.7710 H   0  0  0  1  0  0  0  0  0  0  0  0
   23.4960    2.9414  -64.9662 H   0  0  0  1  0  0  0  0  0  0  0  0
   23.7931    2.8177  -56.1289 H   0  0  0  1  0  0  0  0  0  0  0  0
   23.9743    1.3333  -57.0322 H   0  0  0  1  0  0  0  0  0  0  0  0
   23.2769    2.7418  -57.7964 H   0  0  0  1  0  0  0  0  0  0  0  0
   21.3570    2.2953  -67.0239 H   0  0  0  1  0  0  0  0  0  0  0  0
   21.8508    3.7424  -66.1775 H   0  0  0  1  0  0  0  0  0  0  0  0
   21.5725    5.0871  -70.6025 H   0  0  0  1  0  0  0  0  0  0  0  0
   19.4628    5.8248  -71.4911 H   0  0  0  1  0  0  0  0  0  0  0  0
   17.4847    4.4980  -68.1758 H   0  0  0  1  0  0  0  0  0  0  0  0
   19.5379    3.7093  -67.1941 H   0  0  0  1  0  0  0  0  0  0  0  0
  1  3  4  0  0  0  0
  1 14  4  0  0  0  0
  1 21  1  0  0  0  0
  2 14  4  0  0  0  0
  2 15  4  0  0  0  0
  2 30  1  0  0  0  0
  3 16  4  0  0  0  0
  4  5  4  0  0  0  0
  4  7  4  0  0  0  0
  4 17  1  0  0  0  0
  5  9  4  0  0  0  0
  5 31  1  0  0  0  0
  6  7  4  0  0  0  0
  6  8  4  0  0  0  0
  6 32  1  0  0  0  0
  7 33  1  0  0  0  0
  8  9  4  0  0  0  0
  8 20  1  0  0  0  0
  9 34  1  0  0  0  0
 10 11  1  0  0  0  0
 10 21  1  0  0  0  0
 10 24  1  0  0  0  0
 10 35  1  0  0  0  0
 11 12  1  0  0  0  0
 11 36  1  0  0  0  0
 11 37  1  0  0  0  0
 12 23  1  0  0  0  0
 12 38  1  0  0  0  0
 12 39  1  0  0  0  0
 13 23  1  0  0  0  0
 13 25  4  0  0  0  0
 13 29  4  0  0  0  0
 15 16  4  0  0  0  0
 15 18  4  0  0  0  0
 16 17  4  0  0  0  0
 17 19  4  0  0  0  0
 18 19  4  0  0  0  0
 20 22  1  0  0  0  0
 21 40  1  0  0  0  0
 22 41  1  0  0  0  0
 22 42  1  0  0  0  0
 22 43  1  0  0  0  0
 23 24  1  0  0  0  0
 24 44  1  0  0  0  0
 24 45  1  0  0  0  0
 25 26  4  0  0  0  0
 25 46  1  0  0  0  0
 26 27  4  0  0  0  0
 26 47  1  0  0  0  0
 27 28  4  0  0  0  0
 28 29  4  0  0  0  0
 28 48  1  0  0  0  0
 29 49  1  0  0  0  0
M  END
> <ConfClashScore>
0 

> <ConfOneFourInteractionScore>
-0.986948 

> <ConfScore>
-0.0162509 

> <ConfScorePBest>
0.00445956 

> <ConfTolerance>
0.464379 

> <HETNAM>
     OWQ A 303  OWQ                                                       

> <pdb_OW>
Q_303 -16.5129 3.80749 7.62812 0.15963 1.39178 -0.28144 -3.20151 0 0 0 -1.30514 0 0 0 0 0 0 0 0 -8.31393

$$$$
6yky_lig_1.pdb
 OpenBabel04162415593D

 49 53  0  0  0  0  0  0  0  0999 V2000
   25.1049    1.8136  -65.3760 C   0  0  0  1  0  0  0  0  0  0  0  0
   26.9167    0.5034  -65.9326 C   0  0  0  1  0  0  0  0  0  0  0  0
   25.4179    1.8285  -64.0982 N   0  0  0  1  0  0  0  0  0  0  0  0
   26.7287    1.4700  -61.1391 C   0  0  0  1  0  0  0  0  0  0  0  0
   26.9218    2.7963  -60.8016 C   0  0  0  1  0  0  0  0  0  0  0  0
   26.0196    1.0006  -58.8977 C   0  0  0  1  0  0  0  0  0  0  0  0
   26.2795    0.5702  -60.1851 C   0  0  0  1  0  0  0  0  0  0  0  0
   26.2133    2.3307  -58.5590 C   0  0  0  1  0  0  0  0  0  0  0  0
   26.6612    3.2278  -59.5103 C   0  0  0  1  0  0  0  0  0  0  0  0
   23.6508    2.4354  -67.2636 C   0  0  0  1  0  0  0  0  0  0  0  0
   24.4667    3.4365  -68.0278 C   0  0  0  1  0  0  0  0  0  0  0  0
   23.6873    4.7525  -67.7515 C   0  0  0  1  0  0  0  0  0  0  0  0
   21.2108    5.1343  -67.7046 C   0  0  0  1  0  0  0  0  0  0  0  0
   25.8297    1.1707  -66.2747 N   0  0  0  1  0  0  0  0  0  0  0  0
   27.2965    0.4857  -64.5857 C   0  0  0  1  0  0  0  0  0  0  0  0
   26.4937    1.1853  -63.6614 C   0  0  0  1  0  0  0  0  0  0  0  0
   27.0810    1.0062  -62.4395 N   0  0  0  1  0  0  0  0  0  0  0  0
   28.3159   -0.0766  -63.9004 N   0  0  0  1  0  0  0  0  0  0  0  0
   28.2164    0.2092  -62.6490 N   0  0  0  1  0  0  0  0  0  0  0  0
   25.9313    2.6335  -57.2695 O   0  0  0  1  0  0  0  0  0  0  0  0
   24.0036    2.4665  -65.8552 N   0  0  0  1  0  0  0  0  0  0  0  0
   25.8841    4.0249  -56.9173 C   0  0  0  1  0  0  0  0  0  0  0  0
   22.3333    4.2762  -67.6387 N   0  0  0  1  0  0  0  0  0  0  0  0
   22.2168    2.8419  -67.4517 C   0  0  0  1  0  0  0  0  0  0  0  0
   20.7365    5.7630  -66.5682 C   0  0  0  1  0  0  0  0  0  0  0  0
   19.6397    6.5962  -66.6783 C   0  0  0  1  0  0  0  0  0  0  0  0
   19.0052    6.8272  -67.8316 N   0  0  0  1  0  0  0  0  0  0  0  0
   19.4729    6.2078  -68.9247 C   0  0  0  1  0  0  0  0  0  0  0  0
   20.5671    5.3605  -68.9056 C   0  0  0  1  0  0  0  0  0  0  0  0
   27.4790    0.0013  -66.6492 H   0  0  0  1  0  0  0  0  0  0  0  0
   27.2626    3.4705  -61.5164 H   0  0  0  1  0  0  0  0  0  0  0  0
   25.6788    0.3263  -58.1828 H   0  0  0  1  0  0  0  0  0  0  0  0
   26.1381   -0.4286  -60.4381 H   0  0  0  1  0  0  0  0  0  0  0  0
   26.8026    4.2266  -59.2574 H   0  0  0  1  0  0  0  0  0  0  0  0
   23.8122    1.4510  -67.6507 H   0  0  0  1  0  0  0  0  0  0  0  0
   24.4869    3.2072  -69.0728 H   0  0  0  1  0  0  0  0  0  0  0  0
   25.4680    3.4904  -67.6544 H   0  0  0  1  0  0  0  0  0  0  0  0
   24.0140    5.2152  -66.8437 H   0  0  0  1  0  0  0  0  0  0  0  0
   23.7905    5.4435  -68.5618 H   0  0  0  1  0  0  0  0  0  0  0  0
   23.4376    2.9684  -65.2322 H   0  0  0  1  0  0  0  0  0  0  0  0
   25.6905    4.6086  -57.7929 H   0  0  0  1  0  0  0  0  0  0  0  0
   26.8224    4.3174  -56.4942 H   0  0  0  1  0  0  0  0  0  0  0  0
   25.1043    4.1854  -56.2024 H   0  0  0  1  0  0  0  0  0  0  0  0
   21.6300    2.6088  -66.5879 H   0  0  0  1  0  0  0  0  0  0  0  0
   21.7889    2.3711  -68.3121 H   0  0  0  1  0  0  0  0  0  0  0  0
   21.1966    5.6116  -65.6479 H   0  0  0  1  0  0  0  0  0  0  0  0
   19.2900    7.0677  -65.8198 H   0  0  0  1  0  0  0  0  0  0  0  0
   18.9902    6.3719  -69.8311 H   0  0  0  1  0  0  0  0  0  0  0  0
   20.8983    4.9029  -69.7788 H   0  0  0  1  0  0  0  0  0  0  0  0
  1  3  4  0  0  0  0
  1 14  4  0  0  0  0
  1 21  1  0  0  0  0
  2 14  4  0  0  0  0
  2 15  4  0  0  0  0
  2 30  1  0  0  0  0
  3 16  4  0  0  0  0
  4  5  4  0  0  0  0
  4  7  4  0  0  0  0
  4 17  1  0  0  0  0
  5  9  4  0  0  0  0
  5 31  1  0  0  0  0
  6  7  4  0  0  0  0
  6  8  4  0  0  0  0
  6 32  1  0  0  0  0
  7 33  1  0  0  0  0
  8  9  4  0  0  0  0
  8 20  1  0  0  0  0
  9 34  1  0  0  0  0
 10 11  1  0  0  0  0
 10 21  1  0  0  0  0
 10 24  1  0  0  0  0
 10 35  1  0  0  0  0
 11 12  1  0  0  0  0
 11 36  1  0  0  0  0
 11 37  1  0  0  0  0
 12 23  1  0  0  0  0
 12 38  1  0  0  0  0
 12 39  1  0  0  0  0
 13 23  1  0  0  0  0
 13 25  4  0  0  0  0
 13 29  4  0  0  0  0
 15 16  4  0  0  0  0
 15 18  4  0  0  0  0
 16 17  4  0  0  0  0
 17 19  4  0  0  0  0
 18 19  4  0  0  0  0
 20 22  1  0  0  0  0
 21 40  1  0  0  0  0
 22 41  1  0  0  0  0
 22 42  1  0  0  0  0
 22 43  1  0  0  0  0
 23 24  1  0  0  0  0
 24 44  1  0  0  0  0
 24 45  1  0  0  0  0
 25 26  4  0  0  0  0
 25 46  1  0  0  0  0
 26 27  4  0  0  0  0
 26 47  1  0  0  0  0
 27 28  4  0  0  0  0
 28 29  4  0  0  0  0
 28 48  1  0  0  0  0
 29 49  1  0  0  0  0
M  END
> <ConfClashScore>
0 

> <ConfOneFourInteractionScore>
-0.983869 

> <ConfScore>
-0.0158101 

> <ConfScorePBest>
0.00444624 

> <ConfTolerance>
0.556629 

> <HETNAM>
     OWQ A 303  OWQ                                                       

> <pdb_OW>
Q_303 -16.5129 3.80749 7.62812 0.15963 1.39178 -0.28144 -3.20151 0 0 0 -1.30514 0 0 0 0 0 0 0 0 -8.31393

$$$$
6yky_lig_1.pdb
 OpenBabel04162415593D

 49 53  0  0  0  0  0  0  0  0999 V2000
   25.1047    1.8135  -65.3760 C   0  0  0  1  0  0  0  0  0  0  0  0
   26.9167    0.5034  -65.9326 C   0  0  0  1  0  0  0  0  0  0  0  0
   25.4178    1.8283  -64.0983 N   0  0  0  1  0  0  0  0  0  0  0  0
   26.8385    1.5662  -61.1519 C   0  0  0  1  0  0  0  0  0  0  0  0
   27.7555    1.3834  -60.1340 C   0  0  0  1  0  0  0  0  0  0  0  0
   25.3640    2.6822  -59.6262 C   0  0  0  1  0  0  0  0  0  0  0  0
   25.6399    2.2140  -60.8971 C   0  0  0  1  0  0  0  0  0  0  0  0
   26.2838    2.4990  -58.6052 C   0  0  0  1  0  0  0  0  0  0  0  0
   27.4788    1.8529  -58.8596 C   0  0  0  1  0  0  0  0  0  0  0  0
   23.1128    3.2335  -64.8409 C   0  0  0  1  0  0  0  0  0  0  0  0
   21.9597    3.9232  -65.6212 C   0  0  0  1  0  0  0  0  0  0  0  0
   21.5370    5.1707  -64.8175 C   0  0  0  1  0  0  0  0  0  0  0  0
   22.7269    6.3264  -62.8521 C   0  0  0  1  0  0  0  0  0  0  0  0
   25.8296    1.1707  -66.2748 N   0  0  0  1  0  0  0  0  0  0  0  0
   27.2965    0.4858  -64.5857 C   0  0  0  1  0  0  0  0  0  0  0  0
   26.4936    1.1852  -63.6614 C   0  0  0  1  0  0  0  0  0  0  0  0
   27.0809    1.0061  -62.4396 N   0  0  0  1  0  0  0  0  0  0  0  0
   28.3159   -0.0766  -63.9004 N   0  0  0  1  0  0  0  0  0  0  0  0
   28.2164    0.2093  -62.6490 N   0  0  0  1  0  0  0  0  0  0  0  0
   26.1246    2.9030  -57.3396 O   0  0  0  1  0  0  0  0  0  0  0  0
   24.0053    2.4866  -65.7332 N   0  0  0  1  0  0  0  0  0  0  0  0
   27.0505    2.4939  -56.2775 C   0  0  0  1  0  0  0  0  0  0  0  0
   22.6960    5.3822  -63.9048 N   0  0  0  1  0  0  0  0  0  0  0  0
   23.8045    4.4758  -64.2468 C   0  0  0  1  0  0  0  0  0  0  0  0
   23.2266    7.5986  -63.0608 C   0  0  0  1  0  0  0  0  0  0  0  0
   23.2344    8.4909  -62.0058 C   0  0  0  1  0  0  0  0  0  0  0  0
   22.7848    8.1885  -60.7841 N   0  0  0  1  0  0  0  0  0  0  0  0
   22.3072    6.9503  -60.5947 C   0  0  0  1  0  0  0  0  0  0  0  0
   22.2586    5.9957  -61.5956 C   0  0  0  1  0  0  0  0  0  0  0  0
   27.4789    0.0014  -66.6492 H   0  0  0  1  0  0  0  0  0  0  0  0
   28.6530    0.8938  -60.3245 H   0  0  0  1  0  0  0  0  0  0  0  0
   24.4666    3.1718  -59.4359 H   0  0  0  1  0  0  0  0  0  0  0  0
   24.9481    2.3479  -61.6620 H   0  0  0  1  0  0  0  0  0  0  0  0
   28.1705    1.7191  -58.0946 H   0  0  0  1  0  0  0  0  0  0  0  0
   22.7426    2.5809  -64.0780 H   0  0  0  1  0  0  0  0  0  0  0  0
   21.1315    3.2526  -65.7172 H   0  0  0  1  0  0  0  0  0  0  0  0
   22.2992    4.2130  -66.5937 H   0  0  0  1  0  0  0  0  0  0  0  0
   20.6394    4.9872  -64.2646 H   0  0  0  1  0  0  0  0  0  0  0  0
   21.3941    6.0136  -65.4608 H   0  0  0  1  0  0  0  0  0  0  0  0
   23.7733    2.4798  -66.6853 H   0  0  0  1  0  0  0  0  0  0  0  0
   26.8321    3.0395  -55.3835 H   0  0  0  1  0  0  0  0  0  0  0  0
   28.0556    2.6976  -56.5830 H   0  0  0  1  0  0  0  0  0  0  0  0
   26.9392    1.4460  -56.0917 H   0  0  0  1  0  0  0  0  0  0  0  0
   24.3644    4.2158  -63.3729 H   0  0  0  1  0  0  0  0  0  0  0  0
   24.4548    4.9275  -64.9664 H   0  0  0  1  0  0  0  0  0  0  0  0
   23.5897    7.8786  -63.9943 H   0  0  0  1  0  0  0  0  0  0  0  0
   23.6096    9.4469  -62.1708 H   0  0  0  1  0  0  0  0  0  0  0  0
   21.9562    6.6945  -59.6497 H   0  0  0  1  0  0  0  0  0  0  0  0
   21.8766    5.0472  -61.4052 H   0  0  0  1  0  0  0  0  0  0  0  0
  1  3  4  0  0  0  0
  1 14  4  0  0  0  0
  1 21  1  0  0  0  0
  2 14  4  0  0  0  0
  2 15  4  0  0  0  0
  2 30  1  0  0  0  0
  3 16  4  0  0  0  0
  4  5  4  0  0  0  0
  4  7  4  0  0  0  0
  4 17  1  0  0  0  0
  5  9  4  0  0  0  0
  5 31  1  0  0  0  0
  6  7  4  0  0  0  0
  6  8  4  0  0  0  0
  6 32  1  0  0  0  0
  7 33  1  0  0  0  0
  8  9  4  0  0  0  0
  8 20  1  0  0  0  0
  9 34  1  0  0  0  0
 10 11  1  0  0  0  0
 10 21  1  0  0  0  0
 10 24  1  0  0  0  0
 10 35  1  0  0  0  0
 11 12  1  0  0  0  0
 11 36  1  0  0  0  0
 11 37  1  0  0  0  0
 12 23  1  0  0  0  0
 12 38  1  0  0  0  0
 12 39  1  0  0  0  0
 13 23  1  0  0  0  0
 13 25  4  0  0  0  0
 13 29  4  0  0  0  0
 15 16  4  0  0  0  0
 15 18  4  0  0  0  0
 16 17  4  0  0  0  0
 17 19  4  0  0  0  0
 18 19  4  0  0  0  0
 20 22  1  0  0  0  0
 21 40  1  0  0  0  0
 22 41  1  0  0  0  0
 22 42  1  0  0  0  0
 22 43  1  0  0  0  0
 23 24  1  0  0  0  0
 24 44  1  0  0  0  0
 24 45  1  0  0  0  0
 25 26  4  0  0  0  0
 25 46  1  0  0  0  0
 26 27  4  0  0  0  0
 26 47  1  0  0  0  0
 27 28  4  0  0  0  0
 28 29  4  0  0  0  0
 28 48  1  0  0  0  0
 29 49  1  0  0  0  0
M  END
> <ConfClashScore>
0 

> <ConfOneFourInteractionScore>
-0.986948 

> <ConfScore>
-0.0155806 

> <ConfScorePBest>
0.00443291 

> <ConfTolerance>
0.40232 

> <HETNAM>
     OWQ A 303  OWQ                                                       

> <pdb_OW>
Q_303 -16.5129 3.80749 7.62812 0.15963 1.39178 -0.28144 -3.20151 0 0 0 -1.30514 0 0 0 0 0 0 0 0 -8.31393

$$$$
6yky_lig_1.pdb
 OpenBabel04162415593D

 49 53  0  0  0  0  0  0  0  0999 V2000
   25.1048    1.8135  -65.3760 C   0  0  0  1  0  0  0  0  0  0  0  0
   26.9167    0.5034  -65.9326 C   0  0  0  1  0  0  0  0  0  0  0  0
   25.4179    1.8284  -64.0982 N   0  0  0  1  0  0  0  0  0  0  0  0
   26.7671    1.4474  -61.1215 C   0  0  0  1  0  0  0  0  0  0  0  0
   27.2538    0.7043  -60.0627 C   0  0  0  1  0  0  0  0  0  0  0  0
   25.5807    2.8583  -59.5889 C   0  0  0  1  0  0  0  0  0  0  0  0
   25.9271    2.5243  -60.8845 C   0  0  0  1  0  0  0  0  0  0  0  0
   26.0689    2.1132  -58.5268 C   0  0  0  1  0  0  0  0  0  0  0  0
   26.9064    1.0394  -58.7633 C   0  0  0  1  0  0  0  0  0  0  0  0
   23.0823    3.1493  -64.8806 C   0  0  0  1  0  0  0  0  0  0  0  0
   22.0368    3.9136  -65.6575 C   0  0  0  1  0  0  0  0  0  0  0  0
   21.5565    4.9758  -64.6705 C   0  0  0  1  0  0  0  0  0  0  0  0
   22.8637    6.2730  -62.9477 C   0  0  0  1  0  0  0  0  0  0  0  0
   25.8297    1.1707  -66.2748 N   0  0  0  1  0  0  0  0  0  0  0  0
   27.2965    0.4857  -64.5857 C   0  0  0  1  0  0  0  0  0  0  0  0
   26.4936    1.1852  -63.6614 C   0  0  0  1  0  0  0  0  0  0  0  0
   27.0810    1.0061  -62.4395 N   0  0  0  1  0  0  0  0  0  0  0  0
   28.3159   -0.0766  -63.9004 N   0  0  0  1  0  0  0  0  0  0  0  0
   28.2164    0.2092  -62.6490 N   0  0  0  1  0  0  0  0  0  0  0  0
   25.7960    2.3410  -57.2201 O   0  0  0  1  0  0  0  0  0  0  0  0
   24.0074    2.4762  -65.7837 N   0  0  0  1  0  0  0  0  0  0  0  0
   24.7235    3.2486  -56.9224 C   0  0  0  1  0  0  0  0  0  0  0  0
   22.7455    5.2190  -63.8425 N   0  0  0  1  0  0  0  0  0  0  0  0
   23.7985    4.2130  -64.0728 C   0  0  0  1  0  0  0  0  0  0  0  0
   23.3409    7.4826  -63.4177 C   0  0  0  1  0  0  0  0  0  0  0  0
   23.5466    8.5109  -62.5179 C   0  0  0  1  0  0  0  0  0  0  0  0
   23.3104    8.3988  -61.2072 N   0  0  0  1  0  0  0  0  0  0  0  0
   22.8521    7.2193  -60.7646 C   0  0  0  1  0  0  0  0  0  0  0  0
   22.6147    6.1384  -61.5957 C   0  0  0  1  0  0  0  0  0  0  0  0
   27.4789    0.0014  -66.6492 H   0  0  0  1  0  0  0  0  0  0  0  0
   27.8808   -0.1061  -60.2409 H   0  0  0  1  0  0  0  0  0  0  0  0
   24.9538    3.6687  -59.4107 H   0  0  0  1  0  0  0  0  0  0  0  0
   25.5576    3.0810  -61.6815 H   0  0  0  1  0  0  0  0  0  0  0  0
   27.2759    0.4827  -57.9663 H   0  0  0  1  0  0  0  0  0  0  0  0
   22.6240    2.4284  -64.2362 H   0  0  0  1  0  0  0  0  0  0  0  0
   21.2320    3.2711  -65.9478 H   0  0  0  1  0  0  0  0  0  0  0  0
   22.4638    4.3668  -66.5276 H   0  0  0  1  0  0  0  0  0  0  0  0
   21.2548    5.8664  -65.1810 H   0  0  0  1  0  0  0  0  0  0  0  0
   20.7436    4.6106  -64.0783 H   0  0  0  1  0  0  0  0  0  0  0  0
   23.8190    2.5085  -66.7448 H   0  0  0  1  0  0  0  0  0  0  0  0
   24.9285    4.2011  -57.3646 H   0  0  0  1  0  0  0  0  0  0  0  0
   24.6347    3.3597  -55.8618 H   0  0  0  1  0  0  0  0  0  0  0  0
   23.8083    2.8611  -57.3187 H   0  0  0  1  0  0  0  0  0  0  0  0
   24.6148    4.6302  -64.6247 H   0  0  0  1  0  0  0  0  0  0  0  0
   24.1592    3.8152  -63.1474 H   0  0  0  1  0  0  0  0  0  0  0  0
   23.5413    7.6158  -64.4294 H   0  0  0  1  0  0  0  0  0  0  0  0
   23.9033    9.4186  -62.8790 H   0  0  0  1  0  0  0  0  0  0  0  0
   22.6659    7.1111  -59.7471 H   0  0  0  1  0  0  0  0  0  0  0  0
   22.2556    5.2419  -61.2097 H   0  0  0  1  0  0  0  0  0  0  0  0
  1  3  4  0  0  0  0
  1 14  4  0  0  0  0
  1 21  1  0  0  0  0
  2 14  4  0  0  0  0
  2 15  4  0  0  0  0
  2 30  1  0  0  0  0
  3 16  4  0  0  0  0
  4  5  4  0  0  0  0
  4  7  4  0  0  0  0
  4 17  1  0  0  0  0
  5  9  4  0  0  0  0
  5 31  1  0  0  0  0
  6  7  4  0  0  0  0
  6  8  4  0  0  0  0
  6 32  1  0  0  0  0
  7 33  1  0  0  0  0
  8  9  4  0  0  0  0
  8 20  1  0  0  0  0
  9 34  1  0  0  0  0
 10 11  1  0  0  0  0
 10 21  1  0  0  0  0
 10 24  1  0  0  0  0
 10 35  1  0  0  0  0
 11 12  1  0  0  0  0
 11 36  1  0  0  0  0
 11 37  1  0  0  0  0
 12 23  1  0  0  0  0
 12 38  1  0  0  0  0
 12 39  1  0  0  0  0
 13 23  1  0  0  0  0
 13 25  4  0  0  0  0
 13 29  4  0  0  0  0
 15 16  4  0  0  0  0
 15 18  4  0  0  0  0
 16 17  4  0  0  0  0
 17 19  4  0  0  0  0
 18 19  4  0  0  0  0
 20 22  1  0  0  0  0
 21 40  1  0  0  0  0
 22 41  1  0  0  0  0
 22 42  1  0  0  0  0
 22 43  1  0  0  0  0
 23 24  1  0  0  0  0
 24 44  1  0  0  0  0
 24 45  1  0  0  0  0
 25 26  4  0  0  0  0
 25 46  1  0  0  0  0
 26 27  4  0  0  0  0
 26 47  1  0  0  0  0
 27 28  4  0  0  0  0
 28 29  4  0  0  0  0
 28 48  1  0  0  0  0
 29 49  1  0  0  0  0
M  END
> <ConfClashScore>
0 

> <ConfOneFourInteractionScore>
-0.987833 

> <ConfScore>
-0.0134156 

> <ConfScorePBest>
0.00441958 

> <ConfTolerance>
0.408358 

> <HETNAM>
     OWQ A 303  OWQ                                                       

> <pdb_OW>
Q_303 -16.5129 3.80749 7.62812 0.15963 1.39178 -0.28144 -3.20151 0 0 0 -1.30514 0 0 0 0 0 0 0 0 -8.31393

$$$$
6yky_lig_1.pdb
 OpenBabel04162415593D

 49 53  0  0  0  0  0  0  0  0999 V2000
   25.1046    1.8135  -65.3759 C   0  0  0  1  0  0  0  0  0  0  0  0
   26.9167    0.5034  -65.9326 C   0  0  0  1  0  0  0  0  0  0  0  0
   25.4177    1.8282  -64.0982 N   0  0  0  1  0  0  0  0  0  0  0  0
   26.6710    1.3254  -61.1127 C   0  0  0  1  0  0  0  0  0  0  0  0
   26.9643    0.4650  -60.0717 C   0  0  0  1  0  0  0  0  0  0  0  0
   25.4252    2.7196  -59.6121 C   0  0  0  1  0  0  0  0  0  0  0  0
   25.8980    2.4530  -60.8833 C   0  0  0  1  0  0  0  0  0  0  0  0
   25.7194    1.8568  -58.5679 C   0  0  0  1  0  0  0  0  0  0  0  0
   26.4902    0.7326  -58.7969 C   0  0  0  1  0  0  0  0  0  0  0  0
   23.4870    2.4324  -67.1421 C   0  0  0  1  0  0  0  0  0  0  0  0
   22.2032    3.2809  -67.2786 C   0  0  0  1  0  0  0  0  0  0  0  0
   21.2412    2.5121  -68.1488 C   0  0  0  1  0  0  0  0  0  0  0  0
   21.2935    0.0080  -68.7389 C   0  0  0  1  0  0  0  0  0  0  0  0
   25.8297    1.1707  -66.2748 N   0  0  0  1  0  0  0  0  0  0  0  0
   27.2965    0.4857  -64.5857 C   0  0  0  1  0  0  0  0  0  0  0  0
   26.4936    1.1850  -63.6614 C   0  0  0  1  0  0  0  0  0  0  0  0
   27.0809    1.0060  -62.4394 N   0  0  0  1  0  0  0  0  0  0  0  0
   28.3159   -0.0766  -63.9005 N   0  0  0  1  0  0  0  0  0  0  0  0
   28.2164    0.2092  -62.6490 N   0  0  0  1  0  0  0  0  0  0  0  0
   25.3094    2.0105  -57.2865 O   0  0  0  1  0  0  0  0  0  0  0  0
   24.0033    2.4786  -65.7852 N   0  0  0  1  0  0  0  0  0  0  0  0
   24.3135    3.0136  -57.0321 C   0  0  0  1  0  0  0  0  0  0  0  0
   21.8782    1.1054  -68.1299 N   0  0  0  1  0  0  0  0  0  0  0  0
   23.0052    1.0393  -67.4964 C   0  0  0  1  0  0  0  0  0  0  0  0
   20.3781   -0.6938  -67.9766 C   0  0  0  1  0  0  0  0  0  0  0  0
   19.7579   -1.7970  -68.5315 C   0  0  0  1  0  0  0  0  0  0  0  0
   19.9986   -2.2281  -69.7734 N   0  0  0  1  0  0  0  0  0  0  0  0
   20.8916   -1.5409  -70.4997 C   0  0  0  1  0  0  0  0  0  0  0  0
   21.5556   -0.4235  -70.0246 C   0  0  0  1  0  0  0  0  0  0  0  0
   27.4790    0.0015  -66.6492 H   0  0  0  1  0  0  0  0  0  0  0  0
   27.5410   -0.3831  -60.2447 H   0  0  0  1  0  0  0  0  0  0  0  0
   24.8486    3.5677  -59.4391 H   0  0  0  1  0  0  0  0  0  0  0  0
   25.6738    3.0983  -61.6675 H   0  0  0  1  0  0  0  0  0  0  0  0
   26.7143    0.0872  -58.0127 H   0  0  0  1  0  0  0  0  0  0  0  0
   24.2427    2.7640  -67.8232 H   0  0  0  1  0  0  0  0  0  0  0  0
   22.4342    4.2219  -67.7326 H   0  0  0  1  0  0  0  0  0  0  0  0
   21.7707    3.4464  -66.3140 H   0  0  0  1  0  0  0  0  0  0  0  0
   20.2564    2.5021  -67.7304 H   0  0  0  1  0  0  0  0  0  0  0  0
   21.2040    2.9123  -69.1405 H   0  0  0  1  0  0  0  0  0  0  0  0
   23.5238    3.0248  -65.1278 H   0  0  0  1  0  0  0  0  0  0  0  0
   23.3809    2.7070  -57.4578 H   0  0  0  1  0  0  0  0  0  0  0  0
   24.6193    3.9393  -57.4728 H   0  0  0  1  0  0  0  0  0  0  0  0
   24.1982    3.1415  -55.9760 H   0  0  0  1  0  0  0  0  0  0  0  0
   23.7329    0.5610  -68.1180 H   0  0  0  1  0  0  0  0  0  0  0  0
   22.8736    0.4718  -66.5989 H   0  0  0  1  0  0  0  0  0  0  0  0
   20.1603   -0.3970  -67.0039 H   0  0  0  1  0  0  0  0  0  0  0  0
   19.0686   -2.3185  -67.9531 H   0  0  0  1  0  0  0  0  0  0  0  0
   21.0953   -1.8633  -71.4674 H   0  0  0  1  0  0  0  0  0  0  0  0
   22.2389    0.0817  -70.6242 H   0  0  0  1  0  0  0  0  0  0  0  0
  1  3  4  0  0  0  0
  1 14  4  0  0  0  0
  1 21  1  0  0  0  0
  2 14  4  0  0  0  0
  2 15  4  0  0  0  0
  2 30  1  0  0  0  0
  3 16  4  0  0  0  0
  4  5  4  0  0  0  0
  4  7  4  0  0  0  0
  4 17  1  0  0  0  0
  5  9  4  0  0  0  0
  5 31  1  0  0  0  0
  6  7  4  0  0  0  0
  6  8  4  0  0  0  0
  6 32  1  0  0  0  0
  7 33  1  0  0  0  0
  8  9  4  0  0  0  0
  8 20  1  0  0  0  0
  9 34  1  0  0  0  0
 10 11  1  0  0  0  0
 10 21  1  0  0  0  0
 10 24  1  0  0  0  0
 10 35  1  0  0  0  0
 11 12  1  0  0  0  0
 11 36  1  0  0  0  0
 11 37  1  0  0  0  0
 12 23  1  0  0  0  0
 12 38  1  0  0  0  0
 12 39  1  0  0  0  0
 13 23  1  0  0  0  0
 13 25  4  0  0  0  0
 13 29  4  0  0  0  0
 15 16  4  0  0  0  0
 15 18  4  0  0  0  0
 16 17  4  0  0  0  0
 17 19  4  0  0  0  0
 18 19  4  0  0  0  0
 20 22  1  0  0  0  0
 21 40  1  0  0  0  0
 22 41  1  0  0  0  0
 22 42  1  0  0  0  0
 22 43  1  0  0  0  0
 23 24  1  0  0  0  0
 24 44  1  0  0  0  0
 24 45  1  0  0  0  0
 25 26  4  0  0  0  0
 25 46  1  0  0  0  0
 26 27  4  0  0  0  0
 26 47  1  0  0  0  0
 27 28  4  0  0  0  0
 28 29  4  0  0  0  0
 28 48  1  0  0  0  0
 29 49  1  0  0  0  0
M  END
> <ConfClashScore>
0 

> <ConfOneFourInteractionScore>
-0.984874 

> <ConfScore>
-0.0134156 

> <ConfScorePBest>
0.00440625 

> <ConfTolerance>
0.544499 

> <HETNAM>
     OWQ A 303  OWQ                                                       

> <pdb_OW>
Q_303 -16.5129 3.80749 7.62812 0.15963 1.39178 -0.28144 -3.20151 0 0 0 -1.30514 0 0 0 0 0 0 0 0 -8.31393

$$$$
6yky_lig_1.pdb
 OpenBabel04162415593D

 49 53  0  0  0  0  0  0  0  0999 V2000
   25.1048    1.8134  -65.3760 C   0  0  0  1  0  0  0  0  0  0  0  0
   26.9167    0.5034  -65.9326 C   0  0  0  1  0  0  0  0  0  0  0  0
   25.4178    1.8282  -64.0982 N   0  0  0  1  0  0  0  0  0  0  0  0
   26.8384    1.5660  -61.1519 C   0  0  0  1  0  0  0  0  0  0  0  0
   25.7063    2.3270  -60.9302 C   0  0  0  1  0  0  0  0  0  0  0  0
   27.5944    2.0383  -58.9263 C   0  0  0  1  0  0  0  0  0  0  0  0
   27.7852    1.4235  -60.1494 C   0  0  0  1  0  0  0  0  0  0  0  0
   26.4589    2.8017  -58.7039 C   0  0  0  1  0  0  0  0  0  0  0  0
   25.5150    2.9436  -59.7036 C   0  0  0  1  0  0  0  0  0  0  0  0
   23.1049    3.1858  -64.8893 C   0  0  0  1  0  0  0  0  0  0  0  0
   21.6189    2.8125  -65.1475 C   0  0  0  1  0  0  0  0  0  0  0  0
   20.7570    4.0209  -64.7254 C   0  0  0  1  0  0  0  0  0  0  0  0
   21.4813    6.4101  -64.1935 C   0  0  0  1  0  0  0  0  0  0  0  0
   25.8297    1.1706  -66.2748 N   0  0  0  1  0  0  0  0  0  0  0  0
   27.2965    0.4856  -64.5858 C   0  0  0  1  0  0  0  0  0  0  0  0
   26.4936    1.1851  -63.6614 C   0  0  0  1  0  0  0  0  0  0  0  0
   27.0809    1.0061  -62.4396 N   0  0  0  1  0  0  0  0  0  0  0  0
   28.3159   -0.0766  -63.9004 N   0  0  0  1  0  0  0  0  0  0  0  0
   28.2164    0.2092  -62.6491 N   0  0  0  1  0  0  0  0  0  0  0  0
   26.3836    3.3586  -57.4718 O   0  0  0  1  0  0  0  0  0  0  0  0
   24.0033    2.4785  -65.7853 N   0  0  0  1  0  0  0  0  0  0  0  0
   25.3563    4.3388  -57.2564 C   0  0  0  1  0  0  0  0  0  0  0  0
   21.7498    5.1313  -64.6749 N   0  0  0  1  0  0  0  0  0  0  0  0
   23.0525    4.6936  -65.2026 C   0  0  0  1  0  0  0  0  0  0  0  0
   20.2463    6.7143  -63.6518 C   0  0  0  1  0  0  0  0  0  0  0  0
   20.0236    7.9948  -63.1821 C   0  0  0  1  0  0  0  0  0  0  0  0
   20.9430    8.9638  -63.2261 N   0  0  0  1  0  0  0  0  0  0  0  0
   22.1345    8.6561  -63.7579 C   0  0  0  1  0  0  0  0  0  0  0  0
   22.4437    7.3994  -64.2480 C   0  0  0  1  0  0  0  0  0  0  0  0
   27.4790    0.0013  -66.6492 H   0  0  0  1  0  0  0  0  0  0  0  0
   24.9980    2.4372  -61.6837 H   0  0  0  1  0  0  0  0  0  0  0  0
   28.3027    1.9281  -58.1729 H   0  0  0  1  0  0  0  0  0  0  0  0
   28.6390    0.8541  -60.3176 H   0  0  0  1  0  0  0  0  0  0  0  0
   24.6611    3.5130  -59.5354 H   0  0  0  1  0  0  0  0  0  0  0  0
   23.3918    2.9995  -63.8755 H   0  0  0  1  0  0  0  0  0  0  0  0
   21.4702    2.6029  -66.1862 H   0  0  0  1  0  0  0  0  0  0  0  0
   21.3521    1.9535  -64.5681 H   0  0  0  1  0  0  0  0  0  0  0  0
   19.9925    4.2199  -65.4470 H   0  0  0  1  0  0  0  0  0  0  0  0
   20.3101    3.8595  -63.7668 H   0  0  0  1  0  0  0  0  0  0  0  0
   23.7979    2.4845  -66.7435 H   0  0  0  1  0  0  0  0  0  0  0  0
   25.5000    5.1601  -57.9269 H   0  0  0  1  0  0  0  0  0  0  0  0
   25.4049    4.6900  -56.2469 H   0  0  0  1  0  0  0  0  0  0  0  0
   24.3985    3.8964  -57.4349 H   0  0  0  1  0  0  0  0  0  0  0  0
   23.8520    5.2100  -64.7135 H   0  0  0  1  0  0  0  0  0  0  0  0
   23.1102    4.8636  -66.2574 H   0  0  0  1  0  0  0  0  0  0  0  0
   19.4988    5.9931  -63.5986 H   0  0  0  1  0  0  0  0  0  0  0  0
   19.0930    8.2157  -62.7737 H   0  0  0  1  0  0  0  0  0  0  0  0
   22.8619    9.3980  -63.8045 H   0  0  0  1  0  0  0  0  0  0  0  0
   23.3828    7.2035  -64.6496 H   0  0  0  1  0  0  0  0  0  0  0  0
  1  3  4  0  0  0  0
  1 14  4  0  0  0  0
  1 21  1  0  0  0  0
  2 14  4  0  0  0  0
  2 15  4  0  0  0  0
  2 30  1  0  0  0  0
  3 16  4  0  0  0  0
  4  5  4  0  0  0  0
  4  7  4  0  0  0  0
  4 17  1  0  0  0  0
  5  9  4  0  0  0  0
  5 31  1  0  0  0  0
  6  7  4  0  0  0  0
  6  8  4  0  0  0  0
  6 32  1  0  0  0  0
  7 33  1  0  0  0  0
  8  9  4  0  0  0  0
  8 20  1  0  0  0  0
  9 34  1  0  0  0  0
 10 11  1  0  0  0  0
 10 21  1  0  0  0  0
 10 24  1  0  0  0  0
 10 35  1  0  0  0  0
 11 12  1  0  0  0  0
 11 36  1  0  0  0  0
 11 37  1  0  0  0  0
 12 23  1  0  0  0  0
 12 38  1  0  0  0  0
 12 39  1  0  0  0  0
 13 23  1  0  0  0  0
 13 25  4  0  0  0  0
 13 29  4  0  0  0  0
 15 16  4  0  0  0  0
 15 18  4  0  0  0  0
 16 17  4  0  0  0  0
 17 19  4  0  0  0  0
 18 19  4  0  0  0  0
 20 22  1  0  0  0  0
 21 40  1  0  0  0  0
 22 41  1  0  0  0  0
 22 42  1  0  0  0  0
 22 43  1  0  0  0  0
 23 24  1  0  0  0  0
 24 44  1  0  0  0  0
 24 45  1  0  0  0  0
 25 26  4  0  0  0  0
 25 46  1  0  0  0  0
 26 27  4  0  0  0  0
 26 47  1  0  0  0  0
 27 28  4  0  0  0  0
 28 29  4  0  0  0  0
 28 48  1  0  0  0  0
 29 49  1  0  0  0  0
M  END
> <ConfClashScore>
0 

> <ConfOneFourInteractionScore>
-0.986948 

> <ConfScore>
-0.0131501 

> <ConfScorePBest>
0.00439292 

> <ConfTolerance>
0.423568 

> <HETNAM>
     OWQ A 303  OWQ                                                       

> <pdb_OW>
Q_303 -16.5129 3.80749 7.62812 0.15963 1.39178 -0.28144 -3.20151 0 0 0 -1.30514 0 0 0 0 0 0 0 0 -8.31393

$$$$
6yky_lig_1.pdb
 OpenBabel04162415593D

 49 53  0  0  0  0  0  0  0  0999 V2000
   25.1048    1.8135  -65.3759 C   0  0  0  1  0  0  0  0  0  0  0  0
   26.9167    0.5034  -65.9326 C   0  0  0  1  0  0  0  0  0  0  0  0
   25.4178    1.8284  -64.0982 N   0  0  0  1  0  0  0  0  0  0  0  0
   26.7670    1.4473  -61.1215 C   0  0  0  1  0  0  0  0  0  0  0  0
   27.6485    1.2096  -60.0838 C   0  0  0  1  0  0  0  0  0  0  0  0
   25.1931    2.3820  -59.5734 C   0  0  0  1  0  0  0  0  0  0  0  0
   25.5365    2.0319  -60.8657 C   0  0  0  1  0  0  0  0  0  0  0  0
   26.0771    2.1435  -58.5325 C   0  0  0  1  0  0  0  0  0  0  0  0
   27.3040    1.5606  -58.7879 C   0  0  0  1  0  0  0  0  0  0  0  0
   23.5849    2.5756  -67.1729 C   0  0  0  1  0  0  0  0  0  0  0  0
   22.5538    3.7180  -67.3872 C   0  0  0  1  0  0  0  0  0  0  0  0
   21.6768    3.3303  -68.5962 C   0  0  0  1  0  0  0  0  0  0  0  0
   21.4749    1.0842  -69.7786 C   0  0  0  1  0  0  0  0  0  0  0  0
   25.8297    1.1706  -66.2748 N   0  0  0  1  0  0  0  0  0  0  0  0
   27.2966    0.4857  -64.5857 C   0  0  0  1  0  0  0  0  0  0  0  0
   26.4937    1.1852  -63.6614 C   0  0  0  1  0  0  0  0  0  0  0  0
   27.0810    1.0061  -62.4395 N   0  0  0  1  0  0  0  0  0  0  0  0
   28.3159   -0.0766  -63.9004 N   0  0  0  1  0  0  0  0  0  0  0  0
   28.2164    0.2092  -62.6490 N   0  0  0  1  0  0  0  0  0  0  0  0
   25.7442    2.5910  -57.2985 O   0  0  0  1  0  0  0  0  0  0  0  0
   24.0034    2.4787  -65.7853 N   0  0  0  1  0  0  0  0  0  0  0  0
   26.6535    2.2972  -56.2265 C   0  0  0  1  0  0  0  0  0  0  0  0
   21.9296    1.8678  -68.7303 N   0  0  0  1  0  0  0  0  0  0  0  0
   22.7276    1.3680  -67.5987 C   0  0  0  1  0  0  0  0  0  0  0  0
   20.2422    0.4617  -69.7101 C   0  0  0  1  0  0  0  0  0  0  0  0
   19.8258   -0.3076  -70.7799 C   0  0  0  1  0  0  0  0  0  0  0  0
   20.5564   -0.4868  -71.8846 N   0  0  0  1  0  0  0  0  0  0  0  0
   21.7512    0.1189  -71.9356 C   0  0  0  1  0  0  0  0  0  0  0  0
   22.2443    0.9095  -70.9123 C   0  0  0  1  0  0  0  0  0  0  0  0
   27.4789    0.0014  -66.6492 H   0  0  0  1  0  0  0  0  0  0  0  0
   28.5700    0.7672  -60.2754 H   0  0  0  1  0  0  0  0  0  0  0  0
   24.2716    2.8242  -59.3820 H   0  0  0  1  0  0  0  0  0  0  0  0
   24.8716    2.2071  -61.6460 H   0  0  0  1  0  0  0  0  0  0  0  0
   27.9688    1.3855  -58.0076 H   0  0  0  1  0  0  0  0  0  0  0  0
   24.4452    2.6932  -67.7980 H   0  0  0  1  0  0  0  0  0  0  0  0
   21.9446    3.8287  -66.5146 H   0  0  0  1  0  0  0  0  0  0  0  0
   23.0637    4.6376  -67.5858 H   0  0  0  1  0  0  0  0  0  0  0  0
   21.9804    3.8564  -69.4771 H   0  0  0  1  0  0  0  0  0  0  0  0
   20.6432    3.5267  -68.4014 H   0  0  0  1  0  0  0  0  0  0  0  0
   23.4538    2.9224  -65.1059 H   0  0  0  1  0  0  0  0  0  0  0  0
   26.5614    3.0435  -55.4653 H   0  0  0  1  0  0  0  0  0  0  0  0
   27.6559    2.2918  -56.6009 H   0  0  0  1  0  0  0  0  0  0  0  0
   26.4209    1.3375  -55.8147 H   0  0  0  1  0  0  0  0  0  0  0  0
   22.0924    1.0532  -66.7973 H   0  0  0  1  0  0  0  0  0  0  0  0
   23.3483    0.5519  -67.9043 H   0  0  0  1  0  0  0  0  0  0  0  0
   19.6397    0.5705  -68.8694 H   0  0  0  1  0  0  0  0  0  0  0  0
   18.8964   -0.7706  -70.7224 H   0  0  0  1  0  0  0  0  0  0  0  0
   22.3362   -0.0117  -72.7855 H   0  0  0  1  0  0  0  0  0  0  0  0
   23.1762    1.3636  -70.9954 H   0  0  0  1  0  0  0  0  0  0  0  0
  1  3  4  0  0  0  0
  1 14  4  0  0  0  0
  1 21  1  0  0  0  0
  2 14  4  0  0  0  0
  2 15  4  0  0  0  0
  2 30  1  0  0  0  0
  3 16  4  0  0  0  0
  4  5  4  0  0  0  0
  4  7  4  0  0  0  0
  4 17  1  0  0  0  0
  5  9  4  0  0  0  0
  5 31  1  0  0  0  0
  6  7  4  0  0  0  0
  6  8  4  0  0  0  0
  6 32  1  0  0  0  0
  7 33  1  0  0  0  0
  8  9  4  0  0  0  0
  8 20  1  0  0  0  0
  9 34  1  0  0  0  0
 10 11  1  0  0  0  0
 10 21  1  0  0  0  0
 10 24  1  0  0  0  0
 10 35  1  0  0  0  0
 11 12  1  0  0  0  0
 11 36  1  0  0  0  0
 11 37  1  0  0  0  0
 12 23  1  0  0  0  0
 12 38  1  0  0  0  0
 12 39  1  0  0  0  0
 13 23  1  0  0  0  0
 13 25  4  0  0  0  0
 13 29  4  0  0  0  0
 15 16  4  0  0  0  0
 15 18  4  0  0  0  0
 16 17  4  0  0  0  0
 17 19  4  0  0  0  0
 18 19  4  0  0  0  0
 20 22  1  0  0  0  0
 21 40  1  0  0  0  0
 22 41  1  0  0  0  0
 22 42  1  0  0  0  0
 22 43  1  0  0  0  0
 23 24  1  0  0  0  0
 24 44  1  0  0  0  0
 24 45  1  0  0  0  0
 25 26  4  0  0  0  0
 25 46  1  0  0  0  0
 26 27  4  0  0  0  0
 26 47  1  0  0  0  0
 27 28  4  0  0  0  0
 28 29  4  0  0  0  0
 28 48  1  0  0  0  0
 29 49  1  0  0  0  0
M  END
> <ConfClashScore>
0 

> <ConfOneFourInteractionScore>
-0.986948 

> <ConfScore>
-0.0120245 

> <ConfScorePBest>
0.0043796 

> <ConfTolerance>
0.378764 

> <HETNAM>
     OWQ A 303  OWQ                                                       

> <pdb_OW>
Q_303 -16.5129 3.80749 7.62812 0.15963 1.39178 -0.28144 -3.20151 0 0 0 -1.30514 0 0 0 0 0 0 0 0 -8.31393

$$$$
6yky_lig_1.pdb
 OpenBabel04162415593D

 49 53  0  0  0  0  0  0  0  0999 V2000
   25.1048    1.8135  -65.3759 C   0  0  0  1  0  0  0  0  0  0  0  0
   26.9167    0.5034  -65.9325 C   0  0  0  1  0  0  0  0  0  0  0  0
   25.4178    1.8283  -64.0982 N   0  0  0  1  0  0  0  0  0  0  0  0
   26.6856    1.4949  -61.1608 C   0  0  0  1  0  0  0  0  0  0  0  0
   27.5048    1.3054  -60.0639 C   0  0  0  1  0  0  0  0  0  0  0  0
   25.0153    2.4742  -59.7470 C   0  0  0  1  0  0  0  0  0  0  0  0
   25.4379    2.0777  -61.0018 C   0  0  0  1  0  0  0  0  0  0  0  0
   25.8370    2.2842  -58.6467 C   0  0  0  1  0  0  0  0  0  0  0  0
   27.0809    1.7031  -58.8056 C   0  0  0  1  0  0  0  0  0  0  0  0
   23.1422    3.2025  -64.8549 C   0  0  0  1  0  0  0  0  0  0  0  0
   21.7011    3.3843  -65.4064 C   0  0  0  1  0  0  0  0  0  0  0  0
   21.1188    4.6638  -64.7700 C   0  0  0  1  0  0  0  0  0  0  0  0
   22.3167    6.5060  -63.4760 C   0  0  0  1  0  0  0  0  0  0  0  0
   25.8296    1.1707  -66.2748 N   0  0  0  1  0  0  0  0  0  0  0  0
   27.2965    0.4857  -64.5857 C   0  0  0  1  0  0  0  0  0  0  0  0
   26.4936    1.1851  -63.6614 C   0  0  0  1  0  0  0  0  0  0  0  0
   27.0810    1.0061  -62.4395 N   0  0  0  1  0  0  0  0  0  0  0  0
   28.3159   -0.0766  -63.9005 N   0  0  0  1  0  0  0  0  0  0  0  0
   28.2164    0.2092  -62.6490 N   0  0  0  1  0  0  0  0  0  0  0  0
   25.4810    2.6451  -57.3910 O   0  0  0  1  0  0  0  0  0  0  0  0
   23.9920    2.4856  -65.7894 N   0  0  0  1  0  0  0  0  0  0  0  0
   26.5218    2.6940  -56.4025 C   0  0  0  1  0  0  0  0  0  0  0  0
   22.3348    5.3632  -64.2666 N   0  0  0  1  0  0  0  0  0  0  0  0
   23.5575    4.6803  -64.7201 C   0  0  0  1  0  0  0  0  0  0  0  0
   22.5350    7.7283  -64.0843 C   0  0  0  1  0  0  0  0  0  0  0  0
   22.6078    8.8601  -63.2947 C   0  0  0  1  0  0  0  0  0  0  0  0
   22.4806    8.8375  -61.9645 N   0  0  0  1  0  0  0  0  0  0  0  0
   22.2737    7.6452  -61.3876 C   0  0  0  1  0  0  0  0  0  0  0  0
   22.1837    6.4633  -62.1019 C   0  0  0  1  0  0  0  0  0  0  0  0
   27.4789    0.0014  -66.6492 H   0  0  0  1  0  0  0  0  0  0  0  0
   28.4392    0.8645  -60.1827 H   0  0  0  1  0  0  0  0  0  0  0  0
   24.0809    2.9150  -59.6282 H   0  0  0  1  0  0  0  0  0  0  0  0
   24.8198    2.2165  -61.8266 H   0  0  0  1  0  0  0  0  0  0  0  0
   27.6990    1.5642  -57.9808 H   0  0  0  1  0  0  0  0  0  0  0  0
   23.1466    2.6999  -63.9103 H   0  0  0  1  0  0  0  0  0  0  0  0
   21.0998    2.5392  -65.1429 H   0  0  0  1  0  0  0  0  0  0  0  0
   21.7276    3.4857  -66.4713 H   0  0  0  1  0  0  0  0  0  0  0  0
   20.6061    5.2574  -65.4978 H   0  0  0  1  0  0  0  0  0  0  0  0
   20.4512    4.4261  -63.9683 H   0  0  0  1  0  0  0  0  0  0  0  0
   23.7599    2.4846  -66.7416 H   0  0  0  1  0  0  0  0  0  0  0  0
   27.4426    2.9787  -56.8672 H   0  0  0  1  0  0  0  0  0  0  0  0
   26.6324    1.7292  -55.9535 H   0  0  0  1  0  0  0  0  0  0  0  0
   26.2655    3.4107  -55.6505 H   0  0  0  1  0  0  0  0  0  0  0  0
   23.8816    5.0701  -65.6623 H   0  0  0  1  0  0  0  0  0  0  0  0
   24.3412    4.7891  -63.9998 H   0  0  0  1  0  0  0  0  0  0  0  0
   22.6425    7.7947  -65.1166 H   0  0  0  1  0  0  0  0  0  0  0  0
   22.7697    9.7763  -63.7594 H   0  0  0  1  0  0  0  0  0  0  0  0
   22.1761    7.6065  -60.3529 H   0  0  0  1  0  0  0  0  0  0  0  0
   22.0190    5.5600  -61.6133 H   0  0  0  1  0  0  0  0  0  0  0  0
  1  3  4  0  0  0  0
  1 14  4  0  0  0  0
  1 21  1  0  0  0  0
  2 14  4  0  0  0  0
  2 15  4  0  0  0  0
  2 30  1  0  0  0  0
  3 16  4  0  0  0  0
  4  5  4  0  0  0  0
  4  7  4  0  0  0  0
  4 17  1  0  0  0  0
  5  9  4  0  0  0  0
  5 31  1  0  0  0  0
  6  7  4  0  0  0  0
  6  8  4  0  0  0  0
  6 32  1  0  0  0  0
  7 33  1  0  0  0  0
  8  9  4  0  0  0  0
  8 20  1  0  0  0  0
  9 34  1  0  0  0  0
 10 11  1  0  0  0  0
 10 21  1  0  0  0  0
 10 24  1  0  0  0  0
 10 35  1  0  0  0  0
 11 12  1  0  0  0  0
 11 36  1  0  0  0  0
 11 37  1  0  0  0  0
 12 23  1  0  0  0  0
 12 38  1  0  0  0  0
 12 39  1  0  0  0  0
 13 23  1  0  0  0  0
 13 25  4  0  0  0  0
 13 29  4  0  0  0  0
 15 16  4  0  0  0  0
 15 18  4  0  0  0  0
 16 17  4  0  0  0  0
 17 19  4  0  0  0  0
 18 19  4  0  0  0  0
 20 22  1  0  0  0  0
 21 40  1  0  0  0  0
 22 41  1  0  0  0  0
 22 42  1  0  0  0  0
 22 43  1  0  0  0  0
 23 24  1  0  0  0  0
 24 44  1  0  0  0  0
 24 45  1  0  0  0  0
 25 26  4  0  0  0  0
 25 46  1  0  0  0  0
 26 27  4  0  0  0  0
 26 47  1  0  0  0  0
 27 28  4  0  0  0  0
 28 29  4  0  0  0  0
 28 48  1  0  0  0  0
 29 49  1  0  0  0  0
M  END
> <ConfClashScore>
0 

> <ConfOneFourInteractionScore>
-0.986948 

> <ConfScore>
-0.0120245 

> <ConfScorePBest>
0.00436627 

> <ConfTolerance>
0.411833 

> <HETNAM>
     OWQ A 303  OWQ                                                       

> <pdb_OW>
Q_303 -16.5129 3.80749 7.62812 0.15963 1.39178 -0.28144 -3.20151 0 0 0 -1.30514 0 0 0 0 0 0 0 0 -8.31393

$$$$
6yky_lig_1.pdb
 OpenBabel04162415593D

 49 53  0  0  0  0  0  0  0  0999 V2000
   25.1048    1.8135  -65.3760 C   0  0  0  1  0  0  0  0  0  0  0  0
   26.9167    0.5034  -65.9326 C   0  0  0  1  0  0  0  0  0  0  0  0
   25.4178    1.8283  -64.0982 N   0  0  0  1  0  0  0  0  0  0  0  0
   26.7285    1.4698  -61.1391 C   0  0  0  1  0  0  0  0  0  0  0  0
   27.2457    2.6608  -60.6654 C   0  0  0  1  0  0  0  0  0  0  0  0
   25.6692    1.0857  -59.0231 C   0  0  0  1  0  0  0  0  0  0  0  0
   25.9413    0.6798  -60.3159 C   0  0  0  1  0  0  0  0  0  0  0  0
   26.1878    2.2802  -58.5479 C   0  0  0  1  0  0  0  0  0  0  0  0
   26.9727    3.0677  -59.3688 C   0  0  0  1  0  0  0  0  0  0  0  0
   23.2417    3.2803  -64.8002 C   0  0  0  1  0  0  0  0  0  0  0  0
   21.8054    3.4277  -65.2092 C   0  0  0  1  0  0  0  0  0  0  0  0
   21.8884    4.5978  -66.2289 C   0  0  0  1  0  0  0  0  0  0  0  0
   23.2325    6.7087  -66.0956 C   0  0  0  1  0  0  0  0  0  0  0  0
   25.8297    1.1706  -66.2748 N   0  0  0  1  0  0  0  0  0  0  0  0
   27.2965    0.4857  -64.5857 C   0  0  0  1  0  0  0  0  0  0  0  0
   26.4936    1.1852  -63.6614 C   0  0  0  1  0  0  0  0  0  0  0  0
   27.0809    1.0061  -62.4395 N   0  0  0  1  0  0  0  0  0  0  0  0
   28.3159   -0.0766  -63.9004 N   0  0  0  1  0  0  0  0  0  0  0  0
   28.2164    0.2093  -62.6490 N   0  0  0  1  0  0  0  0  0  0  0  0
   25.8882    2.6175  -57.2710 O   0  0  0  1  0  0  0  0  0  0  0  0
   23.9765    2.4948  -65.7952 N   0  0  0  1  0  0  0  0  0  0  0  0
   24.8278    1.8900  -56.6317 C   0  0  0  1  0  0  0  0  0  0  0  0
   22.9783    5.3749  -65.6992 N   0  0  0  1  0  0  0  0  0  0  0  0
   23.7944    4.6752  -64.7244 C   0  0  0  1  0  0  0  0  0  0  0  0
   22.5087    7.7550  -65.5544 C   0  0  0  1  0  0  0  0  0  0  0  0
   22.7924    9.0429  -65.9671 C   0  0  0  1  0  0  0  0  0  0  0  0
   23.7334    9.3349  -66.8701 N   0  0  0  1  0  0  0  0  0  0  0  0
   24.4245    8.3104  -67.3899 C   0  0  0  1  0  0  0  0  0  0  0  0
   24.2087    6.9913  -67.0312 C   0  0  0  1  0  0  0  0  0  0  0  0
   27.4790    0.0014  -66.6492 H   0  0  0  1  0  0  0  0  0  0  0  0
   27.8396    3.2515  -61.2818 H   0  0  0  1  0  0  0  0  0  0  0  0
   25.0753    0.4950  -58.4067 H   0  0  0  1  0  0  0  0  0  0  0  0
   25.5555   -0.2184  -60.6711 H   0  0  0  1  0  0  0  0  0  0  0  0
   27.3585    3.9659  -59.0136 H   0  0  0  1  0  0  0  0  0  0  0  0
   23.3094    2.8011  -63.8459 H   0  0  0  1  0  0  0  0  0  0  0  0
   21.4372    2.5345  -65.6692 H   0  0  0  1  0  0  0  0  0  0  0  0
   21.1861    3.6810  -64.3742 H   0  0  0  1  0  0  0  0  0  0  0  0
   20.9802    5.1631  -66.2474 H   0  0  0  1  0  0  0  0  0  0  0  0
   22.1072    4.2411  -67.2137 H   0  0  0  1  0  0  0  0  0  0  0  0
   23.6781    2.4536  -66.7278 H   0  0  0  1  0  0  0  0  0  0  0  0
   24.7985    2.1412  -55.5920 H   0  0  0  1  0  0  0  0  0  0  0  0
   25.0006    0.8395  -56.7399 H   0  0  0  1  0  0  0  0  0  0  0  0
   23.8942    2.1471  -57.0869 H   0  0  0  1  0  0  0  0  0  0  0  0
   24.8293    4.6987  -64.9950 H   0  0  0  1  0  0  0  0  0  0  0  0
   23.6717    5.0895  -63.7455 H   0  0  0  1  0  0  0  0  0  0  0  0
   21.7649    7.5761  -64.8499 H   0  0  0  1  0  0  0  0  0  0  0  0
   22.2457    9.8252  -65.5538 H   0  0  0  1  0  0  0  0  0  0  0  0
   25.1585    8.5170  -68.0972 H   0  0  0  1  0  0  0  0  0  0  0  0
   24.7708    6.2273  -67.4578 H   0  0  0  1  0  0  0  0  0  0  0  0
  1  3  4  0  0  0  0
  1 14  4  0  0  0  0
  1 21  1  0  0  0  0
  2 14  4  0  0  0  0
  2 15  4  0  0  0  0
  2 30  1  0  0  0  0
  3 16  4  0  0  0  0
  4  5  4  0  0  0  0
  4  7  4  0  0  0  0
  4 17  1  0  0  0  0
  5  9  4  0  0  0  0
  5 31  1  0  0  0  0
  6  7  4  0  0  0  0
  6  8  4  0  0  0  0
  6 32  1  0  0  0  0
  7 33  1  0  0  0  0
  8  9  4  0  0  0  0
  8 20  1  0  0  0  0
  9 34  1  0  0  0  0
 10 11  1  0  0  0  0
 10 21  1  0  0  0  0
 10 24  1  0  0  0  0
 10 35  1  0  0  0  0
 11 12  1  0  0  0  0
 11 36  1  0  0  0  0
 11 37  1  0  0  0  0
 12 23  1  0  0  0  0
 12 38  1  0  0  0  0
 12 39  1  0  0  0  0
 13 23  1  0  0  0  0
 13 25  4  0  0  0  0
 13 29  4  0  0  0  0
 15 16  4  0  0  0  0
 15 18  4  0  0  0  0
 16 17  4  0  0  0  0
 17 19  4  0  0  0  0
 18 19  4  0  0  0  0
 20 22  1  0  0  0  0
 21 40  1  0  0  0  0
 22 41  1  0  0  0  0
 22 42  1  0  0  0  0
 22 43  1  0  0  0  0
 23 24  1  0  0  0  0
 24 44  1  0  0  0  0
 24 45  1  0  0  0  0
 25 26  4  0  0  0  0
 25 46  1  0  0  0  0
 26 27  4  0  0  0  0
 26 47  1  0  0  0  0
 27 28  4  0  0  0  0
 28 29  4  0  0  0  0
 28 48  1  0  0  0  0
 29 49  1  0  0  0  0
M  END
> <ConfClashScore>
0 

> <ConfOneFourInteractionScore>
-0.991755 

> <ConfScore>
-0.0108404 

> <ConfScorePBest>
0.00435294 

> <ConfTolerance>
0.684985 

> <HETNAM>
     OWQ A 303  OWQ                                                       

> <pdb_OW>
Q_303 -16.5129 3.80749 7.62812 0.15963 1.39178 -0.28144 -3.20151 0 0 0 -1.30514 0 0 0 0 0 0 0 0 -8.31393

$$$$
6yky_lig_1.pdb
 OpenBabel04162415593D

 49 53  0  0  0  0  0  0  0  0999 V2000
   25.1047    1.8135  -65.3760 C   0  0  0  1  0  0  0  0  0  0  0  0
   26.9167    0.5034  -65.9326 C   0  0  0  1  0  0  0  0  0  0  0  0
   25.4178    1.8284  -64.0982 N   0  0  0  1  0  0  0  0  0  0  0  0
   26.7518    1.5717  -61.1737 C   0  0  0  1  0  0  0  0  0  0  0  0
   27.7552    1.9155  -60.2876 C   0  0  0  1  0  0  0  0  0  0  0  0
   25.1017    2.1567  -59.5361 C   0  0  0  1  0  0  0  0  0  0  0  0
   25.4232    1.6899  -60.7966 C   0  0  0  1  0  0  0  0  0  0  0  0
   26.1079    2.5016  -58.6471 C   0  0  0  1  0  0  0  0  0  0  0  0
   27.4326    2.3837  -59.0233 C   0  0  0  1  0  0  0  0  0  0  0  0
   22.9603    3.0101  -64.9293 C   0  0  0  1  0  0  0  0  0  0  0  0
   21.9308    1.9560  -64.6448 C   0  0  0  1  0  0  0  0  0  0  0  0
   21.0633    2.0094  -65.9334 C   0  0  0  1  0  0  0  0  0  0  0  0
   20.2831    4.0115  -67.2232 C   0  0  0  1  0  0  0  0  0  0  0  0
   25.8296    1.1707  -66.2748 N   0  0  0  1  0  0  0  0  0  0  0  0
   27.2964    0.4858  -64.5857 C   0  0  0  1  0  0  0  0  0  0  0  0
   26.4937    1.1852  -63.6614 C   0  0  0  1  0  0  0  0  0  0  0  0
   27.0810    1.0062  -62.4396 N   0  0  0  1  0  0  0  0  0  0  0  0
   28.3159   -0.0766  -63.9004 N   0  0  0  1  0  0  0  0  0  0  0  0
   28.2164    0.2093  -62.6490 N   0  0  0  1  0  0  0  0  0  0  0  0
   25.7920    2.8623  -57.3806 O   0  0  0  1  0  0  0  0  0  0  0  0
   24.0135    2.4726  -65.7815 N   0  0  0  1  0  0  0  0  0  0  0  0
   26.8708    3.2765  -56.5278 C   0  0  0  1  0  0  0  0  0  0  0  0
   21.1598    3.3989  -66.2976 N   0  0  0  1  0  0  0  0  0  0  0  0
   22.2320    4.1183  -65.6354 C   0  0  0  1  0  0  0  0  0  0  0  0
   19.3527    3.2596  -67.9164 C   0  0  0  1  0  0  0  0  0  0  0  0
   18.5129    3.8990  -68.8085 C   0  0  0  1  0  0  0  0  0  0  0  0
   18.5531    5.2143  -69.0419 N   0  0  0  1  0  0  0  0  0  0  0  0
   19.4629    5.9304  -68.3661 C   0  0  0  1  0  0  0  0  0  0  0  0
   20.3397    5.3724  -67.4522 C   0  0  0  1  0  0  0  0  0  0  0  0
   27.4789    0.0013  -66.6492 H   0  0  0  1  0  0  0  0  0  0  0  0
   28.7520    1.8230  -60.5692 H   0  0  0  1  0  0  0  0  0  0  0  0
   24.1049    2.2492  -59.2545 H   0  0  0  1  0  0  0  0  0  0  0  0
   24.6684    1.4274  -61.4622 H   0  0  0  1  0  0  0  0  0  0  0  0
   28.1875    2.6462  -58.3579 H   0  0  0  1  0  0  0  0  0  0  0  0
   23.3876    3.3685  -64.0162 H   0  0  0  1  0  0  0  0  0  0  0  0
   22.3820    0.9942  -64.5178 H   0  0  0  1  0  0  0  0  0  0  0  0
   21.3545    2.1978  -63.7762 H   0  0  0  1  0  0  0  0  0  0  0  0
   20.0503    1.7291  -65.7326 H   0  0  0  1  0  0  0  0  0  0  0  0
   21.4636    1.3778  -66.6986 H   0  0  0  1  0  0  0  0  0  0  0  0
   23.9123    2.6073  -66.7469 H   0  0  0  1  0  0  0  0  0  0  0  0
   27.3167    4.1656  -56.9223 H   0  0  0  1  0  0  0  0  0  0  0  0
   27.6056    2.5002  -56.4801 H   0  0  0  1  0  0  0  0  0  0  0  0
   26.4939    3.4723  -55.5458 H   0  0  0  1  0  0  0  0  0  0  0  0
   21.8479    4.8357  -64.9406 H   0  0  0  1  0  0  0  0  0  0  0  0
   22.8653    4.6106  -66.3434 H   0  0  0  1  0  0  0  0  0  0  0  0
   19.2860    2.2322  -67.7695 H   0  0  0  1  0  0  0  0  0  0  0  0
   17.8139    3.3274  -69.3246 H   0  0  0  1  0  0  0  0  0  0  0  0
   19.5122    6.9551  -68.5369 H   0  0  0  1  0  0  0  0  0  0  0  0
   21.0281    5.9665  -66.9474 H   0  0  0  1  0  0  0  0  0  0  0  0
  1  3  4  0  0  0  0
  1 14  4  0  0  0  0
  1 21  1  0  0  0  0
  2 14  4  0  0  0  0
  2 15  4  0  0  0  0
  2 30  1  0  0  0  0
  3 16  4  0  0  0  0
  4  5  4  0  0  0  0
  4  7  4  0  0  0  0
  4 17  1  0  0  0  0
  5  9  4  0  0  0  0
  5 31  1  0  0  0  0
  6  7  4  0  0  0  0
  6  8  4  0  0  0  0
  6 32  1  0  0  0  0
  7 33  1  0  0  0  0
  8  9  4  0  0  0  0
  8 20  1  0  0  0  0
  9 34  1  0  0  0  0
 10 11  1  0  0  0  0
 10 21  1  0  0  0  0
 10 24  1  0  0  0  0
 10 35  1  0  0  0  0
 11 12  1  0  0  0  0
 11 36  1  0  0  0  0
 11 37  1  0  0  0  0
 12 23  1  0  0  0  0
 12 38  1  0  0  0  0
 12 39  1  0  0  0  0
 13 23  1  0  0  0  0
 13 25  4  0  0  0  0
 13 29  4  0  0  0  0
 15 16  4  0  0  0  0
 15 18  4  0  0  0  0
 16 17  4  0  0  0  0
 17 19  4  0  0  0  0
 18 19  4  0  0  0  0
 20 22  1  0  0  0  0
 21 40  1  0  0  0  0
 22 41  1  0  0  0  0
 22 42  1  0  0  0  0
 22 43  1  0  0  0  0
 23 24  1  0  0  0  0
 24 44  1  0  0  0  0
 24 45  1  0  0  0  0
 25 26  4  0  0  0  0
 25 46  1  0  0  0  0
 26 27  4  0  0  0  0
 26 47  1  0  0  0  0
 27 28  4  0  0  0  0
 28 29  4  0  0  0  0
 28 48  1  0  0  0  0
 29 49  1  0  0  0  0
M  END
> <ConfClashScore>
0 

> <ConfOneFourInteractionScore>
-0.986948 

> <ConfScore>
-0.00900503 

> <ConfScorePBest>
0.00433961 

> <ConfTolerance>
0.552705 

> <HETNAM>
     OWQ A 303  OWQ                                                       

> <pdb_OW>
Q_303 -16.5129 3.80749 7.62812 0.15963 1.39178 -0.28144 -3.20151 0 0 0 -1.30514 0 0 0 0 0 0 0 0 -8.31393

$$$$
6yky_lig_1.pdb
 OpenBabel04162415593D

 49 53  0  0  0  0  0  0  0  0999 V2000
   25.1048    1.8136  -65.3759 C   0  0  0  1  0  0  0  0  0  0  0  0
   26.9167    0.5034  -65.9325 C   0  0  0  1  0  0  0  0  0  0  0  0
   25.4178    1.8284  -64.0982 N   0  0  0  1  0  0  0  0  0  0  0  0
   26.7670    1.4473  -61.1215 C   0  0  0  1  0  0  0  0  0  0  0  0
   25.5686    2.0898  -60.8739 C   0  0  0  1  0  0  0  0  0  0  0  0
   27.4379    1.8186  -58.8501 C   0  0  0  1  0  0  0  0  0  0  0  0
   27.7042    1.3139  -60.1089 C   0  0  0  1  0  0  0  0  0  0  0  0
   26.2360    2.4631  -58.6016 C   0  0  0  1  0  0  0  0  0  0  0  0
   25.3016    2.5960  -59.6114 C   0  0  0  1  0  0  0  0  0  0  0  0
   23.4775    2.5246  -67.1473 C   0  0  0  1  0  0  0  0  0  0  0  0
   23.9771    3.7481  -67.8580 C   0  0  0  1  0  0  0  0  0  0  0  0
   23.0046    4.8380  -67.3268 C   0  0  0  1  0  0  0  0  0  0  0  0
   20.5208    4.6986  -66.9573 C   0  0  0  1  0  0  0  0  0  0  0  0
   25.8296    1.1707  -66.2748 N   0  0  0  1  0  0  0  0  0  0  0  0
   27.2965    0.4857  -64.5857 C   0  0  0  1  0  0  0  0  0  0  0  0
   26.4937    1.1852  -63.6614 C   0  0  0  1  0  0  0  0  0  0  0  0
   27.0810    1.0061  -62.4395 N   0  0  0  1  0  0  0  0  0  0  0  0
   28.3159   -0.0766  -63.9004 N   0  0  0  1  0  0  0  0  0  0  0  0
   28.2164    0.2092  -62.6490 N   0  0  0  1  0  0  0  0  0  0  0  0
   25.8671    3.0007  -57.4147 O   0  0  0  1  0  0  0  0  0  0  0  0
   24.0075    2.4763  -65.7837 N   0  0  0  1  0  0  0  0  0  0  0  0
   26.8422    2.9951  -56.3604 C   0  0  0  1  0  0  0  0  0  0  0  0
   21.7943    4.0837  -67.1298 N   0  0  0  1  0  0  0  0  0  0  0  0
   21.9803    2.6446  -67.1217 C   0  0  0  1  0  0  0  0  0  0  0  0
   20.4064    6.0747  -66.8866 C   0  0  0  1  0  0  0  0  0  0  0  0
   19.1515    6.6296  -66.7228 C   0  0  0  1  0  0  0  0  0  0  0  0
   18.0339    5.9034  -66.6250 N   0  0  0  1  0  0  0  0  0  0  0  0
   18.1600    4.5703  -66.6907 C   0  0  0  1  0  0  0  0  0  0  0  0
   19.3764    3.9317  -66.8573 C   0  0  0  1  0  0  0  0  0  0  0  0
   27.4789    0.0014  -66.6492 H   0  0  0  1  0  0  0  0  0  0  0  0
   24.8671    2.1933  -61.6347 H   0  0  0  1  0  0  0  0  0  0  0  0
   28.1394    1.7150  -58.0893 H   0  0  0  1  0  0  0  0  0  0  0  0
   28.6076    0.8339  -60.2964 H   0  0  0  1  0  0  0  0  0  0  0  0
   24.3982    3.0759  -59.4240 H   0  0  0  1  0  0  0  0  0  0  0  0
   23.7708    1.6418  -67.6759 H   0  0  0  1  0  0  0  0  0  0  0  0
   24.9904    3.9668  -67.5930 H   0  0  0  1  0  0  0  0  0  0  0  0
   23.9007    3.6410  -68.9198 H   0  0  0  1  0  0  0  0  0  0  0  0
   23.3555    5.2582  -66.4075 H   0  0  0  1  0  0  0  0  0  0  0  0
   22.8644    5.6183  -68.0455 H   0  0  0  1  0  0  0  0  0  0  0  0
   23.5141    2.9762  -65.1003 H   0  0  0  1  0  0  0  0  0  0  0  0
   26.8393    2.0409  -55.8762 H   0  0  0  1  0  0  0  0  0  0  0  0
   26.6017    3.7567  -55.6484 H   0  0  0  1  0  0  0  0  0  0  0  0
   27.8122    3.1835  -56.7710 H   0  0  0  1  0  0  0  0  0  0  0  0
   21.5700    2.2045  -66.2369 H   0  0  0  1  0  0  0  0  0  0  0  0
   21.5389    2.1906  -67.9842 H   0  0  0  1  0  0  0  0  0  0  0  0
   21.2488    6.6806  -66.9555 H   0  0  0  1  0  0  0  0  0  0  0  0
   19.0728    7.6655  -66.6729 H   0  0  0  1  0  0  0  0  0  0  0  0
   17.3021    3.9878  -66.6127 H   0  0  0  1  0  0  0  0  0  0  0  0
   19.4279    2.8941  -66.9063 H   0  0  0  1  0  0  0  0  0  0  0  0
  1  3  4  0  0  0  0
  1 14  4  0  0  0  0
  1 21  1  0  0  0  0
  2 14  4  0  0  0  0
  2 15  4  0  0  0  0
  2 30  1  0  0  0  0
  3 16  4  0  0  0  0
  4  5  4  0  0  0  0
  4  7  4  0  0  0  0
  4 17  1  0  0  0  0
  5  9  4  0  0  0  0
  5 31  1  0  0  0  0
  6  7  4  0  0  0  0
  6  8  4  0  0  0  0
  6 32  1  0  0  0  0
  7 33  1  0  0  0  0
  8  9  4  0  0  0  0
  8 20  1  0  0  0  0
  9 34  1  0  0  0  0
 10 11  1  0  0  0  0
 10 21  1  0  0  0  0
 10 24  1  0  0  0  0
 10 35  1  0  0  0  0
 11 12  1  0  0  0  0
 11 36  1  0  0  0  0
 11 37  1  0  0  0  0
 12 23  1  0  0  0  0
 12 38  1  0  0  0  0
 12 39  1  0  0  0  0
 13 23  1  0  0  0  0
 13 25  4  0  0  0  0
 13 29  4  0  0  0  0
 15 16  4  0  0  0  0
 15 18  4  0  0  0  0
 16 17  4  0  0  0  0
 17 19  4  0  0  0  0
 18 19  4  0  0  0  0
 20 22  1  0  0  0  0
 21 40  1  0  0  0  0
 22 41  1  0  0  0  0
 22 42  1  0  0  0  0
 22 43  1  0  0  0  0
 23 24  1  0  0  0  0
 24 44  1  0  0  0  0
 24 45  1  0  0  0  0
 25 26  4  0  0  0  0
 25 46  1  0  0  0  0
 26 27  4  0  0  0  0
 26 47  1  0  0  0  0
 27 28  4  0  0  0  0
 28 29  4  0  0  0  0
 28 48  1  0  0  0  0
 29 49  1  0  0  0  0
M  END
> <ConfClashScore>
0 

> <ConfOneFourInteractionScore>
-0.986948 

> <ConfScore>
-0.00824947 

> <ConfScorePBest>
0.00432628 

> <ConfTolerance>
0.549099 

> <HETNAM>
     OWQ A 303  OWQ                                                       

> <pdb_OW>
Q_303 -16.5129 3.80749 7.62812 0.15963 1.39178 -0.28144 -3.20151 0 0 0 -1.30514 0 0 0 0 0 0 0 0 -8.31393

$$$$
6yky_lig_1.pdb
 OpenBabel04162415593D

 49 53  0  0  0  0  0  0  0  0999 V2000
   25.1047    1.8135  -65.3760 C   0  0  0  1  0  0  0  0  0  0  0  0
   26.9167    0.5034  -65.9326 C   0  0  0  1  0  0  0  0  0  0  0  0
   25.4178    1.8284  -64.0983 N   0  0  0  1  0  0  0  0  0  0  0  0
   26.7865    1.5431  -61.1529 C   0  0  0  1  0  0  0  0  0  0  0  0
   26.8069    2.9104  -60.9525 C   0  0  0  1  0  0  0  0  0  0  0  0
   26.3717    1.2045  -58.8161 C   0  0  0  1  0  0  0  0  0  0  0  0
   26.5713    0.6887  -60.0827 C   0  0  0  1  0  0  0  0  0  0  0  0
   26.3921    2.5760  -58.6150 C   0  0  0  1  0  0  0  0  0  0  0  0
   26.6067    3.4276  -59.6822 C   0  0  0  1  0  0  0  0  0  0  0  0
   23.5536    2.5282  -67.1655 C   0  0  0  1  0  0  0  0  0  0  0  0
   24.0976    3.7810  -67.9063 C   0  0  0  1  0  0  0  0  0  0  0  0
   23.0894    4.1362  -69.0190 C   0  0  0  1  0  0  0  0  0  0  0  0
   20.7199    3.2803  -69.3668 C   0  0  0  1  0  0  0  0  0  0  0  0
   25.8297    1.1707  -66.2748 N   0  0  0  1  0  0  0  0  0  0  0  0
   27.2965    0.4857  -64.5857 C   0  0  0  1  0  0  0  0  0  0  0  0
   26.4936    1.1852  -63.6614 C   0  0  0  1  0  0  0  0  0  0  0  0
   27.0810    1.0062  -62.4396 N   0  0  0  1  0  0  0  0  0  0  0  0
   28.3159   -0.0766  -63.9004 N   0  0  0  1  0  0  0  0  0  0  0  0
   28.2164    0.2092  -62.6490 N   0  0  0  1  0  0  0  0  0  0  0  0
   26.2158    3.1916  -57.4298 O   0  0  0  1  0  0  0  0  0  0  0  0
   24.0034    2.4787  -65.7853 N   0  0  0  1  0  0  0  0  0  0  0  0
   25.8998    2.3133  -56.3247 C   0  0  0  1  0  0  0  0  0  0  0  0
   21.8652    3.3955  -68.6022 N   0  0  0  1  0  0  0  0  0  0  0  0
   22.0407    2.8033  -67.2660 C   0  0  0  1  0  0  0  0  0  0  0  0
   19.6824    4.1829  -69.2227 C   0  0  0  1  0  0  0  0  0  0  0  0
   18.5567    4.0330  -70.0102 C   0  0  0  1  0  0  0  0  0  0  0  0
   18.4135    3.0540  -70.9086 N   0  0  0  1  0  0  0  0  0  0  0  0
   19.4253    2.1835  -71.0348 C   0  0  0  1  0  0  0  0  0  0  0  0
   20.5891    2.2613  -70.2900 C   0  0  0  1  0  0  0  0  0  0  0  0
   27.4789    0.0013  -66.6492 H   0  0  0  1  0  0  0  0  0  0  0  0
   26.9725    3.5512  -61.7548 H   0  0  0  1  0  0  0  0  0  0  0  0
   26.2062    0.5638  -58.0139 H   0  0  0  1  0  0  0  0  0  0  0  0
   26.5600   -0.3403  -60.2330 H   0  0  0  1  0  0  0  0  0  0  0  0
   26.6181    4.4566  -59.5320 H   0  0  0  1  0  0  0  0  0  0  0  0
   23.8273    1.6214  -67.6632 H   0  0  0  1  0  0  0  0  0  0  0  0
   25.0538    3.5651  -68.3352 H   0  0  0  1  0  0  0  0  0  0  0  0
   24.1895    4.5986  -67.2221 H   0  0  0  1  0  0  0  0  0  0  0  0
   23.4358    3.8015  -69.9745 H   0  0  0  1  0  0  0  0  0  0  0  0
   22.9091    5.1904  -69.0537 H   0  0  0  1  0  0  0  0  0  0  0  0
   23.4763    2.9563  -65.1112 H   0  0  0  1  0  0  0  0  0  0  0  0
   26.3071    2.7156  -55.4208 H   0  0  0  1  0  0  0  0  0  0  0  0
   26.3211    1.3466  -56.5060 H   0  0  0  1  0  0  0  0  0  0  0  0
   24.8374    2.2277  -56.2298 H   0  0  0  1  0  0  0  0  0  0  0  0
   21.4839    1.8937  -67.1789 H   0  0  0  1  0  0  0  0  0  0  0  0
   21.7288    3.4872  -66.5046 H   0  0  0  1  0  0  0  0  0  0  0  0
   19.7479    4.9599  -68.5345 H   0  0  0  1  0  0  0  0  0  0  0  0
   17.7815    4.7171  -69.8980 H   0  0  0  1  0  0  0  0  0  0  0  0
   19.3310    1.4123  -71.7261 H   0  0  0  1  0  0  0  0  0  0  0  0
   21.3508    1.5657  -70.4228 H   0  0  0  1  0  0  0  0  0  0  0  0
  1  3  4  0  0  0  0
  1 14  4  0  0  0  0
  1 21  1  0  0  0  0
  2 14  4  0  0  0  0
  2 15  4  0  0  0  0
  2 30  1  0  0  0  0
  3 16  4  0  0  0  0
  4  5  4  0  0  0  0
  4  7  4  0  0  0  0
  4 17  1  0  0  0  0
  5  9  4  0  0  0  0
  5 31  1  0  0  0  0
  6  7  4  0  0  0  0
  6  8  4  0  0  0  0
  6 32  1  0  0  0  0
  7 33  1  0  0  0  0
  8  9  4  0  0  0  0
  8 20  1  0  0  0  0
  9 34  1  0  0  0  0
 10 11  1  0  0  0  0
 10 21  1  0  0  0  0
 10 24  1  0  0  0  0
 10 35  1  0  0  0  0
 11 12  1  0  0  0  0
 11 36  1  0  0  0  0
 11 37  1  0  0  0  0
 12 23  1  0  0  0  0
 12 38  1  0  0  0  0
 12 39  1  0  0  0  0
 13 23  1  0  0  0  0
 13 25  4  0  0  0  0
 13 29  4  0  0  0  0
 15 16  4  0  0  0  0
 15 18  4  0  0  0  0
 16 17  4  0  0  0  0
 17 19  4  0  0  0  0
 18 19  4  0  0  0  0
 20 22  1  0  0  0  0
 21 40  1  0  0  0  0
 22 41  1  0  0  0  0
 22 42  1  0  0  0  0
 22 43  1  0  0  0  0
 23 24  1  0  0  0  0
 24 44  1  0  0  0  0
 24 45  1  0  0  0  0
 25 26  4  0  0  0  0
 25 46  1  0  0  0  0
 26 27  4  0  0  0  0
 26 47  1  0  0  0  0
 27 28  4  0  0  0  0
 28 29  4  0  0  0  0
 28 48  1  0  0  0  0
 29 49  1  0  0  0  0
M  END
> <ConfClashScore>
0 

> <ConfOneFourInteractionScore>
-0.986948 

> <ConfScore>
-0.0079383 

> <ConfScorePBest>
0.00431295 

> <ConfTolerance>
0.408173 

> <HETNAM>
     OWQ A 303  OWQ                                                       

> <pdb_OW>
Q_303 -16.5129 3.80749 7.62812 0.15963 1.39178 -0.28144 -3.20151 0 0 0 -1.30514 0 0 0 0 0 0 0 0 -8.31393

$$$$
6yky_lig_1.pdb
 OpenBabel04162415593D

 49 53  0  0  0  0  0  0  0  0999 V2000
   25.1046    1.8132  -65.3760 C   0  0  0  1  0  0  0  0  0  0  0  0
   26.9167    0.5034  -65.9326 C   0  0  0  1  0  0  0  0  0  0  0  0
   25.4176    1.8280  -64.0982 N   0  0  0  1  0  0  0  0  0  0  0  0
   26.6145    1.3084  -61.1274 C   0  0  0  1  0  0  0  0  0  0  0  0
   25.3276    0.9689  -60.7551 C   0  0  0  1  0  0  0  0  0  0  0  0
   26.9409    2.3960  -59.0161 C   0  0  0  1  0  0  0  0  0  0  0  0
   27.4216    2.0253  -60.2579 C   0  0  0  1  0  0  0  0  0  0  0  0
   25.6501    2.0557  -58.6425 C   0  0  0  1  0  0  0  0  0  0  0  0
   24.8457    1.3408  -59.5097 C   0  0  0  1  0  0  0  0  0  0  0  0
   23.2309    3.3668  -64.9344 C   0  0  0  1  0  0  0  0  0  0  0  0
   22.1663    2.5950  -64.1628 C   0  0  0  1  0  0  0  0  0  0  0  0
   21.0285    2.4155  -65.1762 C   0  0  0  1  0  0  0  0  0  0  0  0
   20.3085    3.8903  -67.1118 C   0  0  0  1  0  0  0  0  0  0  0  0
   25.8296    1.1705  -66.2748 N   0  0  0  1  0  0  0  0  0  0  0  0
   27.2965    0.4856  -64.5857 C   0  0  0  1  0  0  0  0  0  0  0  0
   26.4935    1.1849  -63.6614 C   0  0  0  1  0  0  0  0  0  0  0  0
   27.0808    1.0060  -62.4394 N   0  0  0  1  0  0  0  0  0  0  0  0
   28.3159   -0.0766  -63.9004 N   0  0  0  1  0  0  0  0  0  0  0  0
   28.2164    0.2092  -62.6490 N   0  0  0  1  0  0  0  0  0  0  0  0
   25.2887    2.4769  -57.4073 O   0  0  0  1  0  0  0  0  0  0  0  0
   24.0031    2.4782  -65.7853 N   0  0  0  1  0  0  0  0  0  0  0  0
   24.0599    1.9616  -56.8717 C   0  0  0  1  0  0  0  0  0  0  0  0
   21.1999    3.5693  -66.0772 N   0  0  0  1  0  0  0  0  0  0  0  0
   22.4165    4.3506  -65.7685 C   0  0  0  1  0  0  0  0  0  0  0  0
   20.5106    3.6175  -68.4521 C   0  0  0  1  0  0  0  0  0  0  0  0
   19.5385    3.9908  -69.3604 C   0  0  0  1  0  0  0  0  0  0  0  0
   18.4059    4.6089  -69.0121 N   0  0  0  1  0  0  0  0  0  0  0  0
   18.2249    4.8712  -67.7099 C   0  0  0  1  0  0  0  0  0  0  0  0
   19.1439    4.5293  -66.7332 C   0  0  0  1  0  0  0  0  0  0  0  0
   27.4790    0.0014  -66.6492 H   0  0  0  1  0  0  0  0  0  0  0  0
   24.7207    0.4345  -61.4091 H   0  0  0  1  0  0  0  0  0  0  0  0
   27.5478    2.9304  -58.3621 H   0  0  0  1  0  0  0  0  0  0  0  0
   28.3886    2.2840  -60.5397 H   0  0  0  1  0  0  0  0  0  0  0  0
   23.8786    1.0819  -59.2279 H   0  0  0  1  0  0  0  0  0  0  0  0
   23.8887    3.8833  -64.2670 H   0  0  0  1  0  0  0  0  0  0  0  0
   22.5426    1.6462  -63.8419 H   0  0  0  1  0  0  0  0  0  0  0  0
   21.8336    3.1532  -63.3128 H   0  0  0  1  0  0  0  0  0  0  0  0
   20.0746    2.4445  -64.6920 H   0  0  0  1  0  0  0  0  0  0  0  0
   21.1305    1.4933  -65.7092 H   0  0  0  1  0  0  0  0  0  0  0  0
   23.7072    2.3542  -66.7112 H   0  0  0  1  0  0  0  0  0  0  0  0
   23.4196    1.6593  -57.6739 H   0  0  0  1  0  0  0  0  0  0  0  0
   23.5752    2.7222  -56.2961 H   0  0  0  1  0  0  0  0  0  0  0  0
   24.2693    1.1192  -56.2460 H   0  0  0  1  0  0  0  0  0  0  0  0
   22.1800    5.2308  -65.2080 H   0  0  0  1  0  0  0  0  0  0  0  0
   22.9376    4.6252  -66.6618 H   0  0  0  1  0  0  0  0  0  0  0  0
   21.3781    3.1402  -68.7706 H   0  0  0  1  0  0  0  0  0  0  0  0
   19.6963    3.7802  -70.3666 H   0  0  0  1  0  0  0  0  0  0  0  0
   17.3513    5.3551  -67.4194 H   0  0  0  1  0  0  0  0  0  0  0  0
   18.9611    4.7493  -65.7333 H   0  0  0  1  0  0  0  0  0  0  0  0
  1  3  4  0  0  0  0
  1 14  4  0  0  0  0
  1 21  1  0  0  0  0
  2 14  4  0  0  0  0
  2 15  4  0  0  0  0
  2 30  1  0  0  0  0
  3 16  4  0  0  0  0
  4  5  4  0  0  0  0
  4  7  4  0  0  0  0
  4 17  1  0  0  0  0
  5  9  4  0  0  0  0
  5 31  1  0  0  0  0
  6  7  4  0  0  0  0
  6  8  4  0  0  0  0
  6 32  1  0  0  0  0
  7 33  1  0  0  0  0
  8  9  4  0  0  0  0
  8 20  1  0  0  0  0
  9 34  1  0  0  0  0
 10 11  1  0  0  0  0
 10 21  1  0  0  0  0
 10 24  1  0  0  0  0
 10 35  1  0  0  0  0
 11 12  1  0  0  0  0
 11 36  1  0  0  0  0
 11 37  1  0  0  0  0
 12 23  1  0  0  0  0
 12 38  1  0  0  0  0
 12 39  1  0  0  0  0
 13 23  1  0  0  0  0
 13 25  4  0  0  0  0
 13 29  4  0  0  0  0
 15 16  4  0  0  0  0
 15 18  4  0  0  0  0
 16 17  4  0  0  0  0
 17 19  4  0  0  0  0
 18 19  4  0  0  0  0
 20 22  1  0  0  0  0
 21 40  1  0  0  0  0
 22 41  1  0  0  0  0
 22 42  1  0  0  0  0
 22 43  1  0  0  0  0
 23 24  1  0  0  0  0
 24 44  1  0  0  0  0
 24 45  1  0  0  0  0
 25 26  4  0  0  0  0
 25 46  1  0  0  0  0
 26 27  4  0  0  0  0
 26 47  1  0  0  0  0
 27 28  4  0  0  0  0
 28 29  4  0  0  0  0
 28 48  1  0  0  0  0
 29 49  1  0  0  0  0
M  END
> <ConfClashScore>
0 

> <ConfOneFourInteractionScore>
-0.986948 

> <ConfScore>
-0.00690177 

> <ConfScorePBest>
0.00429963 

> <ConfTolerance>
0.532319 

> <HETNAM>
     OWQ A 303  OWQ                                                       

> <pdb_OW>
Q_303 -16.5129 3.80749 7.62812 0.15963 1.39178 -0.28144 -3.20151 0 0 0 -1.30514 0 0 0 0 0 0 0 0 -8.31393

$$$$
6yky_lig_1.pdb
 OpenBabel04162415593D

 49 53  0  0  0  0  0  0  0  0999 V2000
   25.1047    1.8135  -65.3759 C   0  0  0  1  0  0  0  0  0  0  0  0
   26.9167    0.5034  -65.9326 C   0  0  0  1  0  0  0  0  0  0  0  0
   25.4178    1.8283  -64.0981 N   0  0  0  1  0  0  0  0  0  0  0  0
   26.7670    1.4473  -61.1215 C   0  0  0  1  0  0  0  0  0  0  0  0
   27.6205    1.1587  -60.0734 C   0  0  0  1  0  0  0  0  0  0  0  0
   25.2134    2.4364  -59.5868 C   0  0  0  1  0  0  0  0  0  0  0  0
   25.5605    2.0846  -60.8776 C   0  0  0  1  0  0  0  0  0  0  0  0
   26.0694    2.1470  -58.5356 C   0  0  0  1  0  0  0  0  0  0  0  0
   27.2724    1.5115  -58.7790 C   0  0  0  1  0  0  0  0  0  0  0  0
   23.0561    3.1168  -64.8795 C   0  0  0  1  0  0  0  0  0  0  0  0
   22.5023    2.1063  -63.8505 C   0  0  0  1  0  0  0  0  0  0  0  0
   21.0290    2.3839  -63.6891 C   0  0  0  1  0  0  0  0  0  0  0  0
   19.4905    3.7201  -65.2569 C   0  0  0  1  0  0  0  0  0  0  0  0
   25.8297    1.1707  -66.2747 N   0  0  0  1  0  0  0  0  0  0  0  0
   27.2965    0.4858  -64.5857 C   0  0  0  1  0  0  0  0  0  0  0  0
   26.4937    1.1852  -63.6614 C   0  0  0  1  0  0  0  0  0  0  0  0
   27.0809    1.0061  -62.4395 N   0  0  0  1  0  0  0  0  0  0  0  0
   28.3159   -0.0766  -63.9004 N   0  0  0  1  0  0  0  0  0  0  0  0
   28.2164    0.2093  -62.6490 N   0  0  0  1  0  0  0  0  0  0  0  0
   25.6617    2.5189  -57.2758 O   0  0  0  1  0  0  0  0  0  0  0  0
   24.0033    2.4787  -65.7851 N   0  0  0  1  0  0  0  0  0  0  0  0
   26.6234    2.1936  -56.2600 C   0  0  0  1  0  0  0  0  0  0  0  0
   20.7541    3.2715  -64.9227 N   0  0  0  1  0  0  0  0  0  0  0  0
   21.8079    3.5593  -65.6173 C   0  0  0  1  0  0  0  0  0  0  0  0
   18.6874    2.9909  -66.1141 C   0  0  0  1  0  0  0  0  0  0  0  0
   17.4290    3.4742  -66.4184 C   0  0  0  1  0  0  0  0  0  0  0  0
   16.9429    4.6185  -65.9280 N   0  0  0  1  0  0  0  0  0  0  0  0
   17.7339    5.3175  -65.1016 C   0  0  0  1  0  0  0  0  0  0  0  0
   19.0050    4.9058  -64.7409 C   0  0  0  1  0  0  0  0  0  0  0  0
   27.4789    0.0014  -66.6492 H   0  0  0  1  0  0  0  0  0  0  0  0
   28.5240    0.6768  -60.2561 H   0  0  0  1  0  0  0  0  0  0  0  0
   24.3100    2.9181  -59.4042 H   0  0  0  1  0  0  0  0  0  0  0  0
   24.9164    2.2982  -61.6657 H   0  0  0  1  0  0  0  0  0  0  0  0
   27.9165    1.2978  -57.9908 H   0  0  0  1  0  0  0  0  0  0  0  0
   23.5294    3.9434  -64.3920 H   0  0  0  1  0  0  0  0  0  0  0  0
   22.6488    1.1072  -64.2046 H   0  0  0  1  0  0  0  0  0  0  0  0
   23.0019    2.2295  -62.9124 H   0  0  0  1  0  0  0  0  0  0  0  0
   20.4545    1.4818  -63.7195 H   0  0  0  1  0  0  0  0  0  0  0  0
   20.8260    2.9062  -62.7775 H   0  0  0  1  0  0  0  0  0  0  0  0
   23.8305    2.5358  -66.7481 H   0  0  0  1  0  0  0  0  0  0  0  0
   26.6785    1.1310  -56.1475 H   0  0  0  1  0  0  0  0  0  0  0  0
   26.3251    2.6354  -55.3323 H   0  0  0  1  0  0  0  0  0  0  0  0
   27.5832    2.5723  -56.5436 H   0  0  0  1  0  0  0  0  0  0  0  0
   21.8479    4.6166  -65.7775 H   0  0  0  1  0  0  0  0  0  0  0  0
   21.7578    3.0568  -66.5607 H   0  0  0  1  0  0  0  0  0  0  0  0
   19.0241    2.0955  -66.5222 H   0  0  0  1  0  0  0  0  0  0  0  0
   16.8296    2.9191  -67.0620 H   0  0  0  1  0  0  0  0  0  0  0  0
   17.3749    6.2127  -64.7126 H   0  0  0  1  0  0  0  0  0  0  0  0
   19.5837    5.4783  -64.0935 H   0  0  0  1  0  0  0  0  0  0  0  0
  1  3  4  0  0  0  0
  1 14  4  0  0  0  0
  1 21  1  0  0  0  0
  2 14  4  0  0  0  0
  2 15  4  0  0  0  0
  2 30  1  0  0  0  0
  3 16  4  0  0  0  0
  4  5  4  0  0  0  0
  4  7  4  0  0  0  0
  4 17  1  0  0  0  0
  5  9  4  0  0  0  0
  5 31  1  0  0  0  0
  6  7  4  0  0  0  0
  6  8  4  0  0  0  0
  6 32  1  0  0  0  0
  7 33  1  0  0  0  0
  8  9  4  0  0  0  0
  8 20  1  0  0  0  0
  9 34  1  0  0  0  0
 10 11  1  0  0  0  0
 10 21  1  0  0  0  0
 10 24  1  0  0  0  0
 10 35  1  0  0  0  0
 11 12  1  0  0  0  0
 11 36  1  0  0  0  0
 11 37  1  0  0  0  0
 12 23  1  0  0  0  0
 12 38  1  0  0  0  0
 12 39  1  0  0  0  0
 13 23  1  0  0  0  0
 13 25  4  0  0  0  0
 13 29  4  0  0  0  0
 15 16  4  0  0  0  0
 15 18  4  0  0  0  0
 16 17  4  0  0  0  0
 17 19  4  0  0  0  0
 18 19  4  0  0  0  0
 20 22  1  0  0  0  0
 21 40  1  0  0  0  0
 22 41  1  0  0  0  0
 22 42  1  0  0  0  0
 22 43  1  0  0  0  0
 23 24  1  0  0  0  0
 24 44  1  0  0  0  0
 24 45  1  0  0  0  0
 25 26  4  0  0  0  0
 25 46  1  0  0  0  0
 26 27  4  0  0  0  0
 26 47  1  0  0  0  0
 27 28  4  0  0  0  0
 28 29  4  0  0  0  0
 28 48  1  0  0  0  0
 29 49  1  0  0  0  0
M  END
> <ConfClashScore>
0 

> <ConfOneFourInteractionScore>
-0.987833 

> <ConfScore>
-0.00689602 

> <ConfScorePBest>
0.0042863 

> <ConfTolerance>
0.426963 

> <HETNAM>
     OWQ A 303  OWQ                                                       

> <pdb_OW>
Q_303 -16.5129 3.80749 7.62812 0.15963 1.39178 -0.28144 -3.20151 0 0 0 -1.30514 0 0 0 0 0 0 0 0 -8.31393

$$$$
6yky_lig_1.pdb
 OpenBabel04162415593D

 49 53  0  0  0  0  0  0  0  0999 V2000
   25.1047    1.8135  -65.3760 C   0  0  0  1  0  0  0  0  0  0  0  0
   26.9167    0.5034  -65.9326 C   0  0  0  1  0  0  0  0  0  0  0  0
   25.4177    1.8282  -64.0982 N   0  0  0  1  0  0  0  0  0  0  0  0
   26.7669    1.4471  -61.1215 C   0  0  0  1  0  0  0  0  0  0  0  0
   27.0553    0.6425  -60.0354 C   0  0  0  1  0  0  0  0  0  0  0  0
   25.7052    3.0314  -59.6688 C   0  0  0  1  0  0  0  0  0  0  0  0
   26.0884    2.6420  -60.9383 C   0  0  0  1  0  0  0  0  0  0  0  0
   25.9943    2.2244  -58.5793 C   0  0  0  1  0  0  0  0  0  0  0  0
   26.6708    1.0331  -58.7622 C   0  0  0  1  0  0  0  0  0  0  0  0
   23.2072    3.3189  -64.8246 C   0  0  0  1  0  0  0  0  0  0  0  0
   21.7534    3.3953  -65.2654 C   0  0  0  1  0  0  0  0  0  0  0  0
   21.2327    4.6789  -64.6155 C   0  0  0  1  0  0  0  0  0  0  0  0
   22.4417    6.8380  -64.0526 C   0  0  0  1  0  0  0  0  0  0  0  0
   25.8296    1.1707  -66.2748 N   0  0  0  1  0  0  0  0  0  0  0  0
   27.2964    0.4857  -64.5857 C   0  0  0  1  0  0  0  0  0  0  0  0
   26.4936    1.1851  -63.6614 C   0  0  0  1  0  0  0  0  0  0  0  0
   27.0809    1.0060  -62.4395 N   0  0  0  1  0  0  0  0  0  0  0  0
   28.3159   -0.0766  -63.9004 N   0  0  0  1  0  0  0  0  0  0  0  0
   28.2164    0.2092  -62.6490 N   0  0  0  1  0  0  0  0  0  0  0  0
   25.5533    2.7196  -57.3549 O   0  0  0  1  0  0  0  0  0  0  0  0
   23.9887    2.4965  -65.7385 N   0  0  0  1  0  0  0  0  0  0  0  0
   25.9322    2.0876  -56.0861 C   0  0  0  1  0  0  0  0  0  0  0  0
   22.4437    5.5050  -64.4894 N   0  0  0  1  0  0  0  0  0  0  0  0
   23.6560    4.7685  -64.8755 C   0  0  0  1  0  0  0  0  0  0  0  0
   22.6662    7.0351  -62.7027 C   0  0  0  1  0  0  0  0  0  0  0  0
   22.6800    8.3272  -62.2129 C   0  0  0  1  0  0  0  0  0  0  0  0
   22.4836    9.4053  -62.9780 N   0  0  0  1  0  0  0  0  0  0  0  0
   22.2628    9.1992  -64.2843 C   0  0  0  1  0  0  0  0  0  0  0  0
   22.2360    7.9404  -64.8588 C   0  0  0  1  0  0  0  0  0  0  0  0
   27.4789    0.0014  -66.6492 H   0  0  0  1  0  0  0  0  0  0  0  0
   27.5607   -0.2559  -60.1734 H   0  0  0  1  0  0  0  0  0  0  0  0
   25.1997    3.9297  -59.5308 H   0  0  0  1  0  0  0  0  0  0  0  0
   25.8680    3.2455  -61.7562 H   0  0  0  1  0  0  0  0  0  0  0  0
   26.8913    0.4296  -57.9444 H   0  0  0  1  0  0  0  0  0  0  0  0
   23.2879    2.9260  -63.8327 H   0  0  0  1  0  0  0  0  0  0  0  0
   21.2059    2.5445  -64.9172 H   0  0  0  1  0  0  0  0  0  0  0  0
   21.6825    3.4539  -66.3314 H   0  0  0  1  0  0  0  0  0  0  0  0
   20.5053    5.1566  -65.2381 H   0  0  0  1  0  0  0  0  0  0  0  0
   20.8043    4.4769  -63.6560 H   0  0  0  1  0  0  0  0  0  0  0  0
   23.6913    2.4325  -66.6701 H   0  0  0  1  0  0  0  0  0  0  0  0
   25.2783    2.4255  -55.3095 H   0  0  0  1  0  0  0  0  0  0  0  0
   26.9403    2.3520  -55.8434 H   0  0  0  1  0  0  0  0  0  0  0  0
   25.8545    1.0247  -56.1802 H   0  0  0  1  0  0  0  0  0  0  0  0
   24.4519    4.9487  -64.1834 H   0  0  0  1  0  0  0  0  0  0  0  0
   23.9720    5.0384  -65.8615 H   0  0  0  1  0  0  0  0  0  0  0  0
   22.8218    6.2262  -62.0678 H   0  0  0  1  0  0  0  0  0  0  0  0
   22.8519    8.4680  -61.1969 H   0  0  0  1  0  0  0  0  0  0  0  0
   22.1040   10.0255  -64.8955 H   0  0  0  1  0  0  0  0  0  0  0  0
   22.0641    7.8267  -65.8782 H   0  0  0  1  0  0  0  0  0  0  0  0
  1  3  4  0  0  0  0
  1 14  4  0  0  0  0
  1 21  1  0  0  0  0
  2 14  4  0  0  0  0
  2 15  4  0  0  0  0
  2 30  1  0  0  0  0
  3 16  4  0  0  0  0
  4  5  4  0  0  0  0
  4  7  4  0  0  0  0
  4 17  1  0  0  0  0
  5  9  4  0  0  0  0
  5 31  1  0  0  0  0
  6  7  4  0  0  0  0
  6  8  4  0  0  0  0
  6 32  1  0  0  0  0
  7 33  1  0  0  0  0
  8  9  4  0  0  0  0
  8 20  1  0  0  0  0
  9 34  1  0  0  0  0
 10 11  1  0  0  0  0
 10 21  1  0  0  0  0
 10 24  1  0  0  0  0
 10 35  1  0  0  0  0
 11 12  1  0  0  0  0
 11 36  1  0  0  0  0
 11 37  1  0  0  0  0
 12 23  1  0  0  0  0
 12 38  1  0  0  0  0
 12 39  1  0  0  0  0
 13 23  1  0  0  0  0
 13 25  4  0  0  0  0
 13 29  4  0  0  0  0
 15 16  4  0  0  0  0
 15 18  4  0  0  0  0
 16 17  4  0  0  0  0
 17 19  4  0  0  0  0
 18 19  4  0  0  0  0
 20 22  1  0  0  0  0
 21 40  1  0  0  0  0
 22 41  1  0  0  0  0
 22 42  1  0  0  0  0
 22 43  1  0  0  0  0
 23 24  1  0  0  0  0
 24 44  1  0  0  0  0
 24 45  1  0  0  0  0
 25 26  4  0  0  0  0
 25 46  1  0  0  0  0
 26 27  4  0  0  0  0
 26 47  1  0  0  0  0
 27 28  4  0  0  0  0
 28 29  4  0  0  0  0
 28 48  1  0  0  0  0
 29 49  1  0  0  0  0
M  END
> <ConfClashScore>
0 

> <ConfOneFourInteractionScore>
-0.986948 

> <ConfScore>
-0.0067316 

> <ConfScorePBest>
0.00427297 

> <ConfTolerance>
0.404724 

> <HETNAM>
     OWQ A 303  OWQ                                                       

> <pdb_OW>
Q_303 -16.5129 3.80749 7.62812 0.15963 1.39178 -0.28144 -3.20151 0 0 0 -1.30514 0 0 0 0 0 0 0 0 -8.31393

$$$$
6yky_lig_1.pdb
 OpenBabel04162415593D

 49 53  0  0  0  0  0  0  0  0999 V2000
   25.1046    1.8132  -65.3759 C   0  0  0  1  0  0  0  0  0  0  0  0
   26.9167    0.5034  -65.9326 C   0  0  0  1  0  0  0  0  0  0  0  0
   25.4176    1.8281  -64.0982 N   0  0  0  1  0  0  0  0  0  0  0  0
   26.7284    1.4697  -61.1390 C   0  0  0  1  0  0  0  0  0  0  0  0
   26.8212    0.6202  -60.0528 C   0  0  0  1  0  0  0  0  0  0  0  0
   25.7809    3.1658  -59.7345 C   0  0  0  1  0  0  0  0  0  0  0  0
   26.2050    2.7434  -60.9803 C   0  0  0  1  0  0  0  0  0  0  0  0
   25.8740    2.3139  -58.6449 C   0  0  0  1  0  0  0  0  0  0  0  0
   26.3959    1.0439  -58.8034 C   0  0  0  1  0  0  0  0  0  0  0  0
   23.3750    2.4061  -67.0520 C   0  0  0  1  0  0  0  0  0  0  0  0
   22.4113    3.5379  -67.2562 C   0  0  0  1  0  0  0  0  0  0  0  0
   21.1506    3.0141  -66.5132 C   0  0  0  1  0  0  0  0  0  0  0  0
   20.1814    0.7112  -66.5060 C   0  0  0  1  0  0  0  0  0  0  0  0
   25.8296    1.1706  -66.2747 N   0  0  0  1  0  0  0  0  0  0  0  0
   27.2965    0.4857  -64.5857 C   0  0  0  1  0  0  0  0  0  0  0  0
   26.4935    1.1850  -63.6614 C   0  0  0  1  0  0  0  0  0  0  0  0
   27.0808    1.0060  -62.4395 N   0  0  0  1  0  0  0  0  0  0  0  0
   28.3159   -0.0766  -63.9004 N   0  0  0  1  0  0  0  0  0  0  0  0
   28.2164    0.2092  -62.6490 N   0  0  0  1  0  0  0  0  0  0  0  0
   25.4885    2.6128  -57.3851 O   0  0  0  1  0  0  0  0  0  0  0  0
   23.9887    2.4963  -65.7385 N   0  0  0  1  0  0  0  0  0  0  0  0
   24.7698    3.8427  -57.1331 C   0  0  0  1  0  0  0  0  0  0  0  0
   21.2555    1.5930  -66.7186 N   0  0  0  1  0  0  0  0  0  0  0  0
   22.5627    1.1472  -67.1635 C   0  0  0  1  0  0  0  0  0  0  0  0
   20.3015   -0.6322  -66.8105 C   0  0  0  1  0  0  0  0  0  0  0  0
   19.2224   -1.4645  -66.5821 C   0  0  0  1  0  0  0  0  0  0  0  0
   18.0585   -1.0384  -66.0820 N   0  0  0  1  0  0  0  0  0  0  0  0
   17.9545    0.2671  -65.7956 C   0  0  0  1  0  0  0  0  0  0  0  0
   18.9856    1.1698  -65.9892 C   0  0  0  1  0  0  0  0  0  0  0  0
   27.4790    0.0013  -66.6492 H   0  0  0  1  0  0  0  0  0  0  0  0
   27.2102   -0.3369  -60.1727 H   0  0  0  1  0  0  0  0  0  0  0  0
   25.3920    4.1229  -59.6145 H   0  0  0  1  0  0  0  0  0  0  0  0
   26.1315    3.3811  -61.7985 H   0  0  0  1  0  0  0  0  0  0  0  0
   26.4694    0.4062  -57.9852 H   0  0  0  1  0  0  0  0  0  0  0  0
   24.1361    2.4253  -67.8039 H   0  0  0  1  0  0  0  0  0  0  0  0
   22.2130    3.6988  -68.2954 H   0  0  0  1  0  0  0  0  0  0  0  0
   22.7745    4.4436  -66.8175 H   0  0  0  1  0  0  0  0  0  0  0  0
   21.1818    3.2603  -65.4724 H   0  0  0  1  0  0  0  0  0  0  0  0
   20.2533    3.4046  -66.9459 H   0  0  0  1  0  0  0  0  0  0  0  0
   23.5725    3.0851  -65.0747 H   0  0  0  1  0  0  0  0  0  0  0  0
   25.4381    4.5684  -56.7190 H   0  0  0  1  0  0  0  0  0  0  0  0
   23.9744    3.6554  -56.4423 H   0  0  0  1  0  0  0  0  0  0  0  0
   24.3652    4.2137  -58.0516 H   0  0  0  1  0  0  0  0  0  0  0  0
   22.5304    0.7934  -68.1727 H   0  0  0  1  0  0  0  0  0  0  0  0
   22.9485    0.3779  -66.5275 H   0  0  0  1  0  0  0  0  0  0  0  0
   21.1875   -1.0091  -67.2038 H   0  0  0  1  0  0  0  0  0  0  0  0
   19.3209   -2.4742  -66.8111 H   0  0  0  1  0  0  0  0  0  0  0  0
   17.0552    0.6187  -65.4091 H   0  0  0  1  0  0  0  0  0  0  0  0
   18.8622    2.1744  -65.7499 H   0  0  0  1  0  0  0  0  0  0  0  0
  1  3  4  0  0  0  0
  1 14  4  0  0  0  0
  1 21  1  0  0  0  0
  2 14  4  0  0  0  0
  2 15  4  0  0  0  0
  2 30  1  0  0  0  0
  3 16  4  0  0  0  0
  4  5  4  0  0  0  0
  4  7  4  0  0  0  0
  4 17  1  0  0  0  0
  5  9  4  0  0  0  0
  5 31  1  0  0  0  0
  6  7  4  0  0  0  0
  6  8  4  0  0  0  0
  6 32  1  0  0  0  0
  7 33  1  0  0  0  0
  8  9  4  0  0  0  0
  8 20  1  0  0  0  0
  9 34  1  0  0  0  0
 10 11  1  0  0  0  0
 10 21  1  0  0  0  0
 10 24  1  0  0  0  0
 10 35  1  0  0  0  0
 11 12  1  0  0  0  0
 11 36  1  0  0  0  0
 11 37  1  0  0  0  0
 12 23  1  0  0  0  0
 12 38  1  0  0  0  0
 12 39  1  0  0  0  0
 13 23  1  0  0  0  0
 13 25  4  0  0  0  0
 13 29  4  0  0  0  0
 15 16  4  0  0  0  0
 15 18  4  0  0  0  0
 16 17  4  0  0  0  0
 17 19  4  0  0  0  0
 18 19  4  0  0  0  0
 20 22  1  0  0  0  0
 21 40  1  0  0  0  0
 22 41  1  0  0  0  0
 22 42  1  0  0  0  0
 22 43  1  0  0  0  0
 23 24  1  0  0  0  0
 24 44  1  0  0  0  0
 24 45  1  0  0  0  0
 25 26  4  0  0  0  0
 25 46  1  0  0  0  0
 26 27  4  0  0  0  0
 26 47  1  0  0  0  0
 27 28  4  0  0  0  0
 28 29  4  0  0  0  0
 28 48  1  0  0  0  0
 29 49  1  0  0  0  0
M  END
> <ConfClashScore>
0 

> <ConfOneFourInteractionScore>
-0.984874 

> <ConfScore>
-0.00623677 

> <ConfScorePBest>
0.00425964 

> <ConfTolerance>
0.682149 

> <HETNAM>
     OWQ A 303  OWQ                                                       

> <pdb_OW>
Q_303 -16.5129 3.80749 7.62812 0.15963 1.39178 -0.28144 -3.20151 0 0 0 -1.30514 0 0 0 0 0 0 0 0 -8.31393

$$$$
6yky_lig_1.pdb
 OpenBabel04162415593D

 49 53  0  0  0  0  0  0  0  0999 V2000
   25.1047    1.8134  -65.3759 C   0  0  0  1  0  0  0  0  0  0  0  0
   26.9167    0.5034  -65.9326 C   0  0  0  1  0  0  0  0  0  0  0  0
   25.4177    1.8282  -64.0982 N   0  0  0  1  0  0  0  0  0  0  0  0
   26.7286    1.4698  -61.1391 C   0  0  0  1  0  0  0  0  0  0  0  0
   25.9396    2.5955  -60.9960 C   0  0  0  1  0  0  0  0  0  0  0  0
   26.9853    1.3447  -58.7588 C   0  0  0  1  0  0  0  0  0  0  0  0
   27.2545    0.8449  -60.0190 C   0  0  0  1  0  0  0  0  0  0  0  0
   26.1939    2.4737  -58.6152 C   0  0  0  1  0  0  0  0  0  0  0  0
   25.6697    3.0965  -59.7320 C   0  0  0  1  0  0  0  0  0  0  0  0
   23.5420    2.6227  -67.1667 C   0  0  0  1  0  0  0  0  0  0  0  0
   23.9476    3.9957  -67.7706 C   0  0  0  1  0  0  0  0  0  0  0  0
   22.9010    4.3571  -68.8454 C   0  0  0  1  0  0  0  0  0  0  0  0
   20.5971    3.2940  -69.3157 C   0  0  0  1  0  0  0  0  0  0  0  0
   25.8297    1.1706  -66.2747 N   0  0  0  1  0  0  0  0  0  0  0  0
   27.2965    0.4857  -64.5857 C   0  0  0  1  0  0  0  0  0  0  0  0
   26.4937    1.1851  -63.6614 C   0  0  0  1  0  0  0  0  0  0  0  0
   27.0808    1.0061  -62.4395 N   0  0  0  1  0  0  0  0  0  0  0  0
   28.3159   -0.0766  -63.9004 N   0  0  0  1  0  0  0  0  0  0  0  0
   28.2164    0.2092  -62.6490 N   0  0  0  1  0  0  0  0  0  0  0  0
   25.8671    3.0555  -57.4368 O   0  0  0  1  0  0  0  0  0  0  0  0
   24.0074    2.4760  -65.7837 N   0  0  0  1  0  0  0  0  0  0  0  0
   26.5025    2.5451  -56.2544 C   0  0  0  1  0  0  0  0  0  0  0  0
   21.7636    3.4531  -68.5137 N   0  0  0  1  0  0  0  0  0  0  0  0
   22.0081    2.7469  -67.2455 C   0  0  0  1  0  0  0  0  0  0  0  0
   20.4064    4.2406  -70.3053 C   0  0  0  1  0  0  0  0  0  0  0  0
   19.2941    4.1370  -71.1188 C   0  0  0  1  0  0  0  0  0  0  0  0
   18.3837    3.1660  -70.9985 N   0  0  0  1  0  0  0  0  0  0  0  0
   18.5786    2.2576  -70.0322 C   0  0  0  1  0  0  0  0  0  0  0  0
   19.6657    2.2836  -69.1761 C   0  0  0  1  0  0  0  0  0  0  0  0
   27.4789    0.0014  -66.6491 H   0  0  0  1  0  0  0  0  0  0  0  0
   25.5484    3.0666  -61.8366 H   0  0  0  1  0  0  0  0  0  0  0  0
   27.3766    0.8735  -57.9182 H   0  0  0  1  0  0  0  0  0  0  0  0
   27.8514    0.0003  -60.1270 H   0  0  0  1  0  0  0  0  0  0  0  0
   25.0727    3.9413  -59.6243 H   0  0  0  1  0  0  0  0  0  0  0  0
   23.9060    1.8061  -67.7545 H   0  0  0  1  0  0  0  0  0  0  0  0
   24.9185    3.9266  -68.2151 H   0  0  0  1  0  0  0  0  0  0  0  0
   23.9577    4.7429  -67.0048 H   0  0  0  1  0  0  0  0  0  0  0  0
   23.2749    4.1615  -69.8287 H   0  0  0  1  0  0  0  0  0  0  0  0
   22.6113    5.3844  -68.7712 H   0  0  0  1  0  0  0  0  0  0  0  0
   23.4652    2.9029  -65.0878 H   0  0  0  1  0  0  0  0  0  0  0  0
   27.4858    2.2002  -56.4979 H   0  0  0  1  0  0  0  0  0  0  0  0
   25.9267    1.7327  -55.8627 H   0  0  0  1  0  0  0  0  0  0  0  0
   26.5687    3.3219  -55.5216 H   0  0  0  1  0  0  0  0  0  0  0  0
   21.6309    3.3118  -66.4187 H   0  0  0  1  0  0  0  0  0  0  0  0
   21.5500    1.7799  -67.2560 H   0  0  0  1  0  0  0  0  0  0  0  0
   21.0874    5.0159  -70.4350 H   0  0  0  1  0  0  0  0  0  0  0  0
   19.1586    4.8512  -71.8626 H   0  0  0  1  0  0  0  0  0  0  0  0
   17.8790    1.4963  -69.9203 H   0  0  0  1  0  0  0  0  0  0  0  0
   19.7794    1.5560  -68.4417 H   0  0  0  1  0  0  0  0  0  0  0  0
  1  3  4  0  0  0  0
  1 14  4  0  0  0  0
  1 21  1  0  0  0  0
  2 14  4  0  0  0  0
  2 15  4  0  0  0  0
  2 30  1  0  0  0  0
  3 16  4  0  0  0  0
  4  5  4  0  0  0  0
  4  7  4  0  0  0  0
  4 17  1  0  0  0  0
  5  9  4  0  0  0  0
  5 31  1  0  0  0  0
  6  7  4  0  0  0  0
  6  8  4  0  0  0  0
  6 32  1  0  0  0  0
  7 33  1  0  0  0  0
  8  9  4  0  0  0  0
  8 20  1  0  0  0  0
  9 34  1  0  0  0  0
 10 11  1  0  0  0  0
 10 21  1  0  0  0  0
 10 24  1  0  0  0  0
 10 35  1  0  0  0  0
 11 12  1  0  0  0  0
 11 36  1  0  0  0  0
 11 37  1  0  0  0  0
 12 23  1  0  0  0  0
 12 38  1  0  0  0  0
 12 39  1  0  0  0  0
 13 23  1  0  0  0  0
 13 25  4  0  0  0  0
 13 29  4  0  0  0  0
 15 16  4  0  0  0  0
 15 18  4  0  0  0  0
 16 17  4  0  0  0  0
 17 19  4  0  0  0  0
 18 19  4  0  0  0  0
 20 22  1  0  0  0  0
 21 40  1  0  0  0  0
 22 41  1  0  0  0  0
 22 42  1  0  0  0  0
 22 43  1  0  0  0  0
 23 24  1  0  0  0  0
 24 44  1  0  0  0  0
 24 45  1  0  0  0  0
 25 26  4  0  0  0  0
 25 46  1  0  0  0  0
 26 27  4  0  0  0  0
 26 47  1  0  0  0  0
 27 28  4  0  0  0  0
 28 29  4  0  0  0  0
 28 48  1  0  0  0  0
 29 49  1  0  0  0  0
M  END
> <ConfClashScore>
0 

> <ConfOneFourInteractionScore>
-0.986948 

> <ConfScore>
-0.00600267 

> <ConfScorePBest>
0.00424631 

> <ConfTolerance>
0.383776 

> <HETNAM>
     OWQ A 303  OWQ                                                       

> <pdb_OW>
Q_303 -16.5129 3.80749 7.62812 0.15963 1.39178 -0.28144 -3.20151 0 0 0 -1.30514 0 0 0 0 0 0 0 0 -8.31393

$$$$
6yky_lig_1.pdb
 OpenBabel04162415593D

 49 53  0  0  0  0  0  0  0  0999 V2000
   25.1048    1.8136  -65.3759 C   0  0  0  1  0  0  0  0  0  0  0  0
   26.9167    0.5034  -65.9326 C   0  0  0  1  0  0  0  0  0  0  0  0
   25.4178    1.8284  -64.0982 N   0  0  0  1  0  0  0  0  0  0  0  0
   26.7287    1.4700  -61.1390 C   0  0  0  1  0  0  0  0  0  0  0  0
   26.7158    0.5474  -60.1100 C   0  0  0  1  0  0  0  0  0  0  0  0
   25.9002    3.1516  -59.6448 C   0  0  0  1  0  0  0  0  0  0  0  0
   26.3178    2.7734  -60.9069 C   0  0  0  1  0  0  0  0  0  0  0  0
   25.8872    2.2265  -58.6125 C   0  0  0  1  0  0  0  0  0  0  0  0
   26.2970    0.9270  -58.8444 C   0  0  0  1  0  0  0  0  0  0  0  0
   23.0605    3.0748  -64.8432 C   0  0  0  1  0  0  0  0  0  0  0  0
   22.0070    2.0728  -64.4350 C   0  0  0  1  0  0  0  0  0  0  0  0
   20.8440    2.9425  -63.9616 C   0  0  0  1  0  0  0  0  0  0  0  0
   19.9985    5.1748  -64.8629 C   0  0  0  1  0  0  0  0  0  0  0  0
   25.8296    1.1707  -66.2748 N   0  0  0  1  0  0  0  0  0  0  0  0
   27.2965    0.4857  -64.5857 C   0  0  0  1  0  0  0  0  0  0  0  0
   26.4937    1.1853  -63.6614 C   0  0  0  1  0  0  0  0  0  0  0  0
   27.0810    1.0062  -62.4395 N   0  0  0  1  0  0  0  0  0  0  0  0
   28.3159   -0.0766  -63.9004 N   0  0  0  1  0  0  0  0  0  0  0  0
   28.2164    0.2093  -62.6490 N   0  0  0  1  0  0  0  0  0  0  0  0
   25.4542    2.7103  -57.4242 O   0  0  0  1  0  0  0  0  0  0  0  0
   23.9919    2.4857  -65.7894 N   0  0  0  1  0  0  0  0  0  0  0  0
   25.7060    1.9097  -56.2588 C   0  0  0  1  0  0  0  0  0  0  0  0
   20.9873    4.1573  -64.7753 N   0  0  0  1  0  0  0  0  0  0  0  0
   22.2760    4.1983  -65.4906 C   0  0  0  1  0  0  0  0  0  0  0  0
   19.9983    6.2356  -63.9760 C   0  0  0  1  0  0  0  0  0  0  0  0
   19.0211    7.2049  -64.0994 C   0  0  0  1  0  0  0  0  0  0  0  0
   18.0668    7.1714  -65.0345 N   0  0  0  1  0  0  0  0  0  0  0  0
   18.0764    6.1351  -65.8849 C   0  0  0  1  0  0  0  0  0  0  0  0
   19.0192    5.1232  -65.8356 C   0  0  0  1  0  0  0  0  0  0  0  0
   27.4789    0.0014  -66.6492 H   0  0  0  1  0  0  0  0  0  0  0  0
   27.0202   -0.4315  -60.2854 H   0  0  0  1  0  0  0  0  0  0  0  0
   25.5958    4.1306  -59.4695 H   0  0  0  1  0  0  0  0  0  0  0  0
   26.3237    3.4665  -61.6822 H   0  0  0  1  0  0  0  0  0  0  0  0
   26.2911    0.2339  -58.0691 H   0  0  0  1  0  0  0  0  0  0  0  0
   23.5969    3.4306  -63.9884 H   0  0  0  1  0  0  0  0  0  0  0  0
   21.7154    1.4658  -65.2664 H   0  0  0  1  0  0  0  0  0  0  0  0
   22.3623    1.4471  -63.6430 H   0  0  0  1  0  0  0  0  0  0  0  0
   19.9054    2.4637  -64.1475 H   0  0  0  1  0  0  0  0  0  0  0  0
   20.9307    3.1658  -62.9188 H   0  0  0  1  0  0  0  0  0  0  0  0
   23.8165    2.5732  -66.7496 H   0  0  0  1  0  0  0  0  0  0  0  0
   25.1010    2.2588  -55.4482 H   0  0  0  1  0  0  0  0  0  0  0  0
   26.7391    1.9855  -55.9907 H   0  0  0  1  0  0  0  0  0  0  0  0
   25.4655    0.8886  -56.4691 H   0  0  0  1  0  0  0  0  0  0  0  0
   22.7645    5.1397  -65.3491 H   0  0  0  1  0  0  0  0  0  0  0  0
   22.1409    4.0197  -66.5370 H   0  0  0  1  0  0  0  0  0  0  0  0
   20.7199    6.3027  -63.2302 H   0  0  0  1  0  0  0  0  0  0  0  0
   19.0287    8.0011  -63.4304 H   0  0  0  1  0  0  0  0  0  0  0  0
   17.3394    6.0893  -66.6173 H   0  0  0  1  0  0  0  0  0  0  0  0
   18.9910    4.3388  -66.5179 H   0  0  0  1  0  0  0  0  0  0  0  0
  1  3  4  0  0  0  0
  1 14  4  0  0  0  0
  1 21  1  0  0  0  0
  2 14  4  0  0  0  0
  2 15  4  0  0  0  0
  2 30  1  0  0  0  0
  3 16  4  0  0  0  0
  4  5  4  0  0  0  0
  4  7  4  0  0  0  0
  4 17  1  0  0  0  0
  5  9  4  0  0  0  0
  5 31  1  0  0  0  0
  6  7  4  0  0  0  0
  6  8  4  0  0  0  0
  6 32  1  0  0  0  0
  7 33  1  0  0  0  0
  8  9  4  0  0  0  0
  8 20  1  0  0  0  0
  9 34  1  0  0  0  0
 10 11  1  0  0  0  0
 10 21  1  0  0  0  0
 10 24  1  0  0  0  0
 10 35  1  0  0  0  0
 11 12  1  0  0  0  0
 11 36  1  0  0  0  0
 11 37  1  0  0  0  0
 12 23  1  0  0  0  0
 12 38  1  0  0  0  0
 12 39  1  0  0  0  0
 13 23  1  0  0  0  0
 13 25  4  0  0  0  0
 13 29  4  0  0  0  0
 15 16  4  0  0  0  0
 15 18  4  0  0  0  0
 16 17  4  0  0  0  0
 17 19  4  0  0  0  0
 18 19  4  0  0  0  0
 20 22  1  0  0  0  0
 21 40  1  0  0  0  0
 22 41  1  0  0  0  0
 22 42  1  0  0  0  0
 22 43  1  0  0  0  0
 23 24  1  0  0  0  0
 24 44  1  0  0  0  0
 24 45  1  0  0  0  0
 25 26  4  0  0  0  0
 25 46  1  0  0  0  0
 26 27  4  0  0  0  0
 26 47  1  0  0  0  0
 27 28  4  0  0  0  0
 28 29  4  0  0  0  0
 28 48  1  0  0  0  0
 29 49  1  0  0  0  0
M  END
> <ConfClashScore>
0 

> <ConfOneFourInteractionScore>
-0.986948 

> <ConfScore>
-0.00540139 

> <ConfScorePBest>
0.00423299 

> <ConfTolerance>
0.430634 

> <HETNAM>
     OWQ A 303  OWQ                                                       

> <pdb_OW>
Q_303 -16.5129 3.80749 7.62812 0.15963 1.39178 -0.28144 -3.20151 0 0 0 -1.30514 0 0 0 0 0 0 0 0 -8.31393

$$$$
6yky_lig_1.pdb
 OpenBabel04162415593D

 49 53  0  0  0  0  0  0  0  0999 V2000
   25.1048    1.8137  -65.3759 C   0  0  0  1  0  0  0  0  0  0  0  0
   26.9167    0.5034  -65.9325 C   0  0  0  1  0  0  0  0  0  0  0  0
   25.4179    1.8286  -64.0982 N   0  0  0  1  0  0  0  0  0  0  0  0
   26.7288    1.4701  -61.1390 C   0  0  0  1  0  0  0  0  0  0  0  0
   26.0686    2.6808  -61.0462 C   0  0  0  1  0  0  0  0  0  0  0  0
   26.8191    1.3333  -58.7474 C   0  0  0  1  0  0  0  0  0  0  0  0
   27.1070    0.7966  -59.9881 C   0  0  0  1  0  0  0  0  0  0  0  0
   26.1571    2.5476  -58.6540 C   0  0  0  1  0  0  0  0  0  0  0  0
   25.7801    3.2189  -59.8018 C   0  0  0  1  0  0  0  0  0  0  0  0
   23.4540    2.7014  -67.0750 C   0  0  0  1  0  0  0  0  0  0  0  0
   21.9945    3.2031  -67.0050 C   0  0  0  1  0  0  0  0  0  0  0  0
   21.2188    2.4962  -68.0879 C   0  0  0  1  0  0  0  0  0  0  0  0
   21.8698    0.3597  -69.3630 C   0  0  0  1  0  0  0  0  0  0  0  0
   25.8297    1.1708  -66.2748 N   0  0  0  1  0  0  0  0  0  0  0  0
   27.2964    0.4858  -64.5858 C   0  0  0  1  0  0  0  0  0  0  0  0
   26.4937    1.1853  -63.6614 C   0  0  0  1  0  0  0  0  0  0  0  0
   27.0810    1.0063  -62.4395 N   0  0  0  1  0  0  0  0  0  0  0  0
   28.3159   -0.0766  -63.9004 N   0  0  0  1  0  0  0  0  0  0  0  0
   28.2164    0.2093  -62.6490 N   0  0  0  1  0  0  0  0  0  0  0  0
   25.8268    3.1721  -57.4986 O   0  0  0  1  0  0  0  0  0  0  0  0
   24.0040    2.4876  -65.7336 N   0  0  0  1  0  0  0  0  0  0  0  0
   26.2127    2.5311  -56.2728 C   0  0  0  1  0  0  0  0  0  0  0  0
   22.1869    1.3488  -68.4499 N   0  0  0  1  0  0  0  0  0  0  0  0
   23.3205    1.3913  -67.8261 C   0  0  0  1  0  0  0  0  0  0  0  0
   21.9659    0.5978  -70.7216 C   0  0  0  1  0  0  0  0  0  0  0  0
   21.6431   -0.4197  -71.5991 C   0  0  0  1  0  0  0  0  0  0  0  0
   21.2369   -1.6300  -71.2035 N   0  0  0  1  0  0  0  0  0  0  0  0
   21.1442   -1.8456  -69.8836 C   0  0  0  1  0  0  0  0  0  0  0  0
   21.4510   -0.8851  -68.9356 C   0  0  0  1  0  0  0  0  0  0  0  0
   27.4789    0.0013  -66.6491 H   0  0  0  1  0  0  0  0  0  0  0  0
   25.7885    3.1880  -61.9098 H   0  0  0  1  0  0  0  0  0  0  0  0
   27.0994    0.8261  -57.8837 H   0  0  0  1  0  0  0  0  0  0  0  0
   27.6073   -0.1125  -60.0581 H   0  0  0  1  0  0  0  0  0  0  0  0
   25.2798    4.1281  -59.7319 H   0  0  0  1  0  0  0  0  0  0  0  0
   24.0735    3.3909  -67.6095 H   0  0  0  1  0  0  0  0  0  0  0  0
   21.5754    2.9745  -66.0473 H   0  0  0  1  0  0  0  0  0  0  0  0
   21.9638    4.2606  -67.1650 H   0  0  0  1  0  0  0  0  0  0  0  0
   21.0411    3.1381  -68.9253 H   0  0  0  1  0  0  0  0  0  0  0  0
   20.2863    2.1212  -67.7210 H   0  0  0  1  0  0  0  0  0  0  0  0
   23.4979    2.8927  -64.9986 H   0  0  0  1  0  0  0  0  0  0  0  0
   25.7856    1.5509  -56.2324 H   0  0  0  1  0  0  0  0  0  0  0  0
   25.8608    3.1077  -55.4430 H   0  0  0  1  0  0  0  0  0  0  0  0
   27.2793    2.4572  -56.2296 H   0  0  0  1  0  0  0  0  0  0  0  0
   24.1175    1.3072  -68.5349 H   0  0  0  1  0  0  0  0  0  0  0  0
   23.3727    0.5788  -67.1318 H   0  0  0  1  0  0  0  0  0  0  0  0
   22.2753    1.5252  -71.0764 H   0  0  0  1  0  0  0  0  0  0  0  0
   21.7201   -0.2342  -72.6195 H   0  0  0  1  0  0  0  0  0  0  0  0
   20.8262   -2.7801  -69.5561 H   0  0  0  1  0  0  0  0  0  0  0  0
   21.3677   -1.0966  -67.9208 H   0  0  0  1  0  0  0  0  0  0  0  0
  1  3  4  0  0  0  0
  1 14  4  0  0  0  0
  1 21  1  0  0  0  0
  2 14  4  0  0  0  0
  2 15  4  0  0  0  0
  2 30  1  0  0  0  0
  3 16  4  0  0  0  0
  4  5  4  0  0  0  0
  4  7  4  0  0  0  0
  4 17  1  0  0  0  0
  5  9  4  0  0  0  0
  5 31  1  0  0  0  0
  6  7  4  0  0  0  0
  6  8  4  0  0  0  0
  6 32  1  0  0  0  0
  7 33  1  0  0  0  0
  8  9  4  0  0  0  0
  8 20  1  0  0  0  0
  9 34  1  0  0  0  0
 10 11  1  0  0  0  0
 10 21  1  0  0  0  0
 10 24  1  0  0  0  0
 10 35  1  0  0  0  0
 11 12  1  0  0  0  0
 11 36  1  0  0  0  0
 11 37  1  0  0  0  0
 12 23  1  0  0  0  0
 12 38  1  0  0  0  0
 12 39  1  0  0  0  0
 13 23  1  0  0  0  0
 13 25  4  0  0  0  0
 13 29  4  0  0  0  0
 15 16  4  0  0  0  0
 15 18  4  0  0  0  0
 16 17  4  0  0  0  0
 17 19  4  0  0  0  0
 18 19  4  0  0  0  0
 20 22  1  0  0  0  0
 21 40  1  0  0  0  0
 22 41  1  0  0  0  0
 22 42  1  0  0  0  0
 22 43  1  0  0  0  0
 23 24  1  0  0  0  0
 24 44  1  0  0  0  0
 24 45  1  0  0  0  0
 25 26  4  0  0  0  0
 25 46  1  0  0  0  0
 26 27  4  0  0  0  0
 26 47  1  0  0  0  0
 27 28  4  0  0  0  0
 28 29  4  0  0  0  0
 28 48  1  0  0  0  0
 29 49  1  0  0  0  0
M  END
> <ConfClashScore>
0 

> <ConfOneFourInteractionScore>
-0.987833 

> <ConfScore>
-0.00525412 

> <ConfScorePBest>
0.00421966 

> <ConfTolerance>
0.440716 

> <HETNAM>
     OWQ A 303  OWQ                                                       

> <pdb_OW>
Q_303 -16.5129 3.80749 7.62812 0.15963 1.39178 -0.28144 -3.20151 0 0 0 -1.30514 0 0 0 0 0 0 0 0 -8.31393

$$$$
6yky_lig_1.pdb
 OpenBabel04162415593D

 49 53  0  0  0  0  0  0  0  0999 V2000
   25.1048    1.8135  -65.3760 C   0  0  0  1  0  0  0  0  0  0  0  0
   26.9167    0.5034  -65.9326 C   0  0  0  1  0  0  0  0  0  0  0  0
   25.4178    1.8283  -64.0983 N   0  0  0  1  0  0  0  0  0  0  0  0
   26.7669    1.4473  -61.1215 C   0  0  0  1  0  0  0  0  0  0  0  0
   27.3904    0.8698  -60.0317 C   0  0  0  1  0  0  0  0  0  0  0  0
   25.4013    2.7569  -59.6494 C   0  0  0  1  0  0  0  0  0  0  0  0
   25.7691    2.3903  -60.9303 C   0  0  0  1  0  0  0  0  0  0  0  0
   26.0265    2.1778  -58.5560 C   0  0  0  1  0  0  0  0  0  0  0  0
   27.0215    1.2376  -58.7471 C   0  0  0  1  0  0  0  0  0  0  0  0
   23.2272    3.3619  -64.9324 C   0  0  0  1  0  0  0  0  0  0  0  0
   22.2618    4.1647  -65.7541 C   0  0  0  1  0  0  0  0  0  0  0  0
   23.1748    5.3047  -66.2854 C   0  0  0  1  0  0  0  0  0  0  0  0
   24.9489    6.5941  -65.0727 C   0  0  0  1  0  0  0  0  0  0  0  0
   25.8297    1.1707  -66.2748 N   0  0  0  1  0  0  0  0  0  0  0  0
   27.2965    0.4857  -64.5857 C   0  0  0  1  0  0  0  0  0  0  0  0
   26.4936    1.1852  -63.6614 C   0  0  0  1  0  0  0  0  0  0  0  0
   27.0809    1.0062  -62.4396 N   0  0  0  1  0  0  0  0  0  0  0  0
   28.3159   -0.0766  -63.9004 N   0  0  0  1  0  0  0  0  0  0  0  0
   28.2164    0.2093  -62.6490 N   0  0  0  1  0  0  0  0  0  0  0  0
   25.6644    2.5313  -57.3075 O   0  0  0  1  0  0  0  0  0  0  0  0
   24.0034    2.4787  -65.7853 N   0  0  0  1  0  0  0  0  0  0  0  0
   24.5840    3.4903  -57.2319 C   0  0  0  1  0  0  0  0  0  0  0  0
   24.1119    5.4615  -65.2037 N   0  0  0  1  0  0  0  0  0  0  0  0
   24.1256    4.3601  -64.2591 C   0  0  0  1  0  0  0  0  0  0  0  0
   25.0143    7.5422  -66.0771 C   0  0  0  1  0  0  0  0  0  0  0  0
   25.8421    8.6354  -65.9062 C   0  0  0  1  0  0  0  0  0  0  0  0
   26.5914    8.8266  -64.8162 N   0  0  0  1  0  0  0  0  0  0  0  0
   26.5216    7.8974  -63.8523 C   0  0  0  1  0  0  0  0  0  0  0  0
   25.7171    6.7747  -63.9390 C   0  0  0  1  0  0  0  0  0  0  0  0
   27.4789    0.0014  -66.6492 H   0  0  0  1  0  0  0  0  0  0  0  0
   28.1362    0.1594  -60.1752 H   0  0  0  1  0  0  0  0  0  0  0  0
   24.6555    3.4673  -59.5058 H   0  0  0  1  0  0  0  0  0  0  0  0
   25.2972    2.8219  -61.7505 H   0  0  0  1  0  0  0  0  0  0  0  0
   27.4934    0.8060  -57.9269 H   0  0  0  1  0  0  0  0  0  0  0  0
   22.7019    2.7824  -64.2022 H   0  0  0  1  0  0  0  0  0  0  0  0
   21.4651    4.5509  -65.1532 H   0  0  0  1  0  0  0  0  0  0  0  0
   21.8554    3.5845  -66.5560 H   0  0  0  1  0  0  0  0  0  0  0  0
   23.6691    5.0180  -67.1901 H   0  0  0  1  0  0  0  0  0  0  0  0
   22.6186    6.2035  -66.4518 H   0  0  0  1  0  0  0  0  0  0  0  0
   23.7103    2.3585  -66.7127 H   0  0  0  1  0  0  0  0  0  0  0  0
   24.2879    3.6150  -56.2113 H   0  0  0  1  0  0  0  0  0  0  0  0
   23.7520    3.1356  -57.8035 H   0  0  0  1  0  0  0  0  0  0  0  0
   24.9130    4.4295  -57.6249 H   0  0  0  1  0  0  0  0  0  0  0  0
   25.1137    3.9698  -64.1312 H   0  0  0  1  0  0  0  0  0  0  0  0
   23.7334    4.6576  -63.3090 H   0  0  0  1  0  0  0  0  0  0  0  0
   24.4510    7.4346  -66.9446 H   0  0  0  1  0  0  0  0  0  0  0  0
   25.8842    9.3457  -66.6647 H   0  0  0  1  0  0  0  0  0  0  0  0
   27.1002    8.0266  -62.9978 H   0  0  0  1  0  0  0  0  0  0  0  0
   25.6913    6.0802  -63.1654 H   0  0  0  1  0  0  0  0  0  0  0  0
  1  3  4  0  0  0  0
  1 14  4  0  0  0  0
  1 21  1  0  0  0  0
  2 14  4  0  0  0  0
  2 15  4  0  0  0  0
  2 30  1  0  0  0  0
  3 16  4  0  0  0  0
  4  5  4  0  0  0  0
  4  7  4  0  0  0  0
  4 17  1  0  0  0  0
  5  9  4  0  0  0  0
  5 31  1  0  0  0  0
  6  7  4  0  0  0  0
  6  8  4  0  0  0  0
  6 32  1  0  0  0  0
  7 33  1  0  0  0  0
  8  9  4  0  0  0  0
  8 20  1  0  0  0  0
  9 34  1  0  0  0  0
 10 11  1  0  0  0  0
 10 21  1  0  0  0  0
 10 24  1  0  0  0  0
 10 35  1  0  0  0  0
 11 12  1  0  0  0  0
 11 36  1  0  0  0  0
 11 37  1  0  0  0  0
 12 23  1  0  0  0  0
 12 38  1  0  0  0  0
 12 39  1  0  0  0  0
 13 23  1  0  0  0  0
 13 25  4  0  0  0  0
 13 29  4  0  0  0  0
 15 16  4  0  0  0  0
 15 18  4  0  0  0  0
 16 17  4  0  0  0  0
 17 19  4  0  0  0  0
 18 19  4  0  0  0  0
 20 22  1  0  0  0  0
 21 40  1  0  0  0  0
 22 41  1  0  0  0  0
 22 42  1  0  0  0  0
 22 43  1  0  0  0  0
 23 24  1  0  0  0  0
 24 44  1  0  0  0  0
 24 45  1  0  0  0  0
 25 26  4  0  0  0  0
 25 46  1  0  0  0  0
 26 27  4  0  0  0  0
 26 47  1  0  0  0  0
 27 28  4  0  0  0  0
 28 29  4  0  0  0  0
 28 48  1  0  0  0  0
 29 49  1  0  0  0  0
M  END
> <ConfClashScore>
0 

> <ConfOneFourInteractionScore>
-0.987833 

> <ConfScore>
-0.00516869 

> <ConfScorePBest>
0.00420633 

> <ConfTolerance>
0.454127 

> <HETNAM>
     OWQ A 303  OWQ                                                       

> <pdb_OW>
Q_303 -16.5129 3.80749 7.62812 0.15963 1.39178 -0.28144 -3.20151 0 0 0 -1.30514 0 0 0 0 0 0 0 0 -8.31393

$$$$
6yky_lig_1.pdb
 OpenBabel04162415593D

 49 53  0  0  0  0  0  0  0  0999 V2000
   25.1048    1.8136  -65.3760 C   0  0  0  1  0  0  0  0  0  0  0  0
   26.9167    0.5034  -65.9326 C   0  0  0  1  0  0  0  0  0  0  0  0
   25.4178    1.8285  -64.0982 N   0  0  0  1  0  0  0  0  0  0  0  0
   26.7670    1.4474  -61.1216 C   0  0  0  1  0  0  0  0  0  0  0  0
   27.5714    1.0809  -60.0591 C   0  0  0  1  0  0  0  0  0  0  0  0
   25.2511    2.5211  -59.6062 C   0  0  0  1  0  0  0  0  0  0  0  0
   25.6037    2.1663  -60.8945 C   0  0  0  1  0  0  0  0  0  0  0  0
   26.0578    2.1535  -58.5405 C   0  0  0  1  0  0  0  0  0  0  0  0
   27.2176    1.4368  -58.7670 C   0  0  0  1  0  0  0  0  0  0  0  0
   23.5177    2.6832  -67.1406 C   0  0  0  1  0  0  0  0  0  0  0  0
   22.1922    3.3860  -67.1152 C   0  0  0  1  0  0  0  0  0  0  0  0
   21.2187    2.2087  -66.8286 C   0  0  0  1  0  0  0  0  0  0  0  0
   21.2568   -0.0667  -67.7654 C   0  0  0  1  0  0  0  0  0  0  0  0
   25.8297    1.1708  -66.2747 N   0  0  0  1  0  0  0  0  0  0  0  0
   27.2965    0.4858  -64.5856 C   0  0  0  1  0  0  0  0  0  0  0  0
   26.4937    1.1852  -63.6613 C   0  0  0  1  0  0  0  0  0  0  0  0
   27.0809    1.0062  -62.4395 N   0  0  0  1  0  0  0  0  0  0  0  0
   28.3159   -0.0766  -63.9004 N   0  0  0  1  0  0  0  0  0  0  0  0
   28.2164    0.2092  -62.6490 N   0  0  0  1  0  0  0  0  0  0  0  0
   25.8135    2.4387  -57.2393 O   0  0  0  1  0  0  0  0  0  0  0  0
   24.0075    2.4763  -65.7838 N   0  0  0  1  0  0  0  0  0  0  0  0
   24.5244    2.9840  -56.9179 C   0  0  0  1  0  0  0  0  0  0  0  0
   21.8819    1.1108  -67.4821 N   0  0  0  1  0  0  0  0  0  0  0  0
   23.2718    1.3630  -67.8140 C   0  0  0  1  0  0  0  0  0  0  0  0
   19.9351   -0.2138  -67.3868 C   0  0  0  1  0  0  0  0  0  0  0  0
   19.2902   -1.4021  -67.6725 C   0  0  0  1  0  0  0  0  0  0  0  0
   19.8795   -2.4263  -68.2970 N   0  0  0  1  0  0  0  0  0  0  0  0
   21.1622   -2.2717  -68.6545 C   0  0  0  1  0  0  0  0  0  0  0  0
   21.8825   -1.1152  -68.4112 C   0  0  0  1  0  0  0  0  0  0  0  0
   27.4789    0.0014  -66.6492 H   0  0  0  1  0  0  0  0  0  0  0  0
   28.4421    0.5381  -60.2291 H   0  0  0  1  0  0  0  0  0  0  0  0
   24.3804    3.0639  -59.4362 H   0  0  0  1  0  0  0  0  0  0  0  0
   24.9964    2.4385  -61.6937 H   0  0  0  1  0  0  0  0  0  0  0  0
   27.8250    1.1645  -57.9679 H   0  0  0  1  0  0  0  0  0  0  0  0
   24.2317    3.2560  -67.6947 H   0  0  0  1  0  0  0  0  0  0  0  0
   22.1550    4.1209  -66.3383 H   0  0  0  1  0  0  0  0  0  0  0  0
   21.9780    3.8493  -68.0556 H   0  0  0  1  0  0  0  0  0  0  0  0
   21.1187    2.0333  -65.7778 H   0  0  0  1  0  0  0  0  0  0  0  0
   20.2535    2.3894  -67.2539 H   0  0  0  1  0  0  0  0  0  0  0  0
   23.4638    2.8739  -65.0718 H   0  0  0  1  0  0  0  0  0  0  0  0
   23.7592    2.3458  -57.3080 H   0  0  0  1  0  0  0  0  0  0  0  0
   24.4313    3.9579  -57.3509 H   0  0  0  1  0  0  0  0  0  0  0  0
   24.4222    3.0544  -55.8551 H   0  0  0  1  0  0  0  0  0  0  0  0
   23.9104    0.6004  -67.4195 H   0  0  0  1  0  0  0  0  0  0  0  0
   23.4122    1.4341  -68.8724 H   0  0  0  1  0  0  0  0  0  0  0  0
   19.4358    0.5554  -66.8963 H   0  0  0  1  0  0  0  0  0  0  0  0
   18.2955   -1.5047  -67.3870 H   0  0  0  1  0  0  0  0  0  0  0  0
   21.6394   -3.0590  -69.1382 H   0  0  0  1  0  0  0  0  0  0  0  0
   22.8759   -1.0370  -68.7090 H   0  0  0  1  0  0  0  0  0  0  0  0
  1  3  4  0  0  0  0
  1 14  4  0  0  0  0
  1 21  1  0  0  0  0
  2 14  4  0  0  0  0
  2 15  4  0  0  0  0
  2 30  1  0  0  0  0
  3 16  4  0  0  0  0
  4  5  4  0  0  0  0
  4  7  4  0  0  0  0
  4 17  1  0  0  0  0
  5  9  4  0  0  0  0
  5 31  1  0  0  0  0
  6  7  4  0  0  0  0
  6  8  4  0  0  0  0
  6 32  1  0  0  0  0
  7 33  1  0  0  0  0
  8  9  4  0  0  0  0
  8 20  1  0  0  0  0
  9 34  1  0  0  0  0
 10 11  1  0  0  0  0
 10 21  1  0  0  0  0
 10 24  1  0  0  0  0
 10 35  1  0  0  0  0
 11 12  1  0  0  0  0
 11 36  1  0  0  0  0
 11 37  1  0  0  0  0
 12 23  1  0  0  0  0
 12 38  1  0  0  0  0
 12 39  1  0  0  0  0
 13 23  1  0  0  0  0
 13 25  4  0  0  0  0
 13 29  4  0  0  0  0
 15 16  4  0  0  0  0
 15 18  4  0  0  0  0
 16 17  4  0  0  0  0
 17 19  4  0  0  0  0
 18 19  4  0  0  0  0
 20 22  1  0  0  0  0
 21 40  1  0  0  0  0
 22 41  1  0  0  0  0
 22 42  1  0  0  0  0
 22 43  1  0  0  0  0
 23 24  1  0  0  0  0
 24 44  1  0  0  0  0
 24 45  1  0  0  0  0
 25 26  4  0  0  0  0
 25 46  1  0  0  0  0
 26 27  4  0  0  0  0
 26 47  1  0  0  0  0
 27 28  4  0  0  0  0
 28 29  4  0  0  0  0
 28 48  1  0  0  0  0
 29 49  1  0  0  0  0
M  END
> <ConfClashScore>
0 

> <ConfOneFourInteractionScore>
-0.987833 

> <ConfScore>
-0.00516869 

> <ConfScorePBest>
0.004193 

> <ConfTolerance>
0.591377 

> <HETNAM>
     OWQ A 303  OWQ                                                       

> <pdb_OW>
Q_303 -16.5129 3.80749 7.62812 0.15963 1.39178 -0.28144 -3.20151 0 0 0 -1.30514 0 0 0 0 0 0 0 0 -8.31393

$$$$
6yky_lig_1.pdb
 OpenBabel04162415593D

 49 53  0  0  0  0  0  0  0  0999 V2000
   25.1048    1.8135  -65.3760 C   0  0  0  1  0  0  0  0  0  0  0  0
   26.9167    0.5034  -65.9326 C   0  0  0  1  0  0  0  0  0  0  0  0
   25.4179    1.8283  -64.0982 N   0  0  0  1  0  0  0  0  0  0  0  0
   26.6376    1.3735  -61.1361 C   0  0  0  1  0  0  0  0  0  0  0  0
   26.8710    0.5335  -60.0635 C   0  0  0  1  0  0  0  0  0  0  0  0
   25.3858    2.8437  -59.7152 C   0  0  0  1  0  0  0  0  0  0  0  0
   25.8917    2.5288  -60.9624 C   0  0  0  1  0  0  0  0  0  0  0  0
   25.6198    2.0014  -58.6394 C   0  0  0  1  0  0  0  0  0  0  0  0
   26.3636    0.8494  -58.8129 C   0  0  0  1  0  0  0  0  0  0  0  0
   23.6896    2.4076  -67.2392 C   0  0  0  1  0  0  0  0  0  0  0  0
   24.0803    3.7131  -67.9669 C   0  0  0  1  0  0  0  0  0  0  0  0
   23.0045    4.0065  -68.9820 C   0  0  0  1  0  0  0  0  0  0  0  0
   20.6060    3.0453  -69.0915 C   0  0  0  1  0  0  0  0  0  0  0  0
   25.8296    1.1706  -66.2748 N   0  0  0  1  0  0  0  0  0  0  0  0
   27.2966    0.4857  -64.5857 C   0  0  0  1  0  0  0  0  0  0  0  0
   26.4936    1.1851  -63.6613 C   0  0  0  1  0  0  0  0  0  0  0  0
   27.0810    1.0061  -62.4395 N   0  0  0  1  0  0  0  0  0  0  0  0
   28.3159   -0.0766  -63.9004 N   0  0  0  1  0  0  0  0  0  0  0  0
   28.2164    0.2092  -62.6490 N   0  0  0  1  0  0  0  0  0  0  0  0
   25.1729    2.2019  -57.3770 O   0  0  0  1  0  0  0  0  0  0  0  0
   23.9671    2.5006  -65.7987 N   0  0  0  1  0  0  0  0  0  0  0  0
   24.4052    3.3910  -57.1337 C   0  0  0  1  0  0  0  0  0  0  0  0
   21.8744    3.0706  -68.5004 N   0  0  0  1  0  0  0  0  0  0  0  0
   22.1998    2.3114  -67.5035 C   0  0  0  1  0  0  0  0  0  0  0  0
   20.3330    3.8145  -70.2075 C   0  0  0  1  0  0  0  0  0  0  0  0
   19.0684    3.7563  -70.7616 C   0  0  0  1  0  0  0  0  0  0  0  0
   18.0862    2.9935  -70.2724 N   0  0  0  1  0  0  0  0  0  0  0  0
   18.3634    2.2562  -69.1876 C   0  0  0  1  0  0  0  0  0  0  0  0
   19.6026    2.2513  -68.5714 C   0  0  0  1  0  0  0  0  0  0  0  0
   27.4789    0.0013  -66.6491 H   0  0  0  1  0  0  0  0  0  0  0  0
   27.4271   -0.3354  -60.1949 H   0  0  0  1  0  0  0  0  0  0  0  0
   24.8297    3.7126  -59.5840 H   0  0  0  1  0  0  0  0  0  0  0  0
   25.7128    3.1587  -61.7704 H   0  0  0  1  0  0  0  0  0  0  0  0
   26.5425    0.2195  -58.0049 H   0  0  0  1  0  0  0  0  0  0  0  0
   24.2091    1.5669  -67.6494 H   0  0  0  1  0  0  0  0  0  0  0  0
   24.1479    4.5168  -67.2639 H   0  0  0  1  0  0  0  0  0  0  0  0
   25.0223    3.5889  -68.4590 H   0  0  0  1  0  0  0  0  0  0  0  0
   22.7041    5.0330  -68.9490 H   0  0  0  1  0  0  0  0  0  0  0  0
   23.3227    3.7591  -69.9732 H   0  0  0  1  0  0  0  0  0  0  0  0
   23.3967    3.0063  -65.1828 H   0  0  0  1  0  0  0  0  0  0  0  0
   24.8762    4.2243  -57.6118 H   0  0  0  1  0  0  0  0  0  0  0  0
   24.3488    3.5696  -56.0802 H   0  0  0  1  0  0  0  0  0  0  0  0
   23.4185    3.2650  -57.5279 H   0  0  0  1  0  0  0  0  0  0  0  0
   21.9462    1.2978  -67.7335 H   0  0  0  1  0  0  0  0  0  0  0  0
   21.6650    2.6245  -66.6313 H   0  0  0  1  0  0  0  0  0  0  0  0
   21.0656    4.4253  -70.6220 H   0  0  0  1  0  0  0  0  0  0  0  0
   18.8711    4.3358  -71.6024 H   0  0  0  1  0  0  0  0  0  0  0  0
   17.6107    1.6589  -68.7897 H   0  0  0  1  0  0  0  0  0  0  0  0
   19.7750    1.6609  -67.7327 H   0  0  0  1  0  0  0  0  0  0  0  0
  1  3  4  0  0  0  0
  1 14  4  0  0  0  0
  1 21  1  0  0  0  0
  2 14  4  0  0  0  0
  2 15  4  0  0  0  0
  2 30  1  0  0  0  0
  3 16  4  0  0  0  0
  4  5  4  0  0  0  0
  4  7  4  0  0  0  0
  4 17  1  0  0  0  0
  5  9  4  0  0  0  0
  5 31  1  0  0  0  0
  6  7  4  0  0  0  0
  6  8  4  0  0  0  0
  6 32  1  0  0  0  0
  7 33  1  0  0  0  0
  8  9  4  0  0  0  0
  8 20  1  0  0  0  0
  9 34  1  0  0  0  0
 10 11  1  0  0  0  0
 10 21  1  0  0  0  0
 10 24  1  0  0  0  0
 10 35  1  0  0  0  0
 11 12  1  0  0  0  0
 11 36  1  0  0  0  0
 11 37  1  0  0  0  0
 12 23  1  0  0  0  0
 12 38  1  0  0  0  0
 12 39  1  0  0  0  0
 13 23  1  0  0  0  0
 13 25  4  0  0  0  0
 13 29  4  0  0  0  0
 15 16  4  0  0  0  0
 15 18  4  0  0  0  0
 16 17  4  0  0  0  0
 17 19  4  0  0  0  0
 18 19  4  0  0  0  0
 20 22  1  0  0  0  0
 21 40  1  0  0  0  0
 22 41  1  0  0  0  0
 22 42  1  0  0  0  0
 22 43  1  0  0  0  0
 23 24  1  0  0  0  0
 24 44  1  0  0  0  0
 24 45  1  0  0  0  0
 25 26  4  0  0  0  0
 25 46  1  0  0  0  0
 26 27  4  0  0  0  0
 26 47  1  0  0  0  0
 27 28  4  0  0  0  0
 28 29  4  0  0  0  0
 28 48  1  0  0  0  0
 29 49  1  0  0  0  0
M  END
> <ConfClashScore>
0 

> <ConfOneFourInteractionScore>
-0.986948 

> <ConfScore>
-0.00498885 

> <ConfScorePBest>
0.00417967 

> <ConfTolerance>
0.359445 

> <HETNAM>
     OWQ A 303  OWQ                                                       

> <pdb_OW>
Q_303 -16.5129 3.80749 7.62812 0.15963 1.39178 -0.28144 -3.20151 0 0 0 -1.30514 0 0 0 0 0 0 0 0 -8.31393

$$$$
6yky_lig_1.pdb
 OpenBabel04162415593D

 49 53  0  0  0  0  0  0  0  0999 V2000
   25.1048    1.8135  -65.3759 C   0  0  0  1  0  0  0  0  0  0  0  0
   26.9167    0.5034  -65.9326 C   0  0  0  1  0  0  0  0  0  0  0  0
   25.4179    1.8283  -64.0982 N   0  0  0  1  0  0  0  0  0  0  0  0
   26.7286    1.4697  -61.1390 C   0  0  0  1  0  0  0  0  0  0  0  0
   27.5790    1.2498  -60.0721 C   0  0  0  1  0  0  0  0  0  0  0  0
   25.1104    2.4309  -59.6542 C   0  0  0  1  0  0  0  0  0  0  0  0
   25.4913    2.0588  -60.9295 C   0  0  0  1  0  0  0  0  0  0  0  0
   25.9632    2.2103  -58.5838 C   0  0  0  1  0  0  0  0  0  0  0  0
   27.1968    1.6231  -58.7929 C   0  0  0  1  0  0  0  0  0  0  0  0
   23.5684    2.3478  -67.1940 C   0  0  0  1  0  0  0  0  0  0  0  0
   23.8753    3.6254  -68.0233 C   0  0  0  1  0  0  0  0  0  0  0  0
   22.8537    3.6853  -69.1781 C   0  0  0  1  0  0  0  0  0  0  0  0
   20.7034    2.3406  -69.5060 C   0  0  0  1  0  0  0  0  0  0  0  0
   25.8297    1.1708  -66.2747 N   0  0  0  1  0  0  0  0  0  0  0  0
   27.2965    0.4857  -64.5857 C   0  0  0  1  0  0  0  0  0  0  0  0
   26.4936    1.1851  -63.6614 C   0  0  0  1  0  0  0  0  0  0  0  0
   27.0809    1.0061  -62.4395 N   0  0  0  1  0  0  0  0  0  0  0  0
   28.3159   -0.0766  -63.9004 N   0  0  0  1  0  0  0  0  0  0  0  0
   28.2164    0.2092  -62.6490 N   0  0  0  1  0  0  0  0  0  0  0  0
   25.6995    2.5249  -57.3006 O   0  0  0  1  0  0  0  0  0  0  0  0
   23.9765    2.4949  -65.7951 N   0  0  0  1  0  0  0  0  0  0  0  0
   24.5677    3.4045  -57.1062 C   0  0  0  1  0  0  0  0  0  0  0  0
   21.7891    2.7462  -68.7244 N   0  0  0  1  0  0  0  0  0  0  0  0
   22.0352    2.3035  -67.3422 C   0  0  0  1  0  0  0  0  0  0  0  0
   19.7226    1.5210  -68.9787 C   0  0  0  1  0  0  0  0  0  0  0  0
   18.6645    1.1471  -69.7851 C   0  0  0  1  0  0  0  0  0  0  0  0
   18.5377    1.5349  -71.0578 N   0  0  0  1  0  0  0  0  0  0  0  0
   19.4981    2.3258  -71.5574 C   0  0  0  1  0  0  0  0  0  0  0  0
   20.5893    2.7507  -70.8200 C   0  0  0  1  0  0  0  0  0  0  0  0
   27.4789    0.0015  -66.6492 H   0  0  0  1  0  0  0  0  0  0  0  0
   28.5055    0.8043  -60.2287 H   0  0  0  1  0  0  0  0  0  0  0  0
   24.1839    2.8764  -59.4975 H   0  0  0  1  0  0  0  0  0  0  0  0
   24.8498    2.2206  -61.7319 H   0  0  0  1  0  0  0  0  0  0  0  0
   27.8384    1.4612  -57.9906 H   0  0  0  1  0  0  0  0  0  0  0  0
   24.0340    1.4801  -67.6125 H   0  0  0  1  0  0  0  0  0  0  0  0
   24.8690    3.5753  -68.4169 H   0  0  0  1  0  0  0  0  0  0  0  0
   23.7793    4.4937  -67.4054 H   0  0  0  1  0  0  0  0  0  0  0  0
   23.2915    3.3567  -70.0975 H   0  0  0  1  0  0  0  0  0  0  0  0
   22.4676    4.6758  -69.3003 H   0  0  0  1  0  0  0  0  0  0  0  0
   23.4666    3.0581  -65.1761 H   0  0  0  1  0  0  0  0  0  0  0  0
   23.7144    2.8292  -56.8135 H   0  0  0  1  0  0  0  0  0  0  0  0
   24.3546    3.9186  -58.0201 H   0  0  0  1  0  0  0  0  0  0  0  0
   24.7970    4.1164  -56.3410 H   0  0  0  1  0  0  0  0  0  0  0  0
   21.5680    2.9656  -66.6436 H   0  0  0  1  0  0  0  0  0  0  0  0
   21.6688    1.3094  -67.1921 H   0  0  0  1  0  0  0  0  0  0  0  0
   19.7801    1.1921  -67.9937 H   0  0  0  1  0  0  0  0  0  0  0  0
   17.9293    0.5325  -69.3810 H   0  0  0  1  0  0  0  0  0  0  0  0
   19.4191    2.6350  -72.5471 H   0  0  0  1  0  0  0  0  0  0  0  0
   21.3100    3.3671  -71.2471 H   0  0  0  1  0  0  0  0  0  0  0  0
  1  3  4  0  0  0  0
  1 14  4  0  0  0  0
  1 21  1  0  0  0  0
  2 14  4  0  0  0  0
  2 15  4  0  0  0  0
  2 30  1  0  0  0  0
  3 16  4  0  0  0  0
  4  5  4  0  0  0  0
  4  7  4  0  0  0  0
  4 17  1  0  0  0  0
  5  9  4  0  0  0  0
  5 31  1  0  0  0  0
  6  7  4  0  0  0  0
  6  8  4  0  0  0  0
  6 32  1  0  0  0  0
  7 33  1  0  0  0  0
  8  9  4  0  0  0  0
  8 20  1  0  0  0  0
  9 34  1  0  0  0  0
 10 11  1  0  0  0  0
 10 21  1  0  0  0  0
 10 24  1  0  0  0  0
 10 35  1  0  0  0  0
 11 12  1  0  0  0  0
 11 36  1  0  0  0  0
 11 37  1  0  0  0  0
 12 23  1  0  0  0  0
 12 38  1  0  0  0  0
 12 39  1  0  0  0  0
 13 23  1  0  0  0  0
 13 25  4  0  0  0  0
 13 29  4  0  0  0  0
 15 16  4  0  0  0  0
 15 18  4  0  0  0  0
 16 17  4  0  0  0  0
 17 19  4  0  0  0  0
 18 19  4  0  0  0  0
 20 22  1  0  0  0  0
 21 40  1  0  0  0  0
 22 41  1  0  0  0  0
 22 42  1  0  0  0  0
 22 43  1  0  0  0  0
 23 24  1  0  0  0  0
 24 44  1  0  0  0  0
 24 45  1  0  0  0  0
 25 26  4  0  0  0  0
 25 46  1  0  0  0  0
 26 27  4  0  0  0  0
 26 47  1  0  0  0  0
 27 28  4  0  0  0  0
 28 29  4  0  0  0  0
 28 48  1  0  0  0  0
 29 49  1  0  0  0  0
M  END
> <ConfClashScore>
0 

> <ConfOneFourInteractionScore>
-0.986948 

> <ConfScore>
-0.00485713 

> <ConfScorePBest>
0.00416634 

> <ConfTolerance>
0.348445 

> <HETNAM>
     OWQ A 303  OWQ                                                       

> <pdb_OW>
Q_303 -16.5129 3.80749 7.62812 0.15963 1.39178 -0.28144 -3.20151 0 0 0 -1.30514 0 0 0 0 0 0 0 0 -8.31393

$$$$
6yky_lig_1.pdb
 OpenBabel04162415593D

 49 53  0  0  0  0  0  0  0  0999 V2000
   25.1048    1.8136  -65.3760 C   0  0  0  1  0  0  0  0  0  0  0  0
   26.9167    0.5034  -65.9326 C   0  0  0  1  0  0  0  0  0  0  0  0
   25.4178    1.8284  -64.0982 N   0  0  0  1  0  0  0  0  0  0  0  0
   26.7287    1.4700  -61.1390 C   0  0  0  1  0  0  0  0  0  0  0  0
   27.6709    1.4767  -60.1279 C   0  0  0  1  0  0  0  0  0  0  0  0
   25.0527    2.1934  -59.5851 C   0  0  0  1  0  0  0  0  0  0  0  0
   25.4170    1.8263  -60.8667 C   0  0  0  1  0  0  0  0  0  0  0  0
   25.9977    2.2001  -58.5708 C   0  0  0  1  0  0  0  0  0  0  0  0
   27.3054    1.8448  -58.8426 C   0  0  0  1  0  0  0  0  0  0  0  0
   23.7033    2.5157  -67.2751 C   0  0  0  1  0  0  0  0  0  0  0  0
   22.7531    3.6620  -67.5864 C   0  0  0  1  0  0  0  0  0  0  0  0
   22.1195    3.2336  -68.8979 C   0  0  0  1  0  0  0  0  0  0  0  0
   21.2221    0.9464  -69.5693 C   0  0  0  1  0  0  0  0  0  0  0  0
   25.8296    1.1707  -66.2747 N   0  0  0  1  0  0  0  0  0  0  0  0
   27.2965    0.4857  -64.5857 C   0  0  0  1  0  0  0  0  0  0  0  0
   26.4937    1.1852  -63.6614 C   0  0  0  1  0  0  0  0  0  0  0  0
   27.0810    1.0061  -62.4395 N   0  0  0  1  0  0  0  0  0  0  0  0
   28.3158   -0.0766  -63.9005 N   0  0  0  1  0  0  0  0  0  0  0  0
   28.2164    0.2092  -62.6490 N   0  0  0  1  0  0  0  0  0  0  0  0
   25.7585    2.5351  -57.2807 O   0  0  0  1  0  0  0  0  0  0  0  0
   24.0035    2.4664  -65.8550 N   0  0  0  1  0  0  0  0  0  0  0  0
   24.3903    2.7516  -56.9017 C   0  0  0  1  0  0  0  0  0  0  0  0
   22.0479    1.7708  -68.7697 N   0  0  0  1  0  0  0  0  0  0  0  0
   22.9367    1.2656  -67.7116 C   0  0  0  1  0  0  0  0  0  0  0  0
   19.9998    0.5044  -69.0980 C   0  0  0  1  0  0  0  0  0  0  0  0
   19.2230   -0.2962  -69.9137 C   0  0  0  1  0  0  0  0  0  0  0  0
   19.5927   -0.6720  -71.1418 N   0  0  0  1  0  0  0  0  0  0  0  0
   20.7820   -0.2398  -71.5843 C   0  0  0  1  0  0  0  0  0  0  0  0
   21.6212    0.5672  -70.8361 C   0  0  0  1  0  0  0  0  0  0  0  0
   27.4789    0.0014  -66.6491 H   0  0  0  1  0  0  0  0  0  0  0  0
   28.6541    1.2054  -60.3315 H   0  0  0  1  0  0  0  0  0  0  0  0
   24.0695    2.4646  -59.3815 H   0  0  0  1  0  0  0  0  0  0  0  0
   24.7072    1.8172  -61.6267 H   0  0  0  1  0  0  0  0  0  0  0  0
   28.0153    1.8538  -58.0826 H   0  0  0  1  0  0  0  0  0  0  0  0
   24.6133    2.6158  -67.8292 H   0  0  0  1  0  0  0  0  0  0  0  0
   22.0147    3.7683  -66.8193 H   0  0  0  1  0  0  0  0  0  0  0  0
   23.2858    4.5831  -67.6995 H   0  0  0  1  0  0  0  0  0  0  0  0
   21.1435    3.6576  -69.0097 H   0  0  0  1  0  0  0  0  0  0  0  0
   22.7295    3.5169  -69.7301 H   0  0  0  1  0  0  0  0  0  0  0  0
   23.4010    2.9126  -65.2240 H   0  0  0  1  0  0  0  0  0  0  0  0
   23.9994    3.5906  -57.4386 H   0  0  0  1  0  0  0  0  0  0  0  0
   24.3379    2.9452  -55.8507 H   0  0  0  1  0  0  0  0  0  0  0  0
   23.8141    1.8803  -57.1335 H   0  0  0  1  0  0  0  0  0  0  0  0
   23.6030    0.5204  -68.0933 H   0  0  0  1  0  0  0  0  0  0  0  0
   22.3727    0.8579  -66.8989 H   0  0  0  1  0  0  0  0  0  0  0  0
   19.6712    0.7694  -68.1475 H   0  0  0  1  0  0  0  0  0  0  0  0
   18.3037   -0.6227  -69.5535 H   0  0  0  1  0  0  0  0  0  0  0  0
   21.0891   -0.5249  -72.5363 H   0  0  0  1  0  0  0  0  0  0  0  0
   22.5348    0.8821  -71.2203 H   0  0  0  1  0  0  0  0  0  0  0  0
  1  3  4  0  0  0  0
  1 14  4  0  0  0  0
  1 21  1  0  0  0  0
  2 14  4  0  0  0  0
  2 15  4  0  0  0  0
  2 30  1  0  0  0  0
  3 16  4  0  0  0  0
  4  5  4  0  0  0  0
  4  7  4  0  0  0  0
  4 17  1  0  0  0  0
  5  9  4  0  0  0  0
  5 31  1  0  0  0  0
  6  7  4  0  0  0  0
  6  8  4  0  0  0  0
  6 32  1  0  0  0  0
  7 33  1  0  0  0  0
  8  9  4  0  0  0  0
  8 20  1  0  0  0  0
  9 34  1  0  0  0  0
 10 11  1  0  0  0  0
 10 21  1  0  0  0  0
 10 24  1  0  0  0  0
 10 35  1  0  0  0  0
 11 12  1  0  0  0  0
 11 36  1  0  0  0  0
 11 37  1  0  0  0  0
 12 23  1  0  0  0  0
 12 38  1  0  0  0  0
 12 39  1  0  0  0  0
 13 23  1  0  0  0  0
 13 25  4  0  0  0  0
 13 29  4  0  0  0  0
 15 16  4  0  0  0  0
 15 18  4  0  0  0  0
 16 17  4  0  0  0  0
 17 19  4  0  0  0  0
 18 19  4  0  0  0  0
 20 22  1  0  0  0  0
 21 40  1  0  0  0  0
 22 41  1  0  0  0  0
 22 42  1  0  0  0  0
 22 43  1  0  0  0  0
 23 24  1  0  0  0  0
 24 44  1  0  0  0  0
 24 45  1  0  0  0  0
 25 26  4  0  0  0  0
 25 46  1  0  0  0  0
 26 27  4  0  0  0  0
 26 47  1  0  0  0  0
 27 28  4  0  0  0  0
 28 29  4  0  0  0  0
 28 48  1  0  0  0  0
 29 49  1  0  0  0  0
M  END
> <ConfClashScore>
0 

> <ConfOneFourInteractionScore>
-0.986948 

> <ConfScore>
-0.00468412 

> <ConfScorePBest>
0.00415302 

> <ConfTolerance>
0.489742 

> <HETNAM>
     OWQ A 303  OWQ                                                       

> <pdb_OW>
Q_303 -16.5129 3.80749 7.62812 0.15963 1.39178 -0.28144 -3.20151 0 0 0 -1.30514 0 0 0 0 0 0 0 0 -8.31393

$$$$
6yky_lig_1.pdb
 OpenBabel04162415593D

 49 53  0  0  0  0  0  0  0  0999 V2000
   25.1048    1.8137  -65.3760 C   0  0  0  1  0  0  0  0  0  0  0  0
   26.9167    0.5034  -65.9326 C   0  0  0  1  0  0  0  0  0  0  0  0
   25.4179    1.8285  -64.0982 N   0  0  0  1  0  0  0  0  0  0  0  0
   26.7287    1.4701  -61.1391 C   0  0  0  1  0  0  0  0  0  0  0  0
   26.9385    0.6637  -60.0364 C   0  0  0  1  0  0  0  0  0  0  0  0
   25.6695    3.1066  -59.7436 C   0  0  0  1  0  0  0  0  0  0  0  0
   26.0909    2.6922  -60.9931 C   0  0  0  1  0  0  0  0  0  0  0  0
   25.8798    2.2979  -58.6376 C   0  0  0  1  0  0  0  0  0  0  0  0
   26.5157    1.0794  -58.7835 C   0  0  0  1  0  0  0  0  0  0  0  0
   23.4306    2.4824  -67.0795 C   0  0  0  1  0  0  0  0  0  0  0  0
   24.4292    3.0645  -68.1047 C   0  0  0  1  0  0  0  0  0  0  0  0
   23.6453    3.9231  -69.0650 C   0  0  0  1  0  0  0  0  0  0  0  0
   21.2641    4.9091  -68.7631 C   0  0  0  1  0  0  0  0  0  0  0  0
   25.8297    1.1707  -66.2748 N   0  0  0  1  0  0  0  0  0  0  0  0
   27.2965    0.4858  -64.5857 C   0  0  0  1  0  0  0  0  0  0  0  0
   26.4937    1.1852  -63.6614 C   0  0  0  1  0  0  0  0  0  0  0  0
   27.0809    1.0063  -62.4395 N   0  0  0  1  0  0  0  0  0  0  0  0
   28.3159   -0.0766  -63.9004 N   0  0  0  1  0  0  0  0  0  0  0  0
   28.2164    0.2092  -62.6490 N   0  0  0  1  0  0  0  0  0  0  0  0
   25.4198    2.8056  -57.4694 O   0  0  0  1  0  0  0  0  0  0  0  0
   23.9890    2.4968  -65.7386 N   0  0  0  1  0  0  0  0  0  0  0  0
   25.4056    1.9279  -56.3328 C   0  0  0  1  0  0  0  0  0  0  0  0
   22.3162    4.0948  -68.2974 N   0  0  0  1  0  0  0  0  0  0  0  0
   22.2504    3.4274  -67.1901 C   0  0  0  1  0  0  0  0  0  0  0  0
   20.2077    4.4218  -69.5102 C   0  0  0  1  0  0  0  0  0  0  0  0
   19.2210    5.2993  -69.9177 C   0  0  0  1  0  0  0  0  0  0  0  0
   19.2336    6.6043  -69.6296 N   0  0  0  1  0  0  0  0  0  0  0  0
   20.2659    7.0641  -68.9083 C   0  0  0  1  0  0  0  0  0  0  0  0
   21.2942    6.2555  -68.4564 C   0  0  0  1  0  0  0  0  0  0  0  0
   27.4789    0.0013  -66.6492 H   0  0  0  1  0  0  0  0  0  0  0  0
   27.4133   -0.2549  -60.1468 H   0  0  0  1  0  0  0  0  0  0  0  0
   25.1945    4.0252  -59.6333 H   0  0  0  1  0  0  0  0  0  0  0  0
   25.9295    3.2971  -61.8235 H   0  0  0  1  0  0  0  0  0  0  0  0
   26.6771    0.4744  -57.9530 H   0  0  0  1  0  0  0  0  0  0  0  0
   23.1502    1.4830  -67.3389 H   0  0  0  1  0  0  0  0  0  0  0  0
   24.9118    2.2705  -68.6353 H   0  0  0  1  0  0  0  0  0  0  0  0
   25.1647    3.6570  -67.6020 H   0  0  0  1  0  0  0  0  0  0  0  0
   24.1262    4.8643  -69.2314 H   0  0  0  1  0  0  0  0  0  0  0  0
   23.4959    3.4277  -70.0015 H   0  0  0  1  0  0  0  0  0  0  0  0
   23.5332    3.0312  -65.0552 H   0  0  0  1  0  0  0  0  0  0  0  0
   24.9373    2.4210  -55.5067 H   0  0  0  1  0  0  0  0  0  0  0  0
   26.4099    1.6685  -56.0703 H   0  0  0  1  0  0  0  0  0  0  0  0
   24.8589    1.0404  -56.5747 H   0  0  0  1  0  0  0  0  0  0  0  0
   21.3419    2.8623  -67.1712 H   0  0  0  1  0  0  0  0  0  0  0  0
   22.2644    4.1088  -66.3652 H   0  0  0  1  0  0  0  0  0  0  0  0
   20.1566    3.4137  -69.7607 H   0  0  0  1  0  0  0  0  0  0  0  0
   18.4282    4.9251  -70.4772 H   0  0  0  1  0  0  0  0  0  0  0  0
   20.2955    8.0776  -68.6772 H   0  0  0  1  0  0  0  0  0  0  0  0
   22.0747    6.6541  -67.8965 H   0  0  0  1  0  0  0  0  0  0  0  0
  1  3  4  0  0  0  0
  1 14  4  0  0  0  0
  1 21  1  0  0  0  0
  2 14  4  0  0  0  0
  2 15  4  0  0  0  0
  2 30  1  0  0  0  0
  3 16  4  0  0  0  0
  4  5  4  0  0  0  0
  4  7  4  0  0  0  0
  4 17  1  0  0  0  0
  5  9  4  0  0  0  0
  5 31  1  0  0  0  0
  6  7  4  0  0  0  0
  6  8  4  0  0  0  0
  6 32  1  0  0  0  0
  7 33  1  0  0  0  0
  8  9  4  0  0  0  0
  8 20  1  0  0  0  0
  9 34  1  0  0  0  0
 10 11  1  0  0  0  0
 10 21  1  0  0  0  0
 10 24  1  0  0  0  0
 10 35  1  0  0  0  0
 11 12  1  0  0  0  0
 11 36  1  0  0  0  0
 11 37  1  0  0  0  0
 12 23  1  0  0  0  0
 12 38  1  0  0  0  0
 12 39  1  0  0  0  0
 13 23  1  0  0  0  0
 13 25  4  0  0  0  0
 13 29  4  0  0  0  0
 15 16  4  0  0  0  0
 15 18  4  0  0  0  0
 16 17  4  0  0  0  0
 17 19  4  0  0  0  0
 18 19  4  0  0  0  0
 20 22  1  0  0  0  0
 21 40  1  0  0  0  0
 22 41  1  0  0  0  0
 22 42  1  0  0  0  0
 22 43  1  0  0  0  0
 23 24  1  0  0  0  0
 24 44  1  0  0  0  0
 24 45  1  0  0  0  0
 25 26  4  0  0  0  0
 25 46  1  0  0  0  0
 26 27  4  0  0  0  0
 26 47  1  0  0  0  0
 27 28  4  0  0  0  0
 28 29  4  0  0  0  0
 28 48  1  0  0  0  0
 29 49  1  0  0  0  0
M  END
> <ConfClashScore>
0 

> <ConfOneFourInteractionScore>
-0.987833 

> <ConfScore>
-0.00442514 

> <ConfScorePBest>
0.00413969 

> <ConfTolerance>
0.480282 

> <HETNAM>
     OWQ A 303  OWQ                                                       

> <pdb_OW>
Q_303 -16.5129 3.80749 7.62812 0.15963 1.39178 -0.28144 -3.20151 0 0 0 -1.30514 0 0 0 0 0 0 0 0 -8.31393

$$$$
6yky_lig_1.pdb
 OpenBabel04162415593D

 49 53  0  0  0  0  0  0  0  0999 V2000
   25.1048    1.8134  -65.3760 C   0  0  0  1  0  0  0  0  0  0  0  0
   26.9167    0.5034  -65.9326 C   0  0  0  1  0  0  0  0  0  0  0  0
   25.4178    1.8283  -64.0982 N   0  0  0  1  0  0  0  0  0  0  0  0
   26.7864    1.5429  -61.1529 C   0  0  0  1  0  0  0  0  0  0  0  0
   25.5675    2.1720  -60.9833 C   0  0  0  1  0  0  0  0  0  0  0  0
   27.4105    2.1446  -58.9178 C   0  0  0  1  0  0  0  0  0  0  0  0
   27.7103    1.5315  -60.1197 C   0  0  0  1  0  0  0  0  0  0  0  0
   26.1880    2.7756  -58.7475 C   0  0  0  1  0  0  0  0  0  0  0  0
   25.2669    2.7869  -59.7779 C   0  0  0  1  0  0  0  0  0  0  0  0
   23.5124    2.5755  -67.1571 C   0  0  0  1  0  0  0  0  0  0  0  0
   22.3339    3.5810  -67.2754 C   0  0  0  1  0  0  0  0  0  0  0  0
   21.4589    3.1324  -68.4647 C   0  0  0  1  0  0  0  0  0  0  0  0
   21.4967    0.9358  -69.7344 C   0  0  0  1  0  0  0  0  0  0  0  0
   25.8296    1.1706  -66.2748 N   0  0  0  1  0  0  0  0  0  0  0  0
   27.2965    0.4857  -64.5857 C   0  0  0  1  0  0  0  0  0  0  0  0
   26.4936    1.1851  -63.6614 C   0  0  0  1  0  0  0  0  0  0  0  0
   27.0809    1.0061  -62.4396 N   0  0  0  1  0  0  0  0  0  0  0  0
   28.3159   -0.0766  -63.9004 N   0  0  0  1  0  0  0  0  0  0  0  0
   28.2164    0.2092  -62.6490 N   0  0  0  1  0  0  0  0  0  0  0  0
   25.9017    3.4769  -57.6334 O   0  0  0  1  0  0  0  0  0  0  0  0
   24.0074    2.4761  -65.7838 N   0  0  0  1  0  0  0  0  0  0  0  0
   26.9028    3.4066  -56.5916 C   0  0  0  1  0  0  0  0  0  0  0  0
   21.8918    1.7222  -68.6777 N   0  0  0  1  0  0  0  0  0  0  0  0
   22.7991    1.2849  -67.6042 C   0  0  0  1  0  0  0  0  0  0  0  0
   20.5594    1.4446  -70.6145 C   0  0  0  1  0  0  0  0  0  0  0  0
   20.1582    0.6644  -71.6822 C   0  0  0  1  0  0  0  0  0  0  0  0
   20.6278   -0.5657  -71.9111 N   0  0  0  1  0  0  0  0  0  0  0  0
   21.5327   -1.0480  -71.0475 C   0  0  0  1  0  0  0  0  0  0  0  0
   21.9928   -0.3342  -69.9546 C   0  0  0  1  0  0  0  0  0  0  0  0
   27.4790    0.0013  -66.6492 H   0  0  0  1  0  0  0  0  0  0  0  0
   24.8760    2.1841  -61.7599 H   0  0  0  1  0  0  0  0  0  0  0  0
   28.1020    2.1325  -58.1412 H   0  0  0  1  0  0  0  0  0  0  0  0
   28.6291    1.0616  -60.2487 H   0  0  0  1  0  0  0  0  0  0  0  0
   24.3482    3.2568  -59.6488 H   0  0  0  1  0  0  0  0  0  0  0  0
   24.3205    2.8305  -67.8104 H   0  0  0  1  0  0  0  0  0  0  0  0
   21.7565    3.5747  -66.3746 H   0  0  0  1  0  0  0  0  0  0  0  0
   22.7111    4.5668  -67.4510 H   0  0  0  1  0  0  0  0  0  0  0  0
   20.4188    3.1834  -68.2190 H   0  0  0  1  0  0  0  0  0  0  0  0
   21.6510    3.7297  -69.3315 H   0  0  0  1  0  0  0  0  0  0  0  0
   23.4882    2.9379  -65.0927 H   0  0  0  1  0  0  0  0  0  0  0  0
   27.8640    3.6322  -57.0041 H   0  0  0  1  0  0  0  0  0  0  0  0
   26.9160    2.4208  -56.1758 H   0  0  0  1  0  0  0  0  0  0  0  0
   26.6692    4.1147  -55.8243 H   0  0  0  1  0  0  0  0  0  0  0  0
   22.2476    0.8566  -66.7933 H   0  0  0  1  0  0  0  0  0  0  0  0
   23.5051    0.5703  -67.9728 H   0  0  0  1  0  0  0  0  0  0  0  0
   20.1639    2.3963  -70.4755 H   0  0  0  1  0  0  0  0  0  0  0  0
   19.4548    1.0546  -72.3415 H   0  0  0  1  0  0  0  0  0  0  0  0
   21.9073   -2.0051  -71.2065 H   0  0  0  1  0  0  0  0  0  0  0  0
   22.6985   -0.7464  -69.3114 H   0  0  0  1  0  0  0  0  0  0  0  0
  1  3  4  0  0  0  0
  1 14  4  0  0  0  0
  1 21  1  0  0  0  0
  2 14  4  0  0  0  0
  2 15  4  0  0  0  0
  2 30  1  0  0  0  0
  3 16  4  0  0  0  0
  4  5  4  0  0  0  0
  4  7  4  0  0  0  0
  4 17  1  0  0  0  0
  5  9  4  0  0  0  0
  5 31  1  0  0  0  0
  6  7  4  0  0  0  0
  6  8  4  0  0  0  0
  6 32  1  0  0  0  0
  7 33  1  0  0  0  0
  8  9  4  0  0  0  0
  8 20  1  0  0  0  0
  9 34  1  0  0  0  0
 10 11  1  0  0  0  0
 10 21  1  0  0  0  0
 10 24  1  0  0  0  0
 10 35  1  0  0  0  0
 11 12  1  0  0  0  0
 11 36  1  0  0  0  0
 11 37  1  0  0  0  0
 12 23  1  0  0  0  0
 12 38  1  0  0  0  0
 12 39  1  0  0  0  0
 13 23  1  0  0  0  0
 13 25  4  0  0  0  0
 13 29  4  0  0  0  0
 15 16  4  0  0  0  0
 15 18  4  0  0  0  0
 16 17  4  0  0  0  0
 17 19  4  0  0  0  0
 18 19  4  0  0  0  0
 20 22  1  0  0  0  0
 21 40  1  0  0  0  0
 22 41  1  0  0  0  0
 22 42  1  0  0  0  0
 22 43  1  0  0  0  0
 23 24  1  0  0  0  0
 24 44  1  0  0  0  0
 24 45  1  0  0  0  0
 25 26  4  0  0  0  0
 25 46  1  0  0  0  0
 26 27  4  0  0  0  0
 26 47  1  0  0  0  0
 27 28  4  0  0  0  0
 28 29  4  0  0  0  0
 28 48  1  0  0  0  0
 29 49  1  0  0  0  0
M  END
> <ConfClashScore>
0 

> <ConfOneFourInteractionScore>
-0.984874 

> <ConfScore>
-0.00388559 

> <ConfScorePBest>
0.00412636 

> <ConfTolerance>
0.403098 

> <HETNAM>
     OWQ A 303  OWQ                                                       

> <pdb_OW>
Q_303 -16.5129 3.80749 7.62812 0.15963 1.39178 -0.28144 -3.20151 0 0 0 -1.30514 0 0 0 0 0 0 0 0 -8.31393

$$$$
6yky_lig_1.pdb
 OpenBabel04162415593D

 49 53  0  0  0  0  0  0  0  0999 V2000
   25.1048    1.8137  -65.3760 C   0  0  0  1  0  0  0  0  0  0  0  0
   26.9167    0.5034  -65.9325 C   0  0  0  1  0  0  0  0  0  0  0  0
   25.4178    1.8285  -64.0982 N   0  0  0  1  0  0  0  0  0  0  0  0
   26.6541    1.4120  -61.1420 C   0  0  0  1  0  0  0  0  0  0  0  0
   25.6778    2.3808  -61.0062 C   0  0  0  1  0  0  0  0  0  0  0  0
   26.9334    1.3566  -58.7616 C   0  0  0  1  0  0  0  0  0  0  0  0
   27.2848    0.9010  -60.0183 C   0  0  0  1  0  0  0  0  0  0  0  0
   25.9542    2.3284  -58.6253 C   0  0  0  1  0  0  0  0  0  0  0  0
   25.3255    2.8377  -59.7458 C   0  0  0  1  0  0  0  0  0  0  0  0
   23.1732    3.2485  -64.8638 C   0  0  0  1  0  0  0  0  0  0  0  0
   22.4350    2.3261  -63.9386 C   0  0  0  1  0  0  0  0  0  0  0  0
   21.2287    1.8977  -64.8201 C   0  0  0  1  0  0  0  0  0  0  0  0
   19.8592    3.2905  -66.3334 C   0  0  0  1  0  0  0  0  0  0  0  0
   25.8297    1.1708  -66.2748 N   0  0  0  1  0  0  0  0  0  0  0  0
   27.2965    0.4857  -64.5857 C   0  0  0  1  0  0  0  0  0  0  0  0
   26.4936    1.1852  -63.6614 C   0  0  0  1  0  0  0  0  0  0  0  0
   27.0809    1.0062  -62.4395 N   0  0  0  1  0  0  0  0  0  0  0  0
   28.3159   -0.0766  -63.9004 N   0  0  0  1  0  0  0  0  0  0  0  0
   28.2164    0.2093  -62.6491 N   0  0  0  1  0  0  0  0  0  0  0  0
   25.5313    2.8537  -57.4510 O   0  0  0  1  0  0  0  0  0  0  0  0
   23.9920    2.4858  -65.7895 N   0  0  0  1  0  0  0  0  0  0  0  0
   26.2102    2.4280  -56.2592 C   0  0  0  1  0  0  0  0  0  0  0  0
   21.0139    3.0752  -65.6200 N   0  0  0  1  0  0  0  0  0  0  0  0
   22.1188    4.0158  -65.6096 C   0  0  0  1  0  0  0  0  0  0  0  0
   19.6313    4.5037  -66.9563 C   0  0  0  1  0  0  0  0  0  0  0  0
   18.4587    4.6763  -67.6668 C   0  0  0  1  0  0  0  0  0  0  0  0
   17.5239    3.7283  -67.7833 N   0  0  0  1  0  0  0  0  0  0  0  0
   17.7558    2.5585  -67.1709 C   0  0  0  1  0  0  0  0  0  0  0  0
   18.9036    2.2992  -66.4424 C   0  0  0  1  0  0  0  0  0  0  0  0
   27.4789    0.0014  -66.6492 H   0  0  0  1  0  0  0  0  0  0  0  0
   25.2076    2.7670  -61.8496 H   0  0  0  1  0  0  0  0  0  0  0  0
   27.4036    0.9703  -57.9182 H   0  0  0  1  0  0  0  0  0  0  0  0
   28.0222    0.1748  -60.1208 H   0  0  0  1  0  0  0  0  0  0  0  0
   24.5882    3.5638  -59.6434 H   0  0  0  1  0  0  0  0  0  0  0  0
   23.7943    3.9170  -64.3049 H   0  0  0  1  0  0  0  0  0  0  0  0
   23.0364    1.4847  -63.6648 H   0  0  0  1  0  0  0  0  0  0  0  0
   22.1112    2.8363  -63.0556 H   0  0  0  1  0  0  0  0  0  0  0  0
   21.4725    1.0525  -65.4293 H   0  0  0  1  0  0  0  0  0  0  0  0
   20.3706    1.6713  -64.2222 H   0  0  0  1  0  0  0  0  0  0  0  0
   23.7387    2.4531  -66.7357 H   0  0  0  1  0  0  0  0  0  0  0  0
   25.8816    3.0194  -55.4303 H   0  0  0  1  0  0  0  0  0  0  0  0
   27.2655    2.5494  -56.3875 H   0  0  0  1  0  0  0  0  0  0  0  0
   25.9894    1.3979  -56.0719 H   0  0  0  1  0  0  0  0  0  0  0  0
   22.4386    4.2510  -66.6032 H   0  0  0  1  0  0  0  0  0  0  0  0
   21.8573    4.9173  -65.0957 H   0  0  0  1  0  0  0  0  0  0  0  0
   20.3293    5.2720  -66.8912 H   0  0  0  1  0  0  0  0  0  0  0  0
   18.2953    5.5906  -68.1346 H   0  0  0  1  0  0  0  0  0  0  0  0
   17.0383    1.8095  -67.2468 H   0  0  0  1  0  0  0  0  0  0  0  0
   19.0441    1.3754  -65.9858 H   0  0  0  1  0  0  0  0  0  0  0  0
  1  3  4  0  0  0  0
  1 14  4  0  0  0  0
  1 21  1  0  0  0  0
  2 14  4  0  0  0  0
  2 15  4  0  0  0  0
  2 30  1  0  0  0  0
  3 16  4  0  0  0  0
  4  5  4  0  0  0  0
  4  7  4  0  0  0  0
  4 17  1  0  0  0  0
  5  9  4  0  0  0  0
  5 31  1  0  0  0  0
  6  7  4  0  0  0  0
  6  8  4  0  0  0  0
  6 32  1  0  0  0  0
  7 33  1  0  0  0  0
  8  9  4  0  0  0  0
  8 20  1  0  0  0  0
  9 34  1  0  0  0  0
 10 11  1  0  0  0  0
 10 21  1  0  0  0  0
 10 24  1  0  0  0  0
 10 35  1  0  0  0  0
 11 12  1  0  0  0  0
 11 36  1  0  0  0  0
 11 37  1  0  0  0  0
 12 23  1  0  0  0  0
 12 38  1  0  0  0  0
 12 39  1  0  0  0  0
 13 23  1  0  0  0  0
 13 25  4  0  0  0  0
 13 29  4  0  0  0  0
 15 16  4  0  0  0  0
 15 18  4  0  0  0  0
 16 17  4  0  0  0  0
 17 19  4  0  0  0  0
 18 19  4  0  0  0  0
 20 22  1  0  0  0  0
 21 40  1  0  0  0  0
 22 41  1  0  0  0  0
 22 42  1  0  0  0  0
 22 43  1  0  0  0  0
 23 24  1  0  0  0  0
 24 44  1  0  0  0  0
 24 45  1  0  0  0  0
 25 26  4  0  0  0  0
 25 46  1  0  0  0  0
 26 27  4  0  0  0  0
 26 47  1  0  0  0  0
 27 28  4  0  0  0  0
 28 29  4  0  0  0  0
 28 48  1  0  0  0  0
 29 49  1  0  0  0  0
M  END
> <ConfClashScore>
0 

> <ConfOneFourInteractionScore>
-0.984874 

> <ConfScore>
-0.0038224 

> <ConfScorePBest>
0.00411303 

> <ConfTolerance>
0.470726 

> <HETNAM>
     OWQ A 303  OWQ                                                       

> <pdb_OW>
Q_303 -16.5129 3.80749 7.62812 0.15963 1.39178 -0.28144 -3.20151 0 0 0 -1.30514 0 0 0 0 0 0 0 0 -8.31393

$$$$
6yky_lig_1.pdb
 OpenBabel04162415593D

 49 53  0  0  0  0  0  0  0  0999 V2000
   25.1047    1.8135  -65.3760 C   0  0  0  1  0  0  0  0  0  0  0  0
   26.9167    0.5034  -65.9326 C   0  0  0  1  0  0  0  0  0  0  0  0
   25.4178    1.8284  -64.0982 N   0  0  0  1  0  0  0  0  0  0  0  0
   26.8385    1.5661  -61.1519 C   0  0  0  1  0  0  0  0  0  0  0  0
   26.4147    2.8765  -61.0358 C   0  0  0  1  0  0  0  0  0  0  0  0
   26.9663    1.3935  -58.7642 C   0  0  0  1  0  0  0  0  0  0  0  0
   27.1173    0.8243  -60.0146 C   0  0  0  1  0  0  0  0  0  0  0  0
   26.5412    2.7078  -58.6476 C   0  0  0  1  0  0  0  0  0  0  0  0
   26.2634    3.4472  -59.7817 C   0  0  0  1  0  0  0  0  0  0  0  0
   23.2016    3.2195  -64.7877 C   0  0  0  1  0  0  0  0  0  0  0  0
   21.7735    3.3570  -65.2276 C   0  0  0  1  0  0  0  0  0  0  0  0
   21.8583    4.5730  -66.1921 C   0  0  0  1  0  0  0  0  0  0  0  0
   23.1547    6.7016  -65.9301 C   0  0  0  1  0  0  0  0  0  0  0  0
   25.8297    1.1707  -66.2747 N   0  0  0  1  0  0  0  0  0  0  0  0
   27.2965    0.4857  -64.5857 C   0  0  0  1  0  0  0  0  0  0  0  0
   26.4936    1.1852  -63.6614 C   0  0  0  1  0  0  0  0  0  0  0  0
   27.0809    1.0062  -62.4395 N   0  0  0  1  0  0  0  0  0  0  0  0
   28.3158   -0.0766  -63.9004 N   0  0  0  1  0  0  0  0  0  0  0  0
   28.2164    0.2092  -62.6490 N   0  0  0  1  0  0  0  0  0  0  0  0
   26.4913    3.2897  -57.4336 O   0  0  0  1  0  0  0  0  0  0  0  0
   23.9765    2.4949  -65.7952 N   0  0  0  1  0  0  0  0  0  0  0  0
   26.0585    4.6701  -57.4337 C   0  0  0  1  0  0  0  0  0  0  0  0
   22.9181    5.3468  -65.5999 N   0  0  0  1  0  0  0  0  0  0  0  0
   23.7232    4.6202  -64.6357 C   0  0  0  1  0  0  0  0  0  0  0  0
   24.1505    7.4188  -65.2931 C   0  0  0  1  0  0  0  0  0  0  0  0
   24.3504    8.7389  -65.6493 C   0  0  0  1  0  0  0  0  0  0  0  0
   23.6262    9.3665  -66.5811 N   0  0  0  1  0  0  0  0  0  0  0  0
   22.6613    8.6604  -67.1875 C   0  0  0  1  0  0  0  0  0  0  0  0
   22.3956    7.3340  -66.8953 C   0  0  0  1  0  0  0  0  0  0  0  0
   27.4789    0.0014  -66.6492 H   0  0  0  1  0  0  0  0  0  0  0  0
   26.2095    3.4342  -61.8893 H   0  0  0  1  0  0  0  0  0  0  0  0
   27.1716    0.8358  -57.9107 H   0  0  0  1  0  0  0  0  0  0  0  0
   27.4400   -0.1605  -60.1021 H   0  0  0  1  0  0  0  0  0  0  0  0
   25.9407    4.4320  -59.6942 H   0  0  0  1  0  0  0  0  0  0  0  0
   23.2546    2.6995  -63.8541 H   0  0  0  1  0  0  0  0  0  0  0  0
   21.1279    3.5606  -64.3991 H   0  0  0  1  0  0  0  0  0  0  0  0
   21.4357    2.4783  -65.7363 H   0  0  0  1  0  0  0  0  0  0  0  0
   22.1095    4.2650  -67.1855 H   0  0  0  1  0  0  0  0  0  0  0  0
   20.9393    5.1208  -66.2096 H   0  0  0  1  0  0  0  0  0  0  0  0
   23.7049    2.4924  -66.7368 H   0  0  0  1  0  0  0  0  0  0  0  0
   26.4927    5.1804  -58.2680 H   0  0  0  1  0  0  0  0  0  0  0  0
   26.3710    5.1417  -56.5255 H   0  0  0  1  0  0  0  0  0  0  0  0
   24.9918    4.7091  -57.5078 H   0  0  0  1  0  0  0  0  0  0  0  0
   24.7640    4.6760  -64.8775 H   0  0  0  1  0  0  0  0  0  0  0  0
   23.5670    4.9877  -63.6430 H   0  0  0  1  0  0  0  0  0  0  0  0
   24.7380    6.9732  -64.5598 H   0  0  0  1  0  0  0  0  0  0  0  0
   25.1028    9.2714  -65.1677 H   0  0  0  1  0  0  0  0  0  0  0  0
   22.0845    9.1324  -67.9127 H   0  0  0  1  0  0  0  0  0  0  0  0
   21.6387    6.8232  -67.3931 H   0  0  0  1  0  0  0  0  0  0  0  0
  1  3  4  0  0  0  0
  1 14  4  0  0  0  0
  1 21  1  0  0  0  0
  2 14  4  0  0  0  0
  2 15  4  0  0  0  0
  2 30  1  0  0  0  0
  3 16  4  0  0  0  0
  4  5  4  0  0  0  0
  4  7  4  0  0  0  0
  4 17  1  0  0  0  0
  5  9  4  0  0  0  0
  5 31  1  0  0  0  0
  6  7  4  0  0  0  0
  6  8  4  0  0  0  0
  6 32  1  0  0  0  0
  7 33  1  0  0  0  0
  8  9  4  0  0  0  0
  8 20  1  0  0  0  0
  9 34  1  0  0  0  0
 10 11  1  0  0  0  0
 10 21  1  0  0  0  0
 10 24  1  0  0  0  0
 10 35  1  0  0  0  0
 11 12  1  0  0  0  0
 11 36  1  0  0  0  0
 11 37  1  0  0  0  0
 12 23  1  0  0  0  0
 12 38  1  0  0  0  0
 12 39  1  0  0  0  0
 13 23  1  0  0  0  0
 13 25  4  0  0  0  0
 13 29  4  0  0  0  0
 15 16  4  0  0  0  0
 15 18  4  0  0  0  0
 16 17  4  0  0  0  0
 17 19  4  0  0  0  0
 18 19  4  0  0  0  0
 20 22  1  0  0  0  0
 21 40  1  0  0  0  0
 22 41  1  0  0  0  0
 22 42  1  0  0  0  0
 22 43  1  0  0  0  0
 23 24  1  0  0  0  0
 24 44  1  0  0  0  0
 24 45  1  0  0  0  0
 25 26  4  0  0  0  0
 25 46  1  0  0  0  0
 26 27  4  0  0  0  0
 26 47  1  0  0  0  0
 27 28  4  0  0  0  0
 28 29  4  0  0  0  0
 28 48  1  0  0  0  0
 29 49  1  0  0  0  0
M  END
> <ConfClashScore>
0 

> <ConfOneFourInteractionScore>
-0.984874 

> <ConfScore>
-0.00341478 

> <ConfScorePBest>
0.0040997 

> <ConfTolerance>
0.621711 

> <HETNAM>
     OWQ A 303  OWQ                                                       

> <pdb_OW>
Q_303 -16.5129 3.80749 7.62812 0.15963 1.39178 -0.28144 -3.20151 0 0 0 -1.30514 0 0 0 0 0 0 0 0 -8.31393

$$$$
6yky_lig_1.pdb
 OpenBabel04162415593D

 49 53  0  0  0  0  0  0  0  0999 V2000
   25.1048    1.8135  -65.3760 C   0  0  0  1  0  0  0  0  0  0  0  0
   26.9167    0.5034  -65.9326 C   0  0  0  1  0  0  0  0  0  0  0  0
   25.4178    1.8284  -64.0983 N   0  0  0  1  0  0  0  0  0  0  0  0
   26.7287    1.4700  -61.1391 C   0  0  0  1  0  0  0  0  0  0  0  0
   25.9588    0.6789  -60.3073 C   0  0  0  1  0  0  0  0  0  0  0  0
   26.6664    3.2368  -59.5200 C   0  0  0  1  0  0  0  0  0  0  0  0
   27.0808    2.7518  -60.7461 C   0  0  0  1  0  0  0  0  0  0  0  0
   25.8943    2.4436  -58.6857 C   0  0  0  1  0  0  0  0  0  0  0  0
   25.5433    1.1655  -59.0777 C   0  0  0  1  0  0  0  0  0  0  0  0
   23.5723    2.4819  -67.2294 C   0  0  0  1  0  0  0  0  0  0  0  0
   24.4108    3.4314  -68.0338 C   0  0  0  1  0  0  0  0  0  0  0  0
   23.7629    4.7991  -67.6794 C   0  0  0  1  0  0  0  0  0  0  0  0
   21.3605    5.3543  -67.4475 C   0  0  0  1  0  0  0  0  0  0  0  0
   25.8296    1.1708  -66.2748 N   0  0  0  1  0  0  0  0  0  0  0  0
   27.2965    0.4857  -64.5857 C   0  0  0  1  0  0  0  0  0  0  0  0
   26.4937    1.1853  -63.6615 C   0  0  0  1  0  0  0  0  0  0  0  0
   27.0809    1.0062  -62.4395 N   0  0  0  1  0  0  0  0  0  0  0  0
   28.3158   -0.0766  -63.9004 N   0  0  0  1  0  0  0  0  0  0  0  0
   28.2164    0.2092  -62.6490 N   0  0  0  1  0  0  0  0  0  0  0  0
   25.4520    2.8603  -57.4755 O   0  0  0  1  0  0  0  0  0  0  0  0
   24.0271    2.4524  -65.8448 N   0  0  0  1  0  0  0  0  0  0  0  0
   25.9206    4.1352  -57.0089 C   0  0  0  1  0  0  0  0  0  0  0  0
   22.3861    4.4304  -67.4768 N   0  0  0  1  0  0  0  0  0  0  0  0
   22.1666    3.0062  -67.3062 C   0  0  0  1  0  0  0  0  0  0  0  0
   20.0907    4.9128  -67.1250 C   0  0  0  1  0  0  0  0  0  0  0  0
   19.0574    5.8296  -67.0887 C   0  0  0  1  0  0  0  0  0  0  0  0
   19.2189    7.1297  -67.3533 N   0  0  0  1  0  0  0  0  0  0  0  0
   20.4545    7.5432  -67.6686 C   0  0  0  1  0  0  0  0  0  0  0  0
   21.5464    6.6947  -67.7247 C   0  0  0  1  0  0  0  0  0  0  0  0
   27.4790    0.0014  -66.6492 H   0  0  0  1  0  0  0  0  0  0  0  0
   25.6913   -0.2813  -60.6041 H   0  0  0  1  0  0  0  0  0  0  0  0
   26.9340    4.1970  -59.2234 H   0  0  0  1  0  0  0  0  0  0  0  0
   27.6567    3.3484  -61.3737 H   0  0  0  1  0  0  0  0  0  0  0  0
   24.9673    0.5689  -58.4501 H   0  0  0  1  0  0  0  0  0  0  0  0
   23.6249    1.4968  -67.6437 H   0  0  0  1  0  0  0  0  0  0  0  0
   24.3382    3.2249  -69.0811 H   0  0  0  1  0  0  0  0  0  0  0  0
   25.4371    3.3963  -67.7331 H   0  0  0  1  0  0  0  0  0  0  0  0
   23.8645    5.4978  -68.4834 H   0  0  0  1  0  0  0  0  0  0  0  0
   24.1899    5.2133  -66.7901 H   0  0  0  1  0  0  0  0  0  0  0  0
   23.4903    2.9499  -65.1930 H   0  0  0  1  0  0  0  0  0  0  0  0
   25.5875    4.9036  -57.6747 H   0  0  0  1  0  0  0  0  0  0  0  0
   26.9901    4.1314  -56.9756 H   0  0  0  1  0  0  0  0  0  0  0  0
   25.5333    4.3203  -56.0287 H   0  0  0  1  0  0  0  0  0  0  0  0
   21.6416    2.5908  -68.1410 H   0  0  0  1  0  0  0  0  0  0  0  0
   21.6254    2.8013  -66.4062 H   0  0  0  1  0  0  0  0  0  0  0  0
   19.9163    3.9095  -66.9138 H   0  0  0  1  0  0  0  0  0  0  0  0
   18.1053    5.4907  -66.8430 H   0  0  0  1  0  0  0  0  0  0  0  0
   20.5998    8.5509  -67.8815 H   0  0  0  1  0  0  0  0  0  0  0  0
   22.4887    7.0591  -67.9709 H   0  0  0  1  0  0  0  0  0  0  0  0
  1  3  4  0  0  0  0
  1 14  4  0  0  0  0
  1 21  1  0  0  0  0
  2 14  4  0  0  0  0
  2 15  4  0  0  0  0
  2 30  1  0  0  0  0
  3 16  4  0  0  0  0
  4  5  4  0  0  0  0
  4  7  4  0  0  0  0
  4 17  1  0  0  0  0
  5  9  4  0  0  0  0
  5 31  1  0  0  0  0
  6  7  4  0  0  0  0
  6  8  4  0  0  0  0
  6 32  1  0  0  0  0
  7 33  1  0  0  0  0
  8  9  4  0  0  0  0
  8 20  1  0  0  0  0
  9 34  1  0  0  0  0
 10 11  1  0  0  0  0
 10 21  1  0  0  0  0
 10 24  1  0  0  0  0
 10 35  1  0  0  0  0
 11 12  1  0  0  0  0
 11 36  1  0  0  0  0
 11 37  1  0  0  0  0
 12 23  1  0  0  0  0
 12 38  1  0  0  0  0
 12 39  1  0  0  0  0
 13 23  1  0  0  0  0
 13 25  4  0  0  0  0
 13 29  4  0  0  0  0
 15 16  4  0  0  0  0
 15 18  4  0  0  0  0
 16 17  4  0  0  0  0
 17 19  4  0  0  0  0
 18 19  4  0  0  0  0
 20 22  1  0  0  0  0
 21 40  1  0  0  0  0
 22 41  1  0  0  0  0
 22 42  1  0  0  0  0
 22 43  1  0  0  0  0
 23 24  1  0  0  0  0
 24 44  1  0  0  0  0
 24 45  1  0  0  0  0
 25 26  4  0  0  0  0
 25 46  1  0  0  0  0
 26 27  4  0  0  0  0
 26 47  1  0  0  0  0
 27 28  4  0  0  0  0
 28 29  4  0  0  0  0
 28 48  1  0  0  0  0
 29 49  1  0  0  0  0
M  END
> <ConfClashScore>
0 

> <ConfOneFourInteractionScore>
-0.986948 

> <ConfScore>
-0.00324336 

> <ConfScorePBest>
0.00408638 

> <ConfTolerance>
0.551169 

> <HETNAM>
     OWQ A 303  OWQ                                                       

> <pdb_OW>
Q_303 -16.5129 3.80749 7.62812 0.15963 1.39178 -0.28144 -3.20151 0 0 0 -1.30514 0 0 0 0 0 0 0 0 -8.31393

$$$$
6yky_lig_1.pdb
 OpenBabel04162415593D

 49 53  0  0  0  0  0  0  0  0999 V2000
   25.1049    1.8136  -65.3760 C   0  0  0  1  0  0  0  0  0  0  0  0
   26.9167    0.5034  -65.9326 C   0  0  0  1  0  0  0  0  0  0  0  0
   25.4179    1.8285  -64.0982 N   0  0  0  1  0  0  0  0  0  0  0  0
   26.7287    1.4700  -61.1391 C   0  0  0  1  0  0  0  0  0  0  0  0
   25.7707    2.4552  -60.9917 C   0  0  0  1  0  0  0  0  0  0  0  0
   27.1353    1.5090  -58.7768 C   0  0  0  1  0  0  0  0  0  0  0  0
   27.4139    0.9980  -60.0303 C   0  0  0  1  0  0  0  0  0  0  0  0
   26.1744    2.4972  -58.6289 C   0  0  0  1  0  0  0  0  0  0  0  0
   25.4912    2.9675  -59.7345 C   0  0  0  1  0  0  0  0  0  0  0  0
   23.6123    2.5443  -67.1901 C   0  0  0  1  0  0  0  0  0  0  0  0
   24.7137    3.2104  -68.0603 C   0  0  0  1  0  0  0  0  0  0  0  0
   24.0169    3.8543  -69.2773 C   0  0  0  1  0  0  0  0  0  0  0  0
   21.5379    4.2895  -69.6631 C   0  0  0  1  0  0  0  0  0  0  0  0
   25.8297    1.1708  -66.2748 N   0  0  0  1  0  0  0  0  0  0  0  0
   27.2965    0.4858  -64.5857 C   0  0  0  1  0  0  0  0  0  0  0  0
   26.4937    1.1853  -63.6614 C   0  0  0  1  0  0  0  0  0  0  0  0
   27.0809    1.0062  -62.4395 N   0  0  0  1  0  0  0  0  0  0  0  0
   28.3159   -0.0766  -63.9004 N   0  0  0  1  0  0  0  0  0  0  0  0
   28.2164    0.2093  -62.6490 N   0  0  0  1  0  0  0  0  0  0  0  0
   25.8223    3.0723  -57.4626 O   0  0  0  1  0  0  0  0  0  0  0  0
   23.9921    2.4858  -65.7895 N   0  0  0  1  0  0  0  0  0  0  0  0
   26.4219    2.4846  -56.2847 C   0  0  0  1  0  0  0  0  0  0  0  0
   22.5923    3.9186  -68.8446 N   0  0  0  1  0  0  0  0  0  0  0  0
   22.4565    3.5348  -67.4299 C   0  0  0  1  0  0  0  0  0  0  0  0
   21.8158    4.6337  -70.9730 C   0  0  0  1  0  0  0  0  0  0  0  0
   20.7712    5.0015  -71.7996 C   0  0  0  1  0  0  0  0  0  0  0  0
   19.4972    5.0462  -71.3983 N   0  0  0  1  0  0  0  0  0  0  0  0
   19.2427    4.7142  -70.1246 C   0  0  0  1  0  0  0  0  0  0  0  0
   20.2268    4.3307  -69.2303 C   0  0  0  1  0  0  0  0  0  0  0  0
   27.4789    0.0013  -66.6492 H   0  0  0  1  0  0  0  0  0  0  0  0
   25.2594    2.8120  -61.8242 H   0  0  0  1  0  0  0  0  0  0  0  0
   27.6466    1.1522  -57.9444 H   0  0  0  1  0  0  0  0  0  0  0  0
   28.1378    0.2595  -60.1419 H   0  0  0  1  0  0  0  0  0  0  0  0
   24.7675    3.7060  -59.6230 H   0  0  0  1  0  0  0  0  0  0  0  0
   23.3720    1.5607  -67.5363 H   0  0  0  1  0  0  0  0  0  0  0  0
   25.4153    2.4727  -68.3894 H   0  0  0  1  0  0  0  0  0  0  0  0
   25.2238    3.9604  -67.4927 H   0  0  0  1  0  0  0  0  0  0  0  0
   24.1273    3.2464  -70.1509 H   0  0  0  1  0  0  0  0  0  0  0  0
   24.4054    4.8321  -69.4713 H   0  0  0  1  0  0  0  0  0  0  0  0
   23.4346    2.9409  -65.1243 H   0  0  0  1  0  0  0  0  0  0  0  0
   27.4691    2.7034  -56.2700 H   0  0  0  1  0  0  0  0  0  0  0  0
   26.2796    1.4243  -56.3035 H   0  0  0  1  0  0  0  0  0  0  0  0
   25.9605    2.8914  -55.4091 H   0  0  0  1  0  0  0  0  0  0  0  0
   22.5531    4.3903  -66.7944 H   0  0  0  1  0  0  0  0  0  0  0  0
   21.5119    3.0641  -67.2541 H   0  0  0  1  0  0  0  0  0  0  0  0
   22.7926    4.6160  -71.3296 H   0  0  0  1  0  0  0  0  0  0  0  0
   20.9876    5.2566  -72.7844 H   0  0  0  1  0  0  0  0  0  0  0  0
   18.2577    4.7466  -69.7923 H   0  0  0  1  0  0  0  0  0  0  0  0
   19.9839    4.0783  -68.2511 H   0  0  0  1  0  0  0  0  0  0  0  0
  1  3  4  0  0  0  0
  1 14  4  0  0  0  0
  1 21  1  0  0  0  0
  2 14  4  0  0  0  0
  2 15  4  0  0  0  0
  2 30  1  0  0  0  0
  3 16  4  0  0  0  0
  4  5  4  0  0  0  0
  4  7  4  0  0  0  0
  4 17  1  0  0  0  0
  5  9  4  0  0  0  0
  5 31  1  0  0  0  0
  6  7  4  0  0  0  0
  6  8  4  0  0  0  0
  6 32  1  0  0  0  0
  7 33  1  0  0  0  0
  8  9  4  0  0  0  0
  8 20  1  0  0  0  0
  9 34  1  0  0  0  0
 10 11  1  0  0  0  0
 10 21  1  0  0  0  0
 10 24  1  0  0  0  0
 10 35  1  0  0  0  0
 11 12  1  0  0  0  0
 11 36  1  0  0  0  0
 11 37  1  0  0  0  0
 12 23  1  0  0  0  0
 12 38  1  0  0  0  0
 12 39  1  0  0  0  0
 13 23  1  0  0  0  0
 13 25  4  0  0  0  0
 13 29  4  0  0  0  0
 15 16  4  0  0  0  0
 15 18  4  0  0  0  0
 16 17  4  0  0  0  0
 17 19  4  0  0  0  0
 18 19  4  0  0  0  0
 20 22  1  0  0  0  0
 21 40  1  0  0  0  0
 22 41  1  0  0  0  0
 22 42  1  0  0  0  0
 22 43  1  0  0  0  0
 23 24  1  0  0  0  0
 24 44  1  0  0  0  0
 24 45  1  0  0  0  0
 25 26  4  0  0  0  0
 25 46  1  0  0  0  0
 26 27  4  0  0  0  0
 26 47  1  0  0  0  0
 27 28  4  0  0  0  0
 28 29  4  0  0  0  0
 28 48  1  0  0  0  0
 29 49  1  0  0  0  0
M  END
> <ConfClashScore>
0 

> <ConfOneFourInteractionScore>
-0.987833 

> <ConfScore>
-0.00199514 

> <ConfScorePBest>
0.00407305 

> <ConfTolerance>
0.433882 

> <HETNAM>
     OWQ A 303  OWQ                                                       

> <pdb_OW>
Q_303 -16.5129 3.80749 7.62812 0.15963 1.39178 -0.28144 -3.20151 0 0 0 -1.30514 0 0 0 0 0 0 0 0 -8.31393

$$$$
6yky_lig_1.pdb
 OpenBabel04162415593D

 49 53  0  0  0  0  0  0  0  0999 V2000
   25.1047    1.8134  -65.3760 C   0  0  0  1  0  0  0  0  0  0  0  0
   26.9167    0.5034  -65.9326 C   0  0  0  1  0  0  0  0  0  0  0  0
   25.4177    1.8282  -64.0983 N   0  0  0  1  0  0  0  0  0  0  0  0
   26.6853    1.4948  -61.1608 C   0  0  0  1  0  0  0  0  0  0  0  0
   25.4830    2.1607  -61.0162 C   0  0  0  1  0  0  0  0  0  0  0  0
   27.2069    1.9326  -58.8623 C   0  0  0  1  0  0  0  0  0  0  0  0
   27.5499    1.3829  -60.0831 C   0  0  0  1  0  0  0  0  0  0  0  0
   26.0009    2.6006  -58.7170 C   0  0  0  1  0  0  0  0  0  0  0  0
   25.1391    2.7120  -59.7918 C   0  0  0  1  0  0  0  0  0  0  0  0
   23.0406    3.2196  -64.9855 C   0  0  0  1  0  0  0  0  0  0  0  0
   21.7902    2.3631  -64.6854 C   0  0  0  1  0  0  0  0  0  0  0  0
   20.5837    3.2566  -64.8256 C   0  0  0  1  0  0  0  0  0  0  0  0
   20.4045    5.5651  -66.0295 C   0  0  0  1  0  0  0  0  0  0  0  0
   25.8296    1.1706  -66.2748 N   0  0  0  1  0  0  0  0  0  0  0  0
   27.2965    0.4857  -64.5857 C   0  0  0  1  0  0  0  0  0  0  0  0
   26.4936    1.1851  -63.6614 C   0  0  0  1  0  0  0  0  0  0  0  0
   27.0808    1.0060  -62.4395 N   0  0  0  1  0  0  0  0  0  0  0  0
   28.3159   -0.0766  -63.9004 N   0  0  0  1  0  0  0  0  0  0  0  0
   28.2164    0.2092  -62.6490 N   0  0  0  1  0  0  0  0  0  0  0  0
   25.6673    3.1438  -57.5222 O   0  0  0  1  0  0  0  0  0  0  0  0
   24.0074    2.4761  -65.7838 N   0  0  0  1  0  0  0  0  0  0  0  0
   24.5217    4.0093  -57.4918 C   0  0  0  1  0  0  0  0  0  0  0  0
   21.1884    4.4612  -65.5792 N   0  0  0  1  0  0  0  0  0  0  0  0
   22.4668    4.3846  -65.7677 C   0  0  0  1  0  0  0  0  0  0  0  0
   19.0250    5.4810  -66.0677 C   0  0  0  1  0  0  0  0  0  0  0  0
   18.3042    6.5751  -66.5069 C   0  0  0  1  0  0  0  0  0  0  0  0
   18.8722    7.7183  -66.9030 N   0  0  0  1  0  0  0  0  0  0  0  0
   20.2106    7.7844  -66.8650 C   0  0  0  1  0  0  0  0  0  0  0  0
   21.0090    6.7387  -66.4359 C   0  0  0  1  0  0  0  0  0  0  0  0
   27.4789    0.0015  -66.6492 H   0  0  0  1  0  0  0  0  0  0  0  0
   24.8361    2.2482  -61.8259 H   0  0  0  1  0  0  0  0  0  0  0  0
   27.8537    1.8453  -58.0526 H   0  0  0  1  0  0  0  0  0  0  0  0
   28.4565    0.8853  -60.1931 H   0  0  0  1  0  0  0  0  0  0  0  0
   24.2325    3.2097  -59.6817 H   0  0  0  1  0  0  0  0  0  0  0  0
   23.5053    3.5536  -64.0815 H   0  0  0  1  0  0  0  0  0  0  0  0
   21.7272    1.5527  -65.3811 H   0  0  0  1  0  0  0  0  0  0  0  0
   21.8438    1.9756  -63.6895 H   0  0  0  1  0  0  0  0  0  0  0  0
   20.1968    3.5456  -63.8707 H   0  0  0  1  0  0  0  0  0  0  0  0
   19.8109    2.7850  -65.3961 H   0  0  0  1  0  0  0  0  0  0  0  0
   23.8345    2.4562  -66.7482 H   0  0  0  1  0  0  0  0  0  0  0  0
   24.4116    4.4895  -58.4417 H   0  0  0  1  0  0  0  0  0  0  0  0
   24.6546    4.7499  -56.7312 H   0  0  0  1  0  0  0  0  0  0  0  0
   23.6453    3.4331  -57.2800 H   0  0  0  1  0  0  0  0  0  0  0  0
   22.9278    5.2926  -65.4389 H   0  0  0  1  0  0  0  0  0  0  0  0
   22.6627    4.2415  -66.8098 H   0  0  0  1  0  0  0  0  0  0  0  0
   18.5389    4.6106  -65.7713 H   0  0  0  1  0  0  0  0  0  0  0  0
   17.2668    6.5054  -66.5306 H   0  0  0  1  0  0  0  0  0  0  0  0
   20.6713    8.6646  -67.1729 H   0  0  0  1  0  0  0  0  0  0  0  0
   22.0445    6.8345  -66.4197 H   0  0  0  1  0  0  0  0  0  0  0  0
  1  3  4  0  0  0  0
  1 14  4  0  0  0  0
  1 21  1  0  0  0  0
  2 14  4  0  0  0  0
  2 15  4  0  0  0  0
  2 30  1  0  0  0  0
  3 16  4  0  0  0  0
  4  5  4  0  0  0  0
  4  7  4  0  0  0  0
  4 17  1  0  0  0  0
  5  9  4  0  0  0  0
  5 31  1  0  0  0  0
  6  7  4  0  0  0  0
  6  8  4  0  0  0  0
  6 32  1  0  0  0  0
  7 33  1  0  0  0  0
  8  9  4  0  0  0  0
  8 20  1  0  0  0  0
  9 34  1  0  0  0  0
 10 11  1  0  0  0  0
 10 21  1  0  0  0  0
 10 24  1  0  0  0  0
 10 35  1  0  0  0  0
 11 12  1  0  0  0  0
 11 36  1  0  0  0  0
 11 37  1  0  0  0  0
 12 23  1  0  0  0  0
 12 38  1  0  0  0  0
 12 39  1  0  0  0  0
 13 23  1  0  0  0  0
 13 25  4  0  0  0  0
 13 29  4  0  0  0  0
 15 16  4  0  0  0  0
 15 18  4  0  0  0  0
 16 17  4  0  0  0  0
 17 19  4  0  0  0  0
 18 19  4  0  0  0  0
 20 22  1  0  0  0  0
 21 40  1  0  0  0  0
 22 41  1  0  0  0  0
 22 42  1  0  0  0  0
 22 43  1  0  0  0  0
 23 24  1  0  0  0  0
 24 44  1  0  0  0  0
 24 45  1  0  0  0  0
 25 26  4  0  0  0  0
 25 46  1  0  0  0  0
 26 27  4  0  0  0  0
 26 47  1  0  0  0  0
 27 28  4  0  0  0  0
 28 29  4  0  0  0  0
 28 48  1  0  0  0  0
 29 49  1  0  0  0  0
M  END
> <ConfClashScore>
0 

> <ConfOneFourInteractionScore>
-0.986948 

> <ConfScore>
-0.00186697 

> <ConfScorePBest>
0.00405972 

> <ConfTolerance>
0.503411 

> <HETNAM>
     OWQ A 303  OWQ                                                       

> <pdb_OW>
Q_303 -16.5129 3.80749 7.62812 0.15963 1.39178 -0.28144 -3.20151 0 0 0 -1.30514 0 0 0 0 0 0 0 0 -8.31393

$$$$
6yky_lig_1.pdb
 OpenBabel04162415593D

 49 53  0  0  0  0  0  0  0  0999 V2000
   25.1049    1.8136  -65.3760 C   0  0  0  1  0  0  0  0  0  0  0  0
   26.9167    0.5034  -65.9326 C   0  0  0  1  0  0  0  0  0  0  0  0
   25.4179    1.8285  -64.0982 N   0  0  0  1  0  0  0  0  0  0  0  0
   26.7287    1.4700  -61.1391 C   0  0  0  1  0  0  0  0  0  0  0  0
   27.0460    0.7152  -60.0257 C   0  0  0  1  0  0  0  0  0  0  0  0
   25.5681    3.0394  -59.7472 C   0  0  0  1  0  0  0  0  0  0  0  0
   25.9864    2.6324  -61.0000 C   0  0  0  1  0  0  0  0  0  0  0  0
   25.8864    2.2824  -58.6303 C   0  0  0  1  0  0  0  0  0  0  0  0
   26.6265    1.1234  -58.7692 C   0  0  0  1  0  0  0  0  0  0  0  0
   23.2037    3.1991  -64.8526 C   0  0  0  1  0  0  0  0  0  0  0  0
   21.6746    3.0193  -65.0626 C   0  0  0  1  0  0  0  0  0  0  0  0
   20.9773    4.2696  -64.4869 C   0  0  0  1  0  0  0  0  0  0  0  0
   21.9957    6.4914  -63.7862 C   0  0  0  1  0  0  0  0  0  0  0  0
   25.8298    1.1707  -66.2748 N   0  0  0  1  0  0  0  0  0  0  0  0
   27.2965    0.4858  -64.5857 C   0  0  0  1  0  0  0  0  0  0  0  0
   26.4937    1.1853  -63.6614 C   0  0  0  1  0  0  0  0  0  0  0  0
   27.0809    1.0062  -62.4395 N   0  0  0  1  0  0  0  0  0  0  0  0
   28.3159   -0.0766  -63.9004 N   0  0  0  1  0  0  0  0  0  0  0  0
   28.2164    0.2092  -62.6490 N   0  0  0  1  0  0  0  0  0  0  0  0
   25.4187    2.7766  -57.4595 O   0  0  0  1  0  0  0  0  0  0  0  0
   23.9813    2.4797  -65.8648 N   0  0  0  1  0  0  0  0  0  0  0  0
   25.8078    2.0945  -56.2571 C   0  0  0  1  0  0  0  0  0  0  0  0
   22.0928    5.2531  -64.3901 N   0  0  0  1  0  0  0  0  0  0  0  0
   23.3121    4.7266  -65.0249 C   0  0  0  1  0  0  0  0  0  0  0  0
   23.0191    7.4139  -63.9014 C   0  0  0  1  0  0  0  0  0  0  0  0
   22.8790    8.6426  -63.2845 C   0  0  0  1  0  0  0  0  0  0  0  0
   21.8012    8.9897  -62.5745 N   0  0  0  1  0  0  0  0  0  0  0  0
   20.8187    8.0841  -62.4675 C   0  0  0  1  0  0  0  0  0  0  0  0
   20.8743    6.8325  -63.0555 C   0  0  0  1  0  0  0  0  0  0  0  0
   27.4789    0.0013  -66.6491 H   0  0  0  1  0  0  0  0  0  0  0  0
   27.5995   -0.1590  -60.1305 H   0  0  0  1  0  0  0  0  0  0  0  0
   25.0146    3.9136  -59.6422 H   0  0  0  1  0  0  0  0  0  0  0  0
   25.7442    3.1982  -61.8384 H   0  0  0  1  0  0  0  0  0  0  0  0
   26.8686    0.5576  -57.9308 H   0  0  0  1  0  0  0  0  0  0  0  0
   23.5110    2.8857  -63.8767 H   0  0  0  1  0  0  0  0  0  0  0  0
   21.4577    2.9282  -66.1064 H   0  0  0  1  0  0  0  0  0  0  0  0
   21.3361    2.1436  -64.5496 H   0  0  0  1  0  0  0  0  0  0  0  0
   20.2101    4.6205  -65.1450 H   0  0  0  1  0  0  0  0  0  0  0  0
   20.5569    4.0675  -63.5239 H   0  0  0  1  0  0  0  0  0  0  0  0
   23.7312    2.4675  -66.8123 H   0  0  0  1  0  0  0  0  0  0  0  0
   26.8610    2.2090  -56.1063 H   0  0  0  1  0  0  0  0  0  0  0  0
   25.5714    1.0546  -56.3447 H   0  0  0  1  0  0  0  0  0  0  0  0
   25.2812    2.5117  -55.4242 H   0  0  0  1  0  0  0  0  0  0  0  0
   24.1863    5.1017  -64.5351 H   0  0  0  1  0  0  0  0  0  0  0  0
   23.3430    4.9894  -66.0617 H   0  0  0  1  0  0  0  0  0  0  0  0
   23.8782    7.1874  -64.4421 H   0  0  0  1  0  0  0  0  0  0  0  0
   23.6518    9.3323  -63.3776 H   0  0  0  1  0  0  0  0  0  0  0  0
   19.9733    8.3343  -61.9157 H   0  0  0  1  0  0  0  0  0  0  0  0
   20.0868    6.1615  -62.9491 H   0  0  0  1  0  0  0  0  0  0  0  0
  1  3  4  0  0  0  0
  1 14  4  0  0  0  0
  1 21  1  0  0  0  0
  2 14  4  0  0  0  0
  2 15  4  0  0  0  0
  2 30  1  0  0  0  0
  3 16  4  0  0  0  0
  4  5  4  0  0  0  0
  4  7  4  0  0  0  0
  4 17  1  0  0  0  0
  5  9  4  0  0  0  0
  5 31  1  0  0  0  0
  6  7  4  0  0  0  0
  6  8  4  0  0  0  0
  6 32  1  0  0  0  0
  7 33  1  0  0  0  0
  8  9  4  0  0  0  0
  8 20  1  0  0  0  0
  9 34  1  0  0  0  0
 10 11  1  0  0  0  0
 10 21  1  0  0  0  0
 10 24  1  0  0  0  0
 10 35  1  0  0  0  0
 11 12  1  0  0  0  0
 11 36  1  0  0  0  0
 11 37  1  0  0  0  0
 12 23  1  0  0  0  0
 12 38  1  0  0  0  0
 12 39  1  0  0  0  0
 13 23  1  0  0  0  0
 13 25  4  0  0  0  0
 13 29  4  0  0  0  0
 15 16  4  0  0  0  0
 15 18  4  0  0  0  0
 16 17  4  0  0  0  0
 17 19  4  0  0  0  0
 18 19  4  0  0  0  0
 20 22  1  0  0  0  0
 21 40  1  0  0  0  0
 22 41  1  0  0  0  0
 22 42  1  0  0  0  0
 22 43  1  0  0  0  0
 23 24  1  0  0  0  0
 24 44  1  0  0  0  0
 24 45  1  0  0  0  0
 25 26  4  0  0  0  0
 25 46  1  0  0  0  0
 26 27  4  0  0  0  0
 26 47  1  0  0  0  0
 27 28  4  0  0  0  0
 28 29  4  0  0  0  0
 28 48  1  0  0  0  0
 29 49  1  0  0  0  0
M  END
> <ConfClashScore>
0 

> <ConfOneFourInteractionScore>
-0.986948 

> <ConfScore>
-0.00179255 

> <ConfScorePBest>
0.00404639 

> <ConfTolerance>
0.384516 

> <HETNAM>
     OWQ A 303  OWQ                                                       

> <pdb_OW>
Q_303 -16.5129 3.80749 7.62812 0.15963 1.39178 -0.28144 -3.20151 0 0 0 -1.30514 0 0 0 0 0 0 0 0 -8.31393

$$$$
6yky_lig_1.pdb
 OpenBabel04162415593D

 49 53  0  0  0  0  0  0  0  0999 V2000
   25.1048    1.8136  -65.3759 C   0  0  0  1  0  0  0  0  0  0  0  0
   26.9167    0.5034  -65.9326 C   0  0  0  1  0  0  0  0  0  0  0  0
   25.4179    1.8284  -64.0982 N   0  0  0  1  0  0  0  0  0  0  0  0
   26.7288    1.4700  -61.1391 C   0  0  0  1  0  0  0  0  0  0  0  0
   26.7924    2.8188  -60.8447 C   0  0  0  1  0  0  0  0  0  0  0  0
   26.1548    0.9974  -58.8600 C   0  0  0  1  0  0  0  0  0  0  0  0
   26.4121    0.5576  -60.1447 C   0  0  0  1  0  0  0  0  0  0  0  0
   26.2186    2.3503  -58.5645 C   0  0  0  1  0  0  0  0  0  0  0  0
   26.5343    3.2598  -59.5562 C   0  0  0  1  0  0  0  0  0  0  0  0
   23.0657    3.0933  -64.7875 C   0  0  0  1  0  0  0  0  0  0  0  0
   22.5867    2.0616  -63.7724 C   0  0  0  1  0  0  0  0  0  0  0  0
   21.4944    1.3086  -64.5252 C   0  0  0  1  0  0  0  0  0  0  0  0
   19.6509    2.2779  -65.9512 C   0  0  0  1  0  0  0  0  0  0  0  0
   25.8297    1.1707  -66.2747 N   0  0  0  1  0  0  0  0  0  0  0  0
   27.2965    0.4858  -64.5857 C   0  0  0  1  0  0  0  0  0  0  0  0
   26.4937    1.1852  -63.6614 C   0  0  0  1  0  0  0  0  0  0  0  0
   27.0810    1.0062  -62.4395 N   0  0  0  1  0  0  0  0  0  0  0  0
   28.3159   -0.0766  -63.9004 N   0  0  0  1  0  0  0  0  0  0  0  0
   28.2164    0.2092  -62.6490 N   0  0  0  1  0  0  0  0  0  0  0  0
   25.9680    2.7868  -57.2867 O   0  0  0  1  0  0  0  0  0  0  0  0
   23.9951    2.4929  -65.7364 N   0  0  0  1  0  0  0  0  0  0  0  0
   25.9325    1.7169  -56.3292 C   0  0  0  1  0  0  0  0  0  0  0  0
   20.8978    2.3723  -65.3609 N   0  0  0  1  0  0  0  0  0  0  0  0
   21.7810    3.5448  -65.4944 C   0  0  0  1  0  0  0  0  0  0  0  0
   19.5184    1.8202  -67.2492 C   0  0  0  1  0  0  0  0  0  0  0  0
   18.2533    1.7379  -67.7990 C   0  0  0  1  0  0  0  0  0  0  0  0
   17.1421    2.0819  -67.1407 N   0  0  0  1  0  0  0  0  0  0  0  0
   17.2857    2.5279  -65.8847 C   0  0  0  1  0  0  0  0  0  0  0  0
   18.5135    2.6387  -65.2557 C   0  0  0  1  0  0  0  0  0  0  0  0
   27.4789    0.0013  -66.6492 H   0  0  0  1  0  0  0  0  0  0  0  0
   27.0340    3.5029  -61.5899 H   0  0  0  1  0  0  0  0  0  0  0  0
   25.9133    0.3133  -58.1148 H   0  0  0  1  0  0  0  0  0  0  0  0
   26.3681   -0.4578  -60.3654 H   0  0  0  1  0  0  0  0  0  0  0  0
   26.5782    4.2752  -59.3355 H   0  0  0  1  0  0  0  0  0  0  0  0
   23.5393    3.9178  -64.2967 H   0  0  0  1  0  0  0  0  0  0  0  0
   22.1916    2.5379  -62.8995 H   0  0  0  1  0  0  0  0  0  0  0  0
   23.3818    1.4030  -63.4912 H   0  0  0  1  0  0  0  0  0  0  0  0
   20.7736    0.8955  -63.8510 H   0  0  0  1  0  0  0  0  0  0  0  0
   21.9078    0.5277  -65.1287 H   0  0  0  1  0  0  0  0  0  0  0  0
   23.8031    2.5880  -66.6928 H   0  0  0  1  0  0  0  0  0  0  0  0
   26.8598    1.1834  -56.3552 H   0  0  0  1  0  0  0  0  0  0  0  0
   25.1309    1.0502  -56.5694 H   0  0  0  1  0  0  0  0  0  0  0  0
   25.7806    2.1201  -55.3498 H   0  0  0  1  0  0  0  0  0  0  0  0
   21.9677    3.7700  -66.5237 H   0  0  0  1  0  0  0  0  0  0  0  0
   21.3581    4.4013  -65.0125 H   0  0  0  1  0  0  0  0  0  0  0  0
   20.3550    1.5433  -67.8013 H   0  0  0  1  0  0  0  0  0  0  0  0
   18.1610    1.3904  -68.7749 H   0  0  0  1  0  0  0  0  0  0  0  0
   16.4329    2.8041  -65.3573 H   0  0  0  1  0  0  0  0  0  0  0  0
   18.5784    2.9871  -64.2779 H   0  0  0  1  0  0  0  0  0  0  0  0
  1  3  4  0  0  0  0
  1 14  4  0  0  0  0
  1 21  1  0  0  0  0
  2 14  4  0  0  0  0
  2 15  4  0  0  0  0
  2 30  1  0  0  0  0
  3 16  4  0  0  0  0
  4  5  4  0  0  0  0
  4  7  4  0  0  0  0
  4 17  1  0  0  0  0
  5  9  4  0  0  0  0
  5 31  1  0  0  0  0
  6  7  4  0  0  0  0
  6  8  4  0  0  0  0
  6 32  1  0  0  0  0
  7 33  1  0  0  0  0
  8  9  4  0  0  0  0
  8 20  1  0  0  0  0
  9 34  1  0  0  0  0
 10 11  1  0  0  0  0
 10 21  1  0  0  0  0
 10 24  1  0  0  0  0
 10 35  1  0  0  0  0
 11 12  1  0  0  0  0
 11 36  1  0  0  0  0
 11 37  1  0  0  0  0
 12 23  1  0  0  0  0
 12 38  1  0  0  0  0
 12 39  1  0  0  0  0
 13 23  1  0  0  0  0
 13 25  4  0  0  0  0
 13 29  4  0  0  0  0
 15 16  4  0  0  0  0
 15 18  4  0  0  0  0
 16 17  4  0  0  0  0
 17 19  4  0  0  0  0
 18 19  4  0  0  0  0
 20 22  1  0  0  0  0
 21 40  1  0  0  0  0
 22 41  1  0  0  0  0
 22 42  1  0  0  0  0
 22 43  1  0  0  0  0
 23 24  1  0  0  0  0
 24 44  1  0  0  0  0
 24 45  1  0  0  0  0
 25 26  4  0  0  0  0
 25 46  1  0  0  0  0
 26 27  4  0  0  0  0
 26 47  1  0  0  0  0
 27 28  4  0  0  0  0
 28 29  4  0  0  0  0
 28 48  1  0  0  0  0
 29 49  1  0  0  0  0
M  END
> <ConfClashScore>
0 

> <ConfOneFourInteractionScore>
-0.987833 

> <ConfScore>
-0.00123579 

> <ConfScorePBest>
0.00403306 

> <ConfTolerance>
0.592778 

> <HETNAM>
     OWQ A 303  OWQ                                                       

> <pdb_OW>
Q_303 -16.5129 3.80749 7.62812 0.15963 1.39178 -0.28144 -3.20151 0 0 0 -1.30514 0 0 0 0 0 0 0 0 -8.31393

$$$$
6yky_lig_1.pdb
 OpenBabel04162415593D

 49 53  0  0  0  0  0  0  0  0999 V2000
   25.1048    1.8135  -65.3760 C   0  0  0  1  0  0  0  0  0  0  0  0
   26.9167    0.5034  -65.9326 C   0  0  0  1  0  0  0  0  0  0  0  0
   25.4177    1.8283  -64.0983 N   0  0  0  1  0  0  0  0  0  0  0  0
   26.6540    1.4118  -61.1421 C   0  0  0  1  0  0  0  0  0  0  0  0
   26.6901    0.5162  -60.0902 C   0  0  0  1  0  0  0  0  0  0  0  0
   25.6210    3.0429  -59.7208 C   0  0  0  1  0  0  0  0  0  0  0  0
   26.1163    2.6762  -60.9580 C   0  0  0  1  0  0  0  0  0  0  0  0
   25.6573    2.1446  -58.6655 C   0  0  0  1  0  0  0  0  0  0  0  0
   26.1935    0.8841  -58.8493 C   0  0  0  1  0  0  0  0  0  0  0  0
   23.0192    3.2563  -65.0613 C   0  0  0  1  0  0  0  0  0  0  0  0
   22.2307    4.2007  -66.0103 C   0  0  0  1  0  0  0  0  0  0  0  0
   21.7659    5.4131  -65.1767 C   0  0  0  1  0  0  0  0  0  0  0  0
   22.5016    6.1312  -62.8579 C   0  0  0  1  0  0  0  0  0  0  0  0
   25.8297    1.1707  -66.2748 N   0  0  0  1  0  0  0  0  0  0  0  0
   27.2965    0.4857  -64.5858 C   0  0  0  1  0  0  0  0  0  0  0  0
   26.4936    1.1852  -63.6614 C   0  0  0  1  0  0  0  0  0  0  0  0
   27.0809    1.0061  -62.4395 N   0  0  0  1  0  0  0  0  0  0  0  0
   28.3159   -0.0766  -63.9004 N   0  0  0  1  0  0  0  0  0  0  0  0
   28.2164    0.2092  -62.6490 N   0  0  0  1  0  0  0  0  0  0  0  0
   25.0811    2.4709  -57.4843 O   0  0  0  1  0  0  0  0  0  0  0  0
   24.0147    2.4718  -65.7811 N   0  0  0  1  0  0  0  0  0  0  0  0
   24.6827    3.8390  -57.3042 C   0  0  0  1  0  0  0  0  0  0  0  0
   22.6402    5.3388  -63.9721 N   0  0  0  1  0  0  0  0  0  0  0  0
   23.6723    4.3022  -64.1371 C   0  0  0  1  0  0  0  0  0  0  0  0
   23.3041    7.2429  -62.6793 C   0  0  0  1  0  0  0  0  0  0  0  0
   23.1285    8.0142  -61.5462 C   0  0  0  1  0  0  0  0  0  0  0  0
   22.2205    7.7406  -60.6044 N   0  0  0  1  0  0  0  0  0  0  0  0
   21.4523    6.6575  -60.7883 C   0  0  0  1  0  0  0  0  0  0  0  0
   21.5581    5.8324  -61.8944 C   0  0  0  1  0  0  0  0  0  0  0  0
   27.4790    0.0015  -66.6492 H   0  0  0  1  0  0  0  0  0  0  0  0
   27.0899   -0.4337  -60.2294 H   0  0  0  1  0  0  0  0  0  0  0  0
   25.2213    3.9928  -59.5814 H   0  0  0  1  0  0  0  0  0  0  0  0
   26.0854    3.3488  -61.7506 H   0  0  0  1  0  0  0  0  0  0  0  0
   26.2243    0.2115  -58.0568 H   0  0  0  1  0  0  0  0  0  0  0  0
   22.3686    2.5997  -64.5222 H   0  0  0  1  0  0  0  0  0  0  0  0
   21.3825    3.6880  -66.4136 H   0  0  0  1  0  0  0  0  0  0  0  0
   22.8635    4.5274  -66.8088 H   0  0  0  1  0  0  0  0  0  0  0  0
   21.9197    6.3286  -65.7089 H   0  0  0  1  0  0  0  0  0  0  0  0
   20.7334    5.3245  -64.9098 H   0  0  0  1  0  0  0  0  0  0  0  0
   23.8539    2.4166  -66.7463 H   0  0  0  1  0  0  0  0  0  0  0  0
   25.5405    4.4322  -57.0648 H   0  0  0  1  0  0  0  0  0  0  0  0
   23.9724    3.9013  -56.5065 H   0  0  0  1  0  0  0  0  0  0  0  0
   24.2387    4.2026  -58.2071 H   0  0  0  1  0  0  0  0  0  0  0  0
   24.5511    4.7115  -64.5899 H   0  0  0  1  0  0  0  0  0  0  0  0
   23.9263    3.8673  -63.1930 H   0  0  0  1  0  0  0  0  0  0  0  0
   24.0261    7.4939  -63.3844 H   0  0  0  1  0  0  0  0  0  0  0  0
   23.7339    8.8503  -61.4199 H   0  0  0  1  0  0  0  0  0  0  0  0
   20.7424    6.4259  -60.0644 H   0  0  0  1  0  0  0  0  0  0  0  0
   20.9391    5.0032  -61.9981 H   0  0  0  1  0  0  0  0  0  0  0  0
  1  3  4  0  0  0  0
  1 14  4  0  0  0  0
  1 21  1  0  0  0  0
  2 14  4  0  0  0  0
  2 15  4  0  0  0  0
  2 30  1  0  0  0  0
  3 16  4  0  0  0  0
  4  5  4  0  0  0  0
  4  7  4  0  0  0  0
  4 17  1  0  0  0  0
  5  9  4  0  0  0  0
  5 31  1  0  0  0  0
  6  7  4  0  0  0  0
  6  8  4  0  0  0  0
  6 32  1  0  0  0  0
  7 33  1  0  0  0  0
  8  9  4  0  0  0  0
  8 20  1  0  0  0  0
  9 34  1  0  0  0  0
 10 11  1  0  0  0  0
 10 21  1  0  0  0  0
 10 24  1  0  0  0  0
 10 35  1  0  0  0  0
 11 12  1  0  0  0  0
 11 36  1  0  0  0  0
 11 37  1  0  0  0  0
 12 23  1  0  0  0  0
 12 38  1  0  0  0  0
 12 39  1  0  0  0  0
 13 23  1  0  0  0  0
 13 25  4  0  0  0  0
 13 29  4  0  0  0  0
 15 16  4  0  0  0  0
 15 18  4  0  0  0  0
 16 17  4  0  0  0  0
 17 19  4  0  0  0  0
 18 19  4  0  0  0  0
 20 22  1  0  0  0  0
 21 40  1  0  0  0  0
 22 41  1  0  0  0  0
 22 42  1  0  0  0  0
 22 43  1  0  0  0  0
 23 24  1  0  0  0  0
 24 44  1  0  0  0  0
 24 45  1  0  0  0  0
 25 26  4  0  0  0  0
 25 46  1  0  0  0  0
 26 27  4  0  0  0  0
 26 47  1  0  0  0  0
 27 28  4  0  0  0  0
 28 29  4  0  0  0  0
 28 48  1  0  0  0  0
 29 49  1  0  0  0  0
M  END
> <ConfClashScore>
0 

> <ConfOneFourInteractionScore>
-0.987833 

> <ConfScore>
-0.00088195 

> <ConfScorePBest>
0.00401973 

> <ConfTolerance>
0.410589 

> <HETNAM>
     OWQ A 303  OWQ                                                       

> <pdb_OW>
Q_303 -16.5129 3.80749 7.62812 0.15963 1.39178 -0.28144 -3.20151 0 0 0 -1.30514 0 0 0 0 0 0 0 0 -8.31393

$$$$
6yky_lig_1.pdb
 OpenBabel04162415593D

 49 53  0  0  0  0  0  0  0  0999 V2000
   25.1047    1.8134  -65.3759 C   0  0  0  1  0  0  0  0  0  0  0  0
   26.9167    0.5034  -65.9326 C   0  0  0  1  0  0  0  0  0  0  0  0
   25.4177    1.8282  -64.0981 N   0  0  0  1  0  0  0  0  0  0  0  0
   26.7285    1.4698  -61.1390 C   0  0  0  1  0  0  0  0  0  0  0  0
   25.5966    2.2541  -61.0219 C   0  0  0  1  0  0  0  0  0  0  0  0
   27.1895    1.7828  -58.8073 C   0  0  0  1  0  0  0  0  0  0  0  0
   27.5277    1.2359  -60.0308 C   0  0  0  1  0  0  0  0  0  0  0  0
   26.0541    2.5695  -58.6896 C   0  0  0  1  0  0  0  0  0  0  0  0
   25.2576    2.8025  -59.7948 C   0  0  0  1  0  0  0  0  0  0  0  0
   23.5717    2.6689  -67.1696 C   0  0  0  1  0  0  0  0  0  0  0  0
   24.3966    3.7753  -67.8638 C   0  0  0  1  0  0  0  0  0  0  0  0
   23.4449    4.5957  -68.6975 C   0  0  0  1  0  0  0  0  0  0  0  0
   20.8214    4.7365  -68.5426 C   0  0  0  1  0  0  0  0  0  0  0  0
   25.8295    1.1706  -66.2747 N   0  0  0  1  0  0  0  0  0  0  0  0
   27.2965    0.4857  -64.5857 C   0  0  0  1  0  0  0  0  0  0  0  0
   26.4935    1.1851  -63.6613 C   0  0  0  1  0  0  0  0  0  0  0  0
   27.0809    1.0061  -62.4395 N   0  0  0  1  0  0  0  0  0  0  0  0
   28.3159   -0.0766  -63.9004 N   0  0  0  1  0  0  0  0  0  0  0  0
   28.2164    0.2092  -62.6490 N   0  0  0  1  0  0  0  0  0  0  0  0
   25.6712    3.1369  -57.5251 O   0  0  0  1  0  0  0  0  0  0  0  0
   24.0073    2.4761  -65.7836 N   0  0  0  1  0  0  0  0  0  0  0  0
   26.4809    2.9598  -56.3523 C   0  0  0  1  0  0  0  0  0  0  0  0
   22.0826    4.1536  -68.1200 N   0  0  0  1  0  0  0  0  0  0  0  0
   22.1603    3.2194  -67.2273 C   0  0  0  1  0  0  0  0  0  0  0  0
   19.6200    4.2113  -68.1035 C   0  0  0  1  0  0  0  0  0  0  0  0
   18.4433    4.7991  -68.5270 C   0  0  0  1  0  0  0  0  0  0  0  0
   18.4023    5.8540  -69.3467 N   0  0  0  1  0  0  0  0  0  0  0  0
   19.5743    6.3501  -69.7681 C   0  0  0  1  0  0  0  0  0  0  0  0
   20.7984    5.8262  -69.3909 C   0  0  0  1  0  0  0  0  0  0  0  0
   27.4789    0.0014  -66.6491 H   0  0  0  1  0  0  0  0  0  0  0  0
   24.9993    2.4329  -61.8543 H   0  0  0  1  0  0  0  0  0  0  0  0
   27.7868    1.6041  -57.9750 H   0  0  0  1  0  0  0  0  0  0  0  0
   28.3817    0.6490  -60.1199 H   0  0  0  1  0  0  0  0  0  0  0  0
   24.4036    3.3894  -59.7057 H   0  0  0  1  0  0  0  0  0  0  0  0
   23.6461    1.7423  -67.6996 H   0  0  0  1  0  0  0  0  0  0  0  0
   24.8664    4.3956  -67.1293 H   0  0  0  1  0  0  0  0  0  0  0  0
   25.1440    3.3349  -68.4901 H   0  0  0  1  0  0  0  0  0  0  0  0
   23.5269    4.3551  -69.7368 H   0  0  0  1  0  0  0  0  0  0  0  0
   23.6073    5.6444  -68.5598 H   0  0  0  1  0  0  0  0  0  0  0  0
   23.4434    2.8687  -65.0849 H   0  0  0  1  0  0  0  0  0  0  0  0
   26.0952    3.5634  -55.5574 H   0  0  0  1  0  0  0  0  0  0  0  0
   27.4875    3.2532  -56.5664 H   0  0  0  1  0  0  0  0  0  0  0  0
   26.4636    1.9309  -56.0592 H   0  0  0  1  0  0  0  0  0  0  0  0
   21.4832    2.4308  -67.4808 H   0  0  0  1  0  0  0  0  0  0  0  0
   21.8983    3.6215  -66.2709 H   0  0  0  1  0  0  0  0  0  0  0  0
   19.6024    3.3894  -67.4665 H   0  0  0  1  0  0  0  0  0  0  0  0
   17.5437    4.4003  -68.1908 H   0  0  0  1  0  0  0  0  0  0  0  0
   19.5629    7.1685  -70.4097 H   0  0  0  1  0  0  0  0  0  0  0  0
   21.6842    6.2449  -69.7397 H   0  0  0  1  0  0  0  0  0  0  0  0
  1  3  4  0  0  0  0
  1 14  4  0  0  0  0
  1 21  1  0  0  0  0
  2 14  4  0  0  0  0
  2 15  4  0  0  0  0
  2 30  1  0  0  0  0
  3 16  4  0  0  0  0
  4  5  4  0  0  0  0
  4  7  4  0  0  0  0
  4 17  1  0  0  0  0
  5  9  4  0  0  0  0
  5 31  1  0  0  0  0
  6  7  4  0  0  0  0
  6  8  4  0  0  0  0
  6 32  1  0  0  0  0
  7 33  1  0  0  0  0
  8  9  4  0  0  0  0
  8 20  1  0  0  0  0
  9 34  1  0  0  0  0
 10 11  1  0  0  0  0
 10 21  1  0  0  0  0
 10 24  1  0  0  0  0
 10 35  1  0  0  0  0
 11 12  1  0  0  0  0
 11 36  1  0  0  0  0
 11 37  1  0  0  0  0
 12 23  1  0  0  0  0
 12 38  1  0  0  0  0
 12 39  1  0  0  0  0
 13 23  1  0  0  0  0
 13 25  4  0  0  0  0
 13 29  4  0  0  0  0
 15 16  4  0  0  0  0
 15 18  4  0  0  0  0
 16 17  4  0  0  0  0
 17 19  4  0  0  0  0
 18 19  4  0  0  0  0
 20 22  1  0  0  0  0
 21 40  1  0  0  0  0
 22 41  1  0  0  0  0
 22 42  1  0  0  0  0
 22 43  1  0  0  0  0
 23 24  1  0  0  0  0
 24 44  1  0  0  0  0
 24 45  1  0  0  0  0
 25 26  4  0  0  0  0
 25 46  1  0  0  0  0
 26 27  4  0  0  0  0
 26 47  1  0  0  0  0
 27 28  4  0  0  0  0
 28 29  4  0  0  0  0
 28 48  1  0  0  0  0
 29 49  1  0  0  0  0
M  END
> <ConfClashScore>
0 

> <ConfOneFourInteractionScore>
-0.986948 

> <ConfScore>
-0.000309232 

> <ConfScorePBest>
0.00400641 

> <ConfTolerance>
0.43632 

> <HETNAM>
     OWQ A 303  OWQ                                                       

> <pdb_OW>
Q_303 -16.5129 3.80749 7.62812 0.15963 1.39178 -0.28144 -3.20151 0 0 0 -1.30514 0 0 0 0 0 0 0 0 -8.31393

$$$$
6yky_lig_1.pdb
 OpenBabel04162415593D

 49 53  0  0  0  0  0  0  0  0999 V2000
   25.1048    1.8136  -65.3760 C   0  0  0  1  0  0  0  0  0  0  0  0
   26.9167    0.5034  -65.9326 C   0  0  0  1  0  0  0  0  0  0  0  0
   25.4179    1.8284  -64.0982 N   0  0  0  1  0  0  0  0  0  0  0  0
   26.8454    1.6302  -61.1804 C   0  0  0  1  0  0  0  0  0  0  0  0
   27.8015    2.4638  -60.6315 C   0  0  0  1  0  0  0  0  0  0  0  0
   25.5064    1.8621  -59.2054 C   0  0  0  1  0  0  0  0  0  0  0  0
   25.6974    1.3267  -60.4653 C   0  0  0  1  0  0  0  0  0  0  0  0
   26.4653    2.6982  -58.6549 C   0  0  0  1  0  0  0  0  0  0  0  0
   27.6098    3.0007  -59.3681 C   0  0  0  1  0  0  0  0  0  0  0  0
   23.6308    2.5727  -67.1935 C   0  0  0  1  0  0  0  0  0  0  0  0
   22.3475    3.4219  -67.4087 C   0  0  0  1  0  0  0  0  0  0  0  0
   21.6630    2.9104  -68.6936 C   0  0  0  1  0  0  0  0  0  0  0  0
   22.1143    0.7746  -70.0256 C   0  0  0  1  0  0  0  0  0  0  0  0
   25.8297    1.1707  -66.2747 N   0  0  0  1  0  0  0  0  0  0  0  0
   27.2965    0.4857  -64.5857 C   0  0  0  1  0  0  0  0  0  0  0  0
   26.4936    1.1852  -63.6614 C   0  0  0  1  0  0  0  0  0  0  0  0
   27.0810    1.0061  -62.4395 N   0  0  0  1  0  0  0  0  0  0  0  0
   28.3159   -0.0766  -63.9004 N   0  0  0  1  0  0  0  0  0  0  0  0
   28.2164    0.2093  -62.6490 N   0  0  0  1  0  0  0  0  0  0  0  0
   26.1716    3.1571  -57.4151 O   0  0  0  1  0  0  0  0  0  0  0  0
   23.9920    2.4856  -65.7895 N   0  0  0  1  0  0  0  0  0  0  0  0
   27.2157    3.8401  -56.7038 C   0  0  0  1  0  0  0  0  0  0  0  0
   22.2973    1.5771  -68.8956 N   0  0  0  1  0  0  0  0  0  0  0  0
   23.1425    1.2191  -67.7448 C   0  0  0  1  0  0  0  0  0  0  0  0
   20.9504    0.0472  -70.1926 C   0  0  0  1  0  0  0  0  0  0  0  0
   20.8092   -0.7301  -71.3262 C   0  0  0  1  0  0  0  0  0  0  0  0
   21.7447   -0.8204  -72.2765 N   0  0  0  1  0  0  0  0  0  0  0  0
   22.8698   -0.1133  -72.0997 C   0  0  0  1  0  0  0  0  0  0  0  0
   23.0927    0.6929  -70.9971 C   0  0  0  1  0  0  0  0  0  0  0  0
   27.4789    0.0013  -66.6492 H   0  0  0  1  0  0  0  0  0  0  0  0
   28.6647    2.6883  -61.1665 H   0  0  0  1  0  0  0  0  0  0  0  0
   24.6433    1.6376  -58.6705 H   0  0  0  1  0  0  0  0  0  0  0  0
   24.9799    0.6962  -60.8766 H   0  0  0  1  0  0  0  0  0  0  0  0
   28.3274    3.6312  -58.9567 H   0  0  0  1  0  0  0  0  0  0  0  0
   24.4593    2.9546  -67.7524 H   0  0  0  1  0  0  0  0  0  0  0  0
   21.6889    3.3066  -66.5733 H   0  0  0  1  0  0  0  0  0  0  0  0
   22.6070    4.4540  -67.5192 H   0  0  0  1  0  0  0  0  0  0  0  0
   21.8602    3.5604  -69.5203 H   0  0  0  1  0  0  0  0  0  0  0  0
   20.6059    2.8177  -68.5564 H   0  0  0  1  0  0  0  0  0  0  0  0
   23.4217    2.9210  -65.1219 H   0  0  0  1  0  0  0  0  0  0  0  0
   27.9977    3.1492  -56.4671 H   0  0  0  1  0  0  0  0  0  0  0  0
   26.8197    4.2536  -55.7999 H   0  0  0  1  0  0  0  0  0  0  0  0
   27.6076    4.6264  -57.3146 H   0  0  0  1  0  0  0  0  0  0  0  0
   23.9699    0.6162  -68.0557 H   0  0  0  1  0  0  0  0  0  0  0  0
   22.5742    0.6925  -67.0068 H   0  0  0  1  0  0  0  0  0  0  0  0
   20.1954    0.0843  -69.4782 H   0  0  0  1  0  0  0  0  0  0  0  0
   19.9301   -1.2726  -71.4463 H   0  0  0  1  0  0  0  0  0  0  0  0
   23.6114   -0.1735  -72.8265 H   0  0  0  1  0  0  0  0  0  0  0  0
   23.9799    1.2271  -70.9019 H   0  0  0  1  0  0  0  0  0  0  0  0
  1  3  4  0  0  0  0
  1 14  4  0  0  0  0
  1 21  1  0  0  0  0
  2 14  4  0  0  0  0
  2 15  4  0  0  0  0
  2 30  1  0  0  0  0
  3 16  4  0  0  0  0
  4  5  4  0  0  0  0
  4  7  4  0  0  0  0
  4 17  1  0  0  0  0
  5  9  4  0  0  0  0
  5 31  1  0  0  0  0
  6  7  4  0  0  0  0
  6  8  4  0  0  0  0
  6 32  1  0  0  0  0
  7 33  1  0  0  0  0
  8  9  4  0  0  0  0
  8 20  1  0  0  0  0
  9 34  1  0  0  0  0
 10 11  1  0  0  0  0
 10 21  1  0  0  0  0
 10 24  1  0  0  0  0
 10 35  1  0  0  0  0
 11 12  1  0  0  0  0
 11 36  1  0  0  0  0
 11 37  1  0  0  0  0
 12 23  1  0  0  0  0
 12 38  1  0  0  0  0
 12 39  1  0  0  0  0
 13 23  1  0  0  0  0
 13 25  4  0  0  0  0
 13 29  4  0  0  0  0
 15 16  4  0  0  0  0
 15 18  4  0  0  0  0
 16 17  4  0  0  0  0
 17 19  4  0  0  0  0
 18 19  4  0  0  0  0
 20 22  1  0  0  0  0
 21 40  1  0  0  0  0
 22 41  1  0  0  0  0
 22 42  1  0  0  0  0
 22 43  1  0  0  0  0
 23 24  1  0  0  0  0
 24 44  1  0  0  0  0
 24 45  1  0  0  0  0
 25 26  4  0  0  0  0
 25 46  1  0  0  0  0
 26 27  4  0  0  0  0
 26 47  1  0  0  0  0
 27 28  4  0  0  0  0
 28 29  4  0  0  0  0
 28 48  1  0  0  0  0
 29 49  1  0  0  0  0
M  END
> <ConfClashScore>
0 

> <ConfOneFourInteractionScore>
-0.984874 

> <ConfScore>
-0.00025223 

> <ConfScorePBest>
0.00399308 

> <ConfTolerance>
0.395381 

> <HETNAM>
     OWQ A 303  OWQ                                                       

> <pdb_OW>
Q_303 -16.5129 3.80749 7.62812 0.15963 1.39178 -0.28144 -3.20151 0 0 0 -1.30514 0 0 0 0 0 0 0 0 -8.31393

$$$$
6yky_lig_1.pdb
 OpenBabel04162415593D

 49 53  0  0  0  0  0  0  0  0999 V2000
   25.1047    1.8134  -65.3759 C   0  0  0  1  0  0  0  0  0  0  0  0
   26.9167    0.5034  -65.9326 C   0  0  0  1  0  0  0  0  0  0  0  0
   25.4178    1.8283  -64.0982 N   0  0  0  1  0  0  0  0  0  0  0  0
   26.7669    1.4473  -61.1215 C   0  0  0  1  0  0  0  0  0  0  0  0
   25.4962    1.2569  -60.6124 C   0  0  0  1  0  0  0  0  0  0  0  0
   27.3810    2.6547  -59.1434 C   0  0  0  1  0  0  0  0  0  0  0  0
   27.7100    2.1494  -60.3872 C   0  0  0  1  0  0  0  0  0  0  0  0
   26.1066    2.4638  -58.6327 C   0  0  0  1  0  0  0  0  0  0  0  0
   25.1665    1.7635  -59.3650 C   0  0  0  1  0  0  0  0  0  0  0  0
   23.0959    3.2418  -64.9425 C   0  0  0  1  0  0  0  0  0  0  0  0
   21.8108    2.4396  -64.6398 C   0  0  0  1  0  0  0  0  0  0  0  0
   20.6478    3.3954  -64.7267 C   0  0  0  1  0  0  0  0  0  0  0  0
   20.5684    5.7317  -65.8529 C   0  0  0  1  0  0  0  0  0  0  0  0
   25.8295    1.1706  -66.2747 N   0  0  0  1  0  0  0  0  0  0  0  0
   27.2965    0.4857  -64.5857 C   0  0  0  1  0  0  0  0  0  0  0  0
   26.4936    1.1851  -63.6614 C   0  0  0  1  0  0  0  0  0  0  0  0
   27.0810    1.0061  -62.4395 N   0  0  0  1  0  0  0  0  0  0  0  0
   28.3158   -0.0766  -63.9004 N   0  0  0  1  0  0  0  0  0  0  0  0
   28.2164    0.2092  -62.6490 N   0  0  0  1  0  0  0  0  0  0  0  0
   25.6686    2.9146  -57.4331 O   0  0  0  1  0  0  0  0  0  0  0  0
   24.0074    2.4762  -65.7837 N   0  0  0  1  0  0  0  0  0  0  0  0
   26.5826    3.7031  -56.6550 C   0  0  0  1  0  0  0  0  0  0  0  0
   21.2963    4.5911  -65.4578 N   0  0  0  1  0  0  0  0  0  0  0  0
   22.5651    4.4571  -65.6770 C   0  0  0  1  0  0  0  0  0  0  0  0
   20.0465    5.8901  -67.1235 C   0  0  0  1  0  0  0  0  0  0  0  0
   19.3434    7.0436  -67.4143 C   0  0  0  1  0  0  0  0  0  0  0  0
   19.1410    8.0238  -66.5285 N   0  0  0  1  0  0  0  0  0  0  0  0
   19.6562    7.8591  -65.3020 C   0  0  0  1  0  0  0  0  0  0  0  0
   20.3699    6.7349  -64.9246 C   0  0  0  1  0  0  0  0  0  0  0  0
   27.4789    0.0013  -66.6491 H   0  0  0  1  0  0  0  0  0  0  0  0
   24.7875    0.7335  -61.1651 H   0  0  0  1  0  0  0  0  0  0  0  0
   28.0897    3.1780  -58.5907 H   0  0  0  1  0  0  0  0  0  0  0  0
   28.6649    2.2961  -60.7721 H   0  0  0  1  0  0  0  0  0  0  0  0
   24.2115    1.6169  -58.9801 H   0  0  0  1  0  0  0  0  0  0  0  0
   23.5955    3.5246  -64.0395 H   0  0  0  1  0  0  0  0  0  0  0  0
   21.6927    1.6548  -65.3576 H   0  0  0  1  0  0  0  0  0  0  0  0
   21.8656    2.0195  -63.6573 H   0  0  0  1  0  0  0  0  0  0  0  0
   20.2960    3.6739  -63.7553 H   0  0  0  1  0  0  0  0  0  0  0  0
   19.8407    2.9803  -65.2934 H   0  0  0  1  0  0  0  0  0  0  0  0
   23.8003    2.4406  -66.7409 H   0  0  0  1  0  0  0  0  0  0  0  0
   26.0386    4.2596  -55.9207 H   0  0  0  1  0  0  0  0  0  0  0  0
   27.1071    4.3786  -57.2979 H   0  0  0  1  0  0  0  0  0  0  0  0
   27.2831    3.0582  -56.1667 H   0  0  0  1  0  0  0  0  0  0  0  0
   23.0777    5.3307  -65.3320 H   0  0  0  1  0  0  0  0  0  0  0  0
   22.7318    4.3365  -66.7270 H   0  0  0  1  0  0  0  0  0  0  0  0
   20.1807    5.1548  -67.8467 H   0  0  0  1  0  0  0  0  0  0  0  0
   18.9516    7.1547  -68.3712 H   0  0  0  1  0  0  0  0  0  0  0  0
   19.5126    8.6127  -64.5998 H   0  0  0  1  0  0  0  0  0  0  0  0
   20.7495    6.6472  -63.9603 H   0  0  0  1  0  0  0  0  0  0  0  0
  1  3  4  0  0  0  0
  1 14  4  0  0  0  0
  1 21  1  0  0  0  0
  2 14  4  0  0  0  0
  2 15  4  0  0  0  0
  2 30  1  0  0  0  0
  3 16  4  0  0  0  0
  4  5  4  0  0  0  0
  4  7  4  0  0  0  0
  4 17  1  0  0  0  0
  5  9  4  0  0  0  0
  5 31  1  0  0  0  0
  6  7  4  0  0  0  0
  6  8  4  0  0  0  0
  6 32  1  0  0  0  0
  7 33  1  0  0  0  0
  8  9  4  0  0  0  0
  8 20  1  0  0  0  0
  9 34  1  0  0  0  0
 10 11  1  0  0  0  0
 10 21  1  0  0  0  0
 10 24  1  0  0  0  0
 10 35  1  0  0  0  0
 11 12  1  0  0  0  0
 11 36  1  0  0  0  0
 11 37  1  0  0  0  0
 12 23  1  0  0  0  0
 12 38  1  0  0  0  0
 12 39  1  0  0  0  0
 13 23  1  0  0  0  0
 13 25  4  0  0  0  0
 13 29  4  0  0  0  0
 15 16  4  0  0  0  0
 15 18  4  0  0  0  0
 16 17  4  0  0  0  0
 17 19  4  0  0  0  0
 18 19  4  0  0  0  0
 20 22  1  0  0  0  0
 21 40  1  0  0  0  0
 22 41  1  0  0  0  0
 22 42  1  0  0  0  0
 22 43  1  0  0  0  0
 23 24  1  0  0  0  0
 24 44  1  0  0  0  0
 24 45  1  0  0  0  0
 25 26  4  0  0  0  0
 25 46  1  0  0  0  0
 26 27  4  0  0  0  0
 26 47  1  0  0  0  0
 27 28  4  0  0  0  0
 28 29  4  0  0  0  0
 28 48  1  0  0  0  0
 29 49  1  0  0  0  0
M  END
> <ConfClashScore>
0 

> <ConfOneFourInteractionScore>
-0.986948 

> <ConfScore>
0.000451606 

> <ConfScorePBest>
0.00397975 

> <ConfTolerance>
0.460876 

> <HETNAM>
     OWQ A 303  OWQ                                                       

> <pdb_OW>
Q_303 -16.5129 3.80749 7.62812 0.15963 1.39178 -0.28144 -3.20151 0 0 0 -1.30514 0 0 0 0 0 0 0 0 -8.31393

$$$$
6yky_lig_1.pdb
 OpenBabel04162415593D

 49 53  0  0  0  0  0  0  0  0999 V2000
   25.1049    1.8138  -65.3760 C   0  0  0  1  0  0  0  0  0  0  0  0
   26.9167    0.5034  -65.9326 C   0  0  0  1  0  0  0  0  0  0  0  0
   25.4180    1.8286  -64.0982 N   0  0  0  1  0  0  0  0  0  0  0  0
   26.7289    1.4702  -61.1391 C   0  0  0  1  0  0  0  0  0  0  0  0
   26.2954    0.5342  -60.2191 C   0  0  0  1  0  0  0  0  0  0  0  0
   26.2863    3.2245  -59.5663 C   0  0  0  1  0  0  0  0  0  0  0  0
   26.7218    2.8175  -60.8133 C   0  0  0  1  0  0  0  0  0  0  0  0
   25.8514    2.2858  -58.6435 C   0  0  0  1  0  0  0  0  0  0  0  0
   25.8585    0.9425  -58.9686 C   0  0  0  1  0  0  0  0  0  0  0  0
   23.7056    2.5192  -67.2755 C   0  0  0  1  0  0  0  0  0  0  0  0
   22.4017    3.3137  -67.5636 C   0  0  0  1  0  0  0  0  0  0  0  0
   21.7987    2.7572  -68.8703 C   0  0  0  1  0  0  0  0  0  0  0  0
   22.3975    0.6429  -70.1174 C   0  0  0  1  0  0  0  0  0  0  0  0
   25.8297    1.1708  -66.2747 N   0  0  0  1  0  0  0  0  0  0  0  0
   27.2965    0.4858  -64.5857 C   0  0  0  1  0  0  0  0  0  0  0  0
   26.4938    1.1853  -63.6614 C   0  0  0  1  0  0  0  0  0  0  0  0
   27.0811    1.0063  -62.4395 N   0  0  0  1  0  0  0  0  0  0  0  0
   28.3159   -0.0766  -63.9004 N   0  0  0  1  0  0  0  0  0  0  0  0
   28.2164    0.2092  -62.6490 N   0  0  0  1  0  0  0  0  0  0  0  0
   25.3993    2.5643  -57.3977 O   0  0  0  1  0  0  0  0  0  0  0  0
   24.0037    2.4667  -65.8550 N   0  0  0  1  0  0  0  0  0  0  0  0
   25.4041    3.9415  -56.9906 C   0  0  0  1  0  0  0  0  0  0  0  0
   22.4933    1.4473  -69.0214 N   0  0  0  1  0  0  0  0  0  0  0  0
   23.2970    1.1396  -67.8270 C   0  0  0  1  0  0  0  0  0  0  0  0
   21.2920   -0.1797  -70.2310 C   0  0  0  1  0  0  0  0  0  0  0  0
   21.1826   -0.9967  -71.3402 C   0  0  0  1  0  0  0  0  0  0  0  0
   22.0956   -1.0379  -72.3155 N   0  0  0  1  0  0  0  0  0  0  0  0
   23.1643   -0.2384  -72.1903 C   0  0  0  1  0  0  0  0  0  0  0  0
   23.3518    0.6131  -71.1155 C   0  0  0  1  0  0  0  0  0  0  0  0
   27.4788    0.0013  -66.6491 H   0  0  0  1  0  0  0  0  0  0  0  0
   26.2969   -0.4763  -60.4652 H   0  0  0  1  0  0  0  0  0  0  0  0
   26.2847    4.2349  -59.3203 H   0  0  0  1  0  0  0  0  0  0  0  0
   27.0442    3.5220  -61.5070 H   0  0  0  1  0  0  0  0  0  0  0  0
   25.5362    0.2379  -58.2748 H   0  0  0  1  0  0  0  0  0  0  0  0
   24.5439    2.9259  -67.8015 H   0  0  0  1  0  0  0  0  0  0  0  0
   22.6255    4.3536  -67.6784 H   0  0  0  1  0  0  0  0  0  0  0  0
   21.7097    3.1841  -66.7579 H   0  0  0  1  0  0  0  0  0  0  0  0
   20.7408    2.6244  -68.7808 H   0  0  0  1  0  0  0  0  0  0  0  0
   22.0090    3.4026  -69.6975 H   0  0  0  1  0  0  0  0  0  0  0  0
   23.3998    2.9108  -65.2238 H   0  0  0  1  0  0  0  0  0  0  0  0
   26.4131    4.2917  -56.9270 H   0  0  0  1  0  0  0  0  0  0  0  0
   24.9346    4.0318  -56.0333 H   0  0  0  1  0  0  0  0  0  0  0  0
   24.8680    4.5272  -57.7080 H   0  0  0  1  0  0  0  0  0  0  0  0
   22.7156    0.6013  -67.1078 H   0  0  0  1  0  0  0  0  0  0  0  0
   24.1610    0.5657  -68.0895 H   0  0  0  1  0  0  0  0  0  0  0  0
   20.5567   -0.1836  -69.4956 H   0  0  0  1  0  0  0  0  0  0  0  0
   20.3472   -1.6109  -71.4201 H   0  0  0  1  0  0  0  0  0  0  0  0
   23.8877   -0.2589  -72.9372 H   0  0  0  1  0  0  0  0  0  0  0  0
   24.1953    1.2191  -71.0604 H   0  0  0  1  0  0  0  0  0  0  0  0
  1  3  4  0  0  0  0
  1 14  4  0  0  0  0
  1 21  1  0  0  0  0
  2 14  4  0  0  0  0
  2 15  4  0  0  0  0
  2 30  1  0  0  0  0
  3 16  4  0  0  0  0
  4  5  4  0  0  0  0
  4  7  4  0  0  0  0
  4 17  1  0  0  0  0
  5  9  4  0  0  0  0
  5 31  1  0  0  0  0
  6  7  4  0  0  0  0
  6  8  4  0  0  0  0
  6 32  1  0  0  0  0
  7 33  1  0  0  0  0
  8  9  4  0  0  0  0
  8 20  1  0  0  0  0
  9 34  1  0  0  0  0
 10 11  1  0  0  0  0
 10 21  1  0  0  0  0
 10 24  1  0  0  0  0
 10 35  1  0  0  0  0
 11 12  1  0  0  0  0
 11 36  1  0  0  0  0
 11 37  1  0  0  0  0
 12 23  1  0  0  0  0
 12 38  1  0  0  0  0
 12 39  1  0  0  0  0
 13 23  1  0  0  0  0
 13 25  4  0  0  0  0
 13 29  4  0  0  0  0
 15 16  4  0  0  0  0
 15 18  4  0  0  0  0
 16 17  4  0  0  0  0
 17 19  4  0  0  0  0
 18 19  4  0  0  0  0
 20 22  1  0  0  0  0
 21 40  1  0  0  0  0
 22 41  1  0  0  0  0
 22 42  1  0  0  0  0
 22 43  1  0  0  0  0
 23 24  1  0  0  0  0
 24 44  1  0  0  0  0
 24 45  1  0  0  0  0
 25 26  4  0  0  0  0
 25 46  1  0  0  0  0
 26 27  4  0  0  0  0
 26 47  1  0  0  0  0
 27 28  4  0  0  0  0
 28 29  4  0  0  0  0
 28 48  1  0  0  0  0
 29 49  1  0  0  0  0
M  END
> <ConfClashScore>
0 

> <ConfOneFourInteractionScore>
-0.984874 

> <ConfScore>
0.00175732 

> <ConfScorePBest>
0.00396642 

> <ConfTolerance>
0.387308 

> <HETNAM>
     OWQ A 303  OWQ                                                       

> <pdb_OW>
Q_303 -16.5129 3.80749 7.62812 0.15963 1.39178 -0.28144 -3.20151 0 0 0 -1.30514 0 0 0 0 0 0 0 0 -8.31393

$$$$
6yky_lig_1.pdb
 OpenBabel04162415593D

 49 53  0  0  0  0  0  0  0  0999 V2000
   25.1046    1.8133  -65.3759 C   0  0  0  1  0  0  0  0  0  0  0  0
   26.9167    0.5034  -65.9326 C   0  0  0  1  0  0  0  0  0  0  0  0
   25.4176    1.8281  -64.0982 N   0  0  0  1  0  0  0  0  0  0  0  0
   26.7283    1.4696  -61.1390 C   0  0  0  1  0  0  0  0  0  0  0  0
   25.5734    2.2065  -60.9565 C   0  0  0  1  0  0  0  0  0  0  0  0
   27.2957    1.7830  -58.8310 C   0  0  0  1  0  0  0  0  0  0  0  0
   27.5922    1.2597  -60.0754 C   0  0  0  1  0  0  0  0  0  0  0  0
   26.1374    2.5221  -58.6477 C   0  0  0  1  0  0  0  0  0  0  0  0
   25.2763    2.7312  -59.7084 C   0  0  0  1  0  0  0  0  0  0  0  0
   23.0971    3.2410  -64.9360 C   0  0  0  1  0  0  0  0  0  0  0  0
   22.5418    2.3738  -63.7844 C   0  0  0  1  0  0  0  0  0  0  0  0
   21.0794    2.7072  -63.6295 C   0  0  0  1  0  0  0  0  0  0  0  0
   19.5482    3.8861  -65.3128 C   0  0  0  1  0  0  0  0  0  0  0  0
   25.8296    1.1706  -66.2748 N   0  0  0  1  0  0  0  0  0  0  0  0
   27.2965    0.4858  -64.5857 C   0  0  0  1  0  0  0  0  0  0  0  0
   26.4935    1.1849  -63.6614 C   0  0  0  1  0  0  0  0  0  0  0  0
   27.0808    1.0059  -62.4395 N   0  0  0  1  0  0  0  0  0  0  0  0
   28.3159   -0.0766  -63.9004 N   0  0  0  1  0  0  0  0  0  0  0  0
   28.2164    0.2092  -62.6490 N   0  0  0  1  0  0  0  0  0  0  0  0
   25.9008    3.1170  -57.4544 O   0  0  0  1  0  0  0  0  0  0  0  0
   24.0133    2.4722  -65.7814 N   0  0  0  1  0  0  0  0  0  0  0  0
   24.6301    3.7644  -57.2846 C   0  0  0  1  0  0  0  0  0  0  0  0
   20.7991    3.4499  -64.9542 N   0  0  0  1  0  0  0  0  0  0  0  0
   21.8441    3.6261  -65.6976 C   0  0  0  1  0  0  0  0  0  0  0  0
   18.4578    3.6472  -64.4971 C   0  0  0  1  0  0  0  0  0  0  0  0
   17.2169    4.1074  -64.8946 C   0  0  0  1  0  0  0  0  0  0  0  0
   17.0107    4.7734  -66.0348 N   0  0  0  1  0  0  0  0  0  0  0  0
   18.0761    4.9943  -66.8181 C   0  0  0  1  0  0  0  0  0  0  0  0
   19.3541    4.5723  -66.4957 C   0  0  0  1  0  0  0  0  0  0  0  0
   27.4790    0.0015  -66.6493 H   0  0  0  1  0  0  0  0  0  0  0  0
   24.9274    2.3672  -61.7555 H   0  0  0  1  0  0  0  0  0  0  0  0
   27.9418    1.6222  -58.0320 H   0  0  0  1  0  0  0  0  0  0  0  0
   28.4632    0.7086  -60.2138 H   0  0  0  1  0  0  0  0  0  0  0  0
   24.4052    3.2823  -59.5701 H   0  0  0  1  0  0  0  0  0  0  0  0
   23.6005    4.1067  -64.5590 H   0  0  0  1  0  0  0  0  0  0  0  0
   23.0645    2.5938  -62.8770 H   0  0  0  1  0  0  0  0  0  0  0  0
   22.6567    1.3366  -64.0204 H   0  0  0  1  0  0  0  0  0  0  0  0
   20.9088    3.3384  -62.7825 H   0  0  0  1  0  0  0  0  0  0  0  0
   20.4830    1.8232  -63.5419 H   0  0  0  1  0  0  0  0  0  0  0  0
   23.8065    2.4370  -66.7387 H   0  0  0  1  0  0  0  0  0  0  0  0
   24.5576    4.1536  -56.2905 H   0  0  0  1  0  0  0  0  0  0  0  0
   23.8447    3.0565  -57.4483 H   0  0  0  1  0  0  0  0  0  0  0  0
   24.5413    4.5656  -57.9882 H   0  0  0  1  0  0  0  0  0  0  0  0
   21.9058    4.6556  -65.9826 H   0  0  0  1  0  0  0  0  0  0  0  0
   21.7616    3.0173  -66.5737 H   0  0  0  1  0  0  0  0  0  0  0  0
   18.5693    3.1308  -63.6012 H   0  0  0  1  0  0  0  0  0  0  0  0
   16.4016    3.9261  -64.2748 H   0  0  0  1  0  0  0  0  0  0  0  0
   17.9353    5.5077  -67.7115 H   0  0  0  1  0  0  0  0  0  0  0  0
   20.1531    4.7682  -67.1319 H   0  0  0  1  0  0  0  0  0  0  0  0
  1  3  4  0  0  0  0
  1 14  4  0  0  0  0
  1 21  1  0  0  0  0
  2 14  4  0  0  0  0
  2 15  4  0  0  0  0
  2 30  1  0  0  0  0
  3 16  4  0  0  0  0
  4  5  4  0  0  0  0
  4  7  4  0  0  0  0
  4 17  1  0  0  0  0
  5  9  4  0  0  0  0
  5 31  1  0  0  0  0
  6  7  4  0  0  0  0
  6  8  4  0  0  0  0
  6 32  1  0  0  0  0
  7 33  1  0  0  0  0
  8  9  4  0  0  0  0
  8 20  1  0  0  0  0
  9 34  1  0  0  0  0
 10 11  1  0  0  0  0
 10 21  1  0  0  0  0
 10 24  1  0  0  0  0
 10 35  1  0  0  0  0
 11 12  1  0  0  0  0
 11 36  1  0  0  0  0
 11 37  1  0  0  0  0
 12 23  1  0  0  0  0
 12 38  1  0  0  0  0
 12 39  1  0  0  0  0
 13 23  1  0  0  0  0
 13 25  4  0  0  0  0
 13 29  4  0  0  0  0
 15 16  4  0  0  0  0
 15 18  4  0  0  0  0
 16 17  4  0  0  0  0
 17 19  4  0  0  0  0
 18 19  4  0  0  0  0
 20 22  1  0  0  0  0
 21 40  1  0  0  0  0
 22 41  1  0  0  0  0
 22 42  1  0  0  0  0
 22 43  1  0  0  0  0
 23 24  1  0  0  0  0
 24 44  1  0  0  0  0
 24 45  1  0  0  0  0
 25 26  4  0  0  0  0
 25 46  1  0  0  0  0
 26 27  4  0  0  0  0
 26 47  1  0  0  0  0
 27 28  4  0  0  0  0
 28 29  4  0  0  0  0
 28 48  1  0  0  0  0
 29 49  1  0  0  0  0
M  END
> <ConfClashScore>
0 

> <ConfOneFourInteractionScore>
-0.987833 

> <ConfScore>
0.00178947 

> <ConfScorePBest>
0.00395309 

> <ConfTolerance>
0.452325 

> <HETNAM>
     OWQ A 303  OWQ                                                       

> <pdb_OW>
Q_303 -16.5129 3.80749 7.62812 0.15963 1.39178 -0.28144 -3.20151 0 0 0 -1.30514 0 0 0 0 0 0 0 0 -8.31393

$$$$
6yky_lig_1.pdb
 OpenBabel04162415593D

 49 53  0  0  0  0  0  0  0  0999 V2000
   25.1046    1.8134  -65.3759 C   0  0  0  1  0  0  0  0  0  0  0  0
   26.9167    0.5034  -65.9326 C   0  0  0  1  0  0  0  0  0  0  0  0
   25.4177    1.8281  -64.0982 N   0  0  0  1  0  0  0  0  0  0  0  0
   26.7285    1.4698  -61.1390 C   0  0  0  1  0  0  0  0  0  0  0  0
   26.5634    0.5686  -60.1042 C   0  0  0  1  0  0  0  0  0  0  0  0
   26.0349    3.2554  -59.6977 C   0  0  0  1  0  0  0  0  0  0  0  0
   26.4614    2.8147  -60.9363 C   0  0  0  1  0  0  0  0  0  0  0  0
   25.8693    2.3516  -58.6596 C   0  0  0  1  0  0  0  0  0  0  0  0
   26.1358    1.0106  -58.8620 C   0  0  0  1  0  0  0  0  0  0  0  0
   23.0956    3.1470  -64.7956 C   0  0  0  1  0  0  0  0  0  0  0  0
   21.6638    2.5454  -64.8459 C   0  0  0  1  0  0  0  0  0  0  0  0
   20.6800    3.6526  -64.4133 C   0  0  0  1  0  0  0  0  0  0  0  0
   21.0818    6.1783  -64.1421 C   0  0  0  1  0  0  0  0  0  0  0  0
   25.8296    1.1706  -66.2748 N   0  0  0  1  0  0  0  0  0  0  0  0
   27.2965    0.4857  -64.5857 C   0  0  0  1  0  0  0  0  0  0  0  0
   26.4936    1.1851  -63.6614 C   0  0  0  1  0  0  0  0  0  0  0  0
   27.0808    1.0061  -62.4395 N   0  0  0  1  0  0  0  0  0  0  0  0
   28.3159   -0.0766  -63.9004 N   0  0  0  1  0  0  0  0  0  0  0  0
   28.2164    0.2092  -62.6490 N   0  0  0  1  0  0  0  0  0  0  0  0
   25.4441    2.8470  -57.4732 O   0  0  0  1  0  0  0  0  0  0  0  0
   23.9886    2.4963  -65.7385 N   0  0  0  1  0  0  0  0  0  0  0  0
   25.3499    1.9275  -56.3740 C   0  0  0  1  0  0  0  0  0  0  0  0
   21.4933    4.8923  -64.5637 N   0  0  0  1  0  0  0  0  0  0  0  0
   22.7827    4.5979  -65.2102 C   0  0  0  1  0  0  0  0  0  0  0  0
   21.4686    6.6736  -62.9106 C   0  0  0  1  0  0  0  0  0  0  0  0
   21.0473    7.9365  -62.5400 C   0  0  0  1  0  0  0  0  0  0  0  0
   20.2780    8.7104  -63.3116 N   0  0  0  1  0  0  0  0  0  0  0  0
   19.9068    8.2159  -64.5011 C   0  0  0  1  0  0  0  0  0  0  0  0
   20.2859    6.9638  -64.9528 C   0  0  0  1  0  0  0  0  0  0  0  0
   27.4789    0.0014  -66.6492 H   0  0  0  1  0  0  0  0  0  0  0  0
   26.7601   -0.4411  -60.2576 H   0  0  0  1  0  0  0  0  0  0  0  0
   25.8382    4.2650  -59.5443 H   0  0  0  1  0  0  0  0  0  0  0  0
   26.5817    3.4922  -61.7162 H   0  0  0  1  0  0  0  0  0  0  0  0
   26.0154    0.3331  -58.0822 H   0  0  0  1  0  0  0  0  0  0  0  0
   23.5148    3.0955  -63.8126 H   0  0  0  1  0  0  0  0  0  0  0  0
   21.4374    2.2240  -65.8410 H   0  0  0  1  0  0  0  0  0  0  0  0
   21.5939    1.7130  -64.1772 H   0  0  0  1  0  0  0  0  0  0  0  0
   19.8208    3.6754  -65.0506 H   0  0  0  1  0  0  0  0  0  0  0  0
   20.3685    3.5166  -63.3987 H   0  0  0  1  0  0  0  0  0  0  0  0
   23.7729    2.5537  -66.6927 H   0  0  0  1  0  0  0  0  0  0  0  0
   26.3269    1.5721  -56.1210 H   0  0  0  1  0  0  0  0  0  0  0  0
   24.7310    1.1004  -56.6533 H   0  0  0  1  0  0  0  0  0  0  0  0
   24.9216    2.4248  -55.5290 H   0  0  0  1  0  0  0  0  0  0  0  0
   23.5429    5.2642  -64.8595 H   0  0  0  1  0  0  0  0  0  0  0  0
   22.7000    4.6784  -66.2739 H   0  0  0  1  0  0  0  0  0  0  0  0
   22.0653    6.1064  -62.2751 H   0  0  0  1  0  0  0  0  0  0  0  0
   21.3442    8.3034  -61.6133 H   0  0  0  1  0  0  0  0  0  0  0  0
   19.3048    8.8016  -65.1143 H   0  0  0  1  0  0  0  0  0  0  0  0
   19.9773    6.6209  -65.8849 H   0  0  0  1  0  0  0  0  0  0  0  0
  1  3  4  0  0  0  0
  1 14  4  0  0  0  0
  1 21  1  0  0  0  0
  2 14  4  0  0  0  0
  2 15  4  0  0  0  0
  2 30  1  0  0  0  0
  3 16  4  0  0  0  0
  4  5  4  0  0  0  0
  4  7  4  0  0  0  0
  4 17  1  0  0  0  0
  5  9  4  0  0  0  0
  5 31  1  0  0  0  0
  6  7  4  0  0  0  0
  6  8  4  0  0  0  0
  6 32  1  0  0  0  0
  7 33  1  0  0  0  0
  8  9  4  0  0  0  0
  8 20  1  0  0  0  0
  9 34  1  0  0  0  0
 10 11  1  0  0  0  0
 10 21  1  0  0  0  0
 10 24  1  0  0  0  0
 10 35  1  0  0  0  0
 11 12  1  0  0  0  0
 11 36  1  0  0  0  0
 11 37  1  0  0  0  0
 12 23  1  0  0  0  0
 12 38  1  0  0  0  0
 12 39  1  0  0  0  0
 13 23  1  0  0  0  0
 13 25  4  0  0  0  0
 13 29  4  0  0  0  0
 15 16  4  0  0  0  0
 15 18  4  0  0  0  0
 16 17  4  0  0  0  0
 17 19  4  0  0  0  0
 18 19  4  0  0  0  0
 20 22  1  0  0  0  0
 21 40  1  0  0  0  0
 22 41  1  0  0  0  0
 22 42  1  0  0  0  0
 22 43  1  0  0  0  0
 23 24  1  0  0  0  0
 24 44  1  0  0  0  0
 24 45  1  0  0  0  0
 25 26  4  0  0  0  0
 25 46  1  0  0  0  0
 26 27  4  0  0  0  0
 26 47  1  0  0  0  0
 27 28  4  0  0  0  0
 28 29  4  0  0  0  0
 28 48  1  0  0  0  0
 29 49  1  0  0  0  0
M  END
> <ConfClashScore>
0 

> <ConfOneFourInteractionScore>
-0.986948 

> <ConfScore>
0.00209589 

> <ConfScorePBest>
0.00393977 

> <ConfTolerance>
0.458371 

> <HETNAM>
     OWQ A 303  OWQ                                                       

> <pdb_OW>
Q_303 -16.5129 3.80749 7.62812 0.15963 1.39178 -0.28144 -3.20151 0 0 0 -1.30514 0 0 0 0 0 0 0 0 -8.31393

$$$$
6yky_lig_1.pdb
 OpenBabel04162415593D

 49 53  0  0  0  0  0  0  0  0999 V2000
   25.1048    1.8136  -65.3760 C   0  0  0  1  0  0  0  0  0  0  0  0
   26.9167    0.5034  -65.9326 C   0  0  0  1  0  0  0  0  0  0  0  0
   25.4179    1.8284  -64.0982 N   0  0  0  1  0  0  0  0  0  0  0  0
   26.8118    1.5873  -61.1666 C   0  0  0  1  0  0  0  0  0  0  0  0
   27.7442    2.4176  -60.5740 C   0  0  0  1  0  0  0  0  0  0  0  0
   25.4318    1.7379  -59.2122 C   0  0  0  1  0  0  0  0  0  0  0  0
   25.6551    1.2448  -60.4838 C   0  0  0  1  0  0  0  0  0  0  0  0
   26.3669    2.5708  -58.6175 C   0  0  0  1  0  0  0  0  0  0  0  0
   27.5201    2.9122  -59.2985 C   0  0  0  1  0  0  0  0  0  0  0  0
   23.2221    3.3342  -64.8327 C   0  0  0  1  0  0  0  0  0  0  0  0
   21.8890    2.7010  -64.5124 C   0  0  0  1  0  0  0  0  0  0  0  0
   21.0157    3.8645  -64.0878 C   0  0  0  1  0  0  0  0  0  0  0  0
   20.9365    6.2245  -64.9896 C   0  0  0  1  0  0  0  0  0  0  0  0
   25.8297    1.1707  -66.2747 N   0  0  0  1  0  0  0  0  0  0  0  0
   27.2965    0.4857  -64.5857 C   0  0  0  1  0  0  0  0  0  0  0  0
   26.4937    1.1852  -63.6614 C   0  0  0  1  0  0  0  0  0  0  0  0
   27.0810    1.0062  -62.4395 N   0  0  0  1  0  0  0  0  0  0  0  0
   28.3159   -0.0766  -63.9004 N   0  0  0  1  0  0  0  0  0  0  0  0
   28.2164    0.2092  -62.6490 N   0  0  0  1  0  0  0  0  0  0  0  0
   26.2111    3.0831  -57.3737 O   0  0  0  1  0  0  0  0  0  0  0  0
   23.9889    2.4967  -65.7385 N   0  0  0  1  0  0  0  0  0  0  0  0
   24.9586    2.8379  -56.7150 C   0  0  0  1  0  0  0  0  0  0  0  0
   21.5619    4.9904  -64.8675 N   0  0  0  1  0  0  0  0  0  0  0  0
   22.8448    4.6551  -65.5002 C   0  0  0  1  0  0  0  0  0  0  0  0
   19.8697    6.2806  -65.8674 C   0  0  0  1  0  0  0  0  0  0  0  0
   19.2043    7.4809  -66.0288 C   0  0  0  1  0  0  0  0  0  0  0  0
   19.5398    8.6002  -65.3800 N   0  0  0  1  0  0  0  0  0  0  0  0
   20.5787    8.5325  -64.5354 C   0  0  0  1  0  0  0  0  0  0  0  0
   21.2982    7.3717  -64.3109 C   0  0  0  1  0  0  0  0  0  0  0  0
   27.4788    0.0013  -66.6492 H   0  0  0  1  0  0  0  0  0  0  0  0
   28.6139    2.6713  -61.0847 H   0  0  0  1  0  0  0  0  0  0  0  0
   24.5621    1.4843  -58.7015 H   0  0  0  1  0  0  0  0  0  0  0  0
   24.9554    0.6168  -60.9284 H   0  0  0  1  0  0  0  0  0  0  0  0
   28.2198    3.5402  -58.8540 H   0  0  0  1  0  0  0  0  0  0  0  0
   23.7870    3.5057  -63.9402 H   0  0  0  1  0  0  0  0  0  0  0  0
   21.9875    1.9911  -63.7179 H   0  0  0  1  0  0  0  0  0  0  0  0
   21.4822    2.2168  -65.3755 H   0  0  0  1  0  0  0  0  0  0  0  0
   21.1021    4.0468  -63.0370 H   0  0  0  1  0  0  0  0  0  0  0  0
   19.9903    3.6864  -64.3363 H   0  0  0  1  0  0  0  0  0  0  0  0
   23.6826    2.4203  -66.6663 H   0  0  0  1  0  0  0  0  0  0  0  0
   25.0161    3.1755  -55.7013 H   0  0  0  1  0  0  0  0  0  0  0  0
   24.7475    1.7891  -56.7300 H   0  0  0  1  0  0  0  0  0  0  0  0
   24.1793    3.3665  -57.2232 H   0  0  0  1  0  0  0  0  0  0  0  0
   23.5788    5.4085  -65.3040 H   0  0  0  1  0  0  0  0  0  0  0  0
   22.7319    4.5331  -66.5572 H   0  0  0  1  0  0  0  0  0  0  0  0
   19.5737    5.4354  -66.3962 H   0  0  0  1  0  0  0  0  0  0  0  0
   18.4013    7.5150  -66.6888 H   0  0  0  1  0  0  0  0  0  0  0  0
   20.8576    9.3940  -64.0241 H   0  0  0  1  0  0  0  0  0  0  0  0
   22.0960    7.3635  -63.6438 H   0  0  0  1  0  0  0  0  0  0  0  0
  1  3  4  0  0  0  0
  1 14  4  0  0  0  0
  1 21  1  0  0  0  0
  2 14  4  0  0  0  0
  2 15  4  0  0  0  0
  2 30  1  0  0  0  0
  3 16  4  0  0  0  0
  4  5  4  0  0  0  0
  4  7  4  0  0  0  0
  4 17  1  0  0  0  0
  5  9  4  0  0  0  0
  5 31  1  0  0  0  0
  6  7  4  0  0  0  0
  6  8  4  0  0  0  0
  6 32  1  0  0  0  0
  7 33  1  0  0  0  0
  8  9  4  0  0  0  0
  8 20  1  0  0  0  0
  9 34  1  0  0  0  0
 10 11  1  0  0  0  0
 10 21  1  0  0  0  0
 10 24  1  0  0  0  0
 10 35  1  0  0  0  0
 11 12  1  0  0  0  0
 11 36  1  0  0  0  0
 11 37  1  0  0  0  0
 12 23  1  0  0  0  0
 12 38  1  0  0  0  0
 12 39  1  0  0  0  0
 13 23  1  0  0  0  0
 13 25  4  0  0  0  0
 13 29  4  0  0  0  0
 15 16  4  0  0  0  0
 15 18  4  0  0  0  0
 16 17  4  0  0  0  0
 17 19  4  0  0  0  0
 18 19  4  0  0  0  0
 20 22  1  0  0  0  0
 21 40  1  0  0  0  0
 22 41  1  0  0  0  0
 22 42  1  0  0  0  0
 22 43  1  0  0  0  0
 23 24  1  0  0  0  0
 24 44  1  0  0  0  0
 24 45  1  0  0  0  0
 25 26  4  0  0  0  0
 25 46  1  0  0  0  0
 26 27  4  0  0  0  0
 26 47  1  0  0  0  0
 27 28  4  0  0  0  0
 28 29  4  0  0  0  0
 28 48  1  0  0  0  0
 29 49  1  0  0  0  0
M  END
> <ConfClashScore>
0 

> <ConfOneFourInteractionScore>
-0.986948 

> <ConfScore>
0.00267131 

> <ConfScorePBest>
0.00392644 

> <ConfTolerance>
0.465962 

> <HETNAM>
     OWQ A 303  OWQ                                                       

> <pdb_OW>
Q_303 -16.5129 3.80749 7.62812 0.15963 1.39178 -0.28144 -3.20151 0 0 0 -1.30514 0 0 0 0 0 0 0 0 -8.31393

$$$$
6yky_lig_1.pdb
 OpenBabel04162415593D

 49 53  0  0  0  0  0  0  0  0999 V2000
   25.1049    1.8136  -65.3760 C   0  0  0  1  0  0  0  0  0  0  0  0
   26.9167    0.5034  -65.9326 C   0  0  0  1  0  0  0  0  0  0  0  0
   25.4178    1.8284  -64.0983 N   0  0  0  1  0  0  0  0  0  0  0  0
   26.8117    1.5872  -61.1666 C   0  0  0  1  0  0  0  0  0  0  0  0
   27.8093    2.3447  -60.5827 C   0  0  0  1  0  0  0  0  0  0  0  0
   25.4590    1.8525  -59.2052 C   0  0  0  1  0  0  0  0  0  0  0  0
   25.6359    1.3384  -60.4759 C   0  0  0  1  0  0  0  0  0  0  0  0
   26.4595    2.6123  -58.6194 C   0  0  0  1  0  0  0  0  0  0  0  0
   27.6318    2.8603  -59.3083 C   0  0  0  1  0  0  0  0  0  0  0  0
   23.1188    3.2070  -64.8924 C   0  0  0  1  0  0  0  0  0  0  0  0
   21.7045    3.3433  -65.4990 C   0  0  0  1  0  0  0  0  0  0  0  0
   21.2160    4.7388  -65.2026 C   0  0  0  1  0  0  0  0  0  0  0  0
   22.6069    6.8122  -64.4956 C   0  0  0  1  0  0  0  0  0  0  0  0
   25.8297    1.1708  -66.2748 N   0  0  0  1  0  0  0  0  0  0  0  0
   27.2965    0.4858  -64.5857 C   0  0  0  1  0  0  0  0  0  0  0  0
   26.4937    1.1851  -63.6614 C   0  0  0  1  0  0  0  0  0  0  0  0
   27.0809    1.0061  -62.4396 N   0  0  0  1  0  0  0  0  0  0  0  0
   28.3159   -0.0766  -63.9004 N   0  0  0  1  0  0  0  0  0  0  0  0
   28.2164    0.2092  -62.6490 N   0  0  0  1  0  0  0  0  0  0  0  0
   26.4027    3.1591  -57.3895 O   0  0  0  1  0  0  0  0  0  0  0  0
   24.0034    2.4788  -65.7853 N   0  0  0  1  0  0  0  0  0  0  0  0
   25.1028    3.1089  -56.7568 C   0  0  0  1  0  0  0  0  0  0  0  0
   22.5314    5.4363  -64.7925 N   0  0  0  1  0  0  0  0  0  0  0  0
   23.5588    4.6501  -64.7445 C   0  0  0  1  0  0  0  0  0  0  0  0
   21.4628    7.5758  -64.6356 C   0  0  0  1  0  0  0  0  0  0  0  0
   21.5243    8.9251  -64.3434 C   0  0  0  1  0  0  0  0  0  0  0  0
   22.6388    9.5379  -63.9326 N   0  0  0  1  0  0  0  0  0  0  0  0
   23.7416    8.7863  -63.8054 C   0  0  0  1  0  0  0  0  0  0  0  0
   23.7684    7.4287  -64.0728 C   0  0  0  1  0  0  0  0  0  0  0  0
   27.4789    0.0014  -66.6492 H   0  0  0  1  0  0  0  0  0  0  0  0
   28.6931    2.5280  -61.0995 H   0  0  0  1  0  0  0  0  0  0  0  0
   24.5752    1.6691  -58.6885 H   0  0  0  1  0  0  0  0  0  0  0  0
   24.8869    0.7650  -60.9139 H   0  0  0  1  0  0  0  0  0  0  0  0
   28.3809    3.4337  -58.8704 H   0  0  0  1  0  0  0  0  0  0  0  0
   23.0854    2.7146  -63.9430 H   0  0  0  1  0  0  0  0  0  0  0  0
   21.0468    2.6246  -65.0566 H   0  0  0  1  0  0  0  0  0  0  0  0
   21.7445    3.1875  -66.5568 H   0  0  0  1  0  0  0  0  0  0  0  0
   20.7839    5.1950  -66.0687 H   0  0  0  1  0  0  0  0  0  0  0  0
   20.5043    4.7435  -64.4037 H   0  0  0  1  0  0  0  0  0  0  0  0
   23.7882    2.4698  -66.7412 H   0  0  0  1  0  0  0  0  0  0  0  0
   25.1944    3.3935  -55.7293 H   0  0  0  1  0  0  0  0  0  0  0  0
   24.7150    2.1136  -56.8176 H   0  0  0  1  0  0  0  0  0  0  0  0
   24.4376    3.7826  -57.2552 H   0  0  0  1  0  0  0  0  0  0  0  0
   24.0553    4.7739  -63.8048 H   0  0  0  1  0  0  0  0  0  0  0  0
   24.2312    4.8981  -65.5391 H   0  0  0  1  0  0  0  0  0  0  0  0
   20.5727    7.1429  -64.9547 H   0  0  0  1  0  0  0  0  0  0  0  0
   20.6593    9.4926  -64.4486 H   0  0  0  1  0  0  0  0  0  0  0  0
   24.6198    9.2458  -63.4905 H   0  0  0  1  0  0  0  0  0  0  0  0
   24.6462    6.8831  -63.9576 H   0  0  0  1  0  0  0  0  0  0  0  0
  1  3  4  0  0  0  0
  1 14  4  0  0  0  0
  1 21  1  0  0  0  0
  2 14  4  0  0  0  0
  2 15  4  0  0  0  0
  2 30  1  0  0  0  0
  3 16  4  0  0  0  0
  4  5  4  0  0  0  0
  4  7  4  0  0  0  0
  4 17  1  0  0  0  0
  5  9  4  0  0  0  0
  5 31  1  0  0  0  0
  6  7  4  0  0  0  0
  6  8  4  0  0  0  0
  6 32  1  0  0  0  0
  7 33  1  0  0  0  0
  8  9  4  0  0  0  0
  8 20  1  0  0  0  0
  9 34  1  0  0  0  0
 10 11  1  0  0  0  0
 10 21  1  0  0  0  0
 10 24  1  0  0  0  0
 10 35  1  0  0  0  0
 11 12  1  0  0  0  0
 11 36  1  0  0  0  0
 11 37  1  0  0  0  0
 12 23  1  0  0  0  0
 12 38  1  0  0  0  0
 12 39  1  0  0  0  0
 13 23  1  0  0  0  0
 13 25  4  0  0  0  0
 13 29  4  0  0  0  0
 15 16  4  0  0  0  0
 15 18  4  0  0  0  0
 16 17  4  0  0  0  0
 17 19  4  0  0  0  0
 18 19  4  0  0  0  0
 20 22  1  0  0  0  0
 21 40  1  0  0  0  0
 22 41  1  0  0  0  0
 22 42  1  0  0  0  0
 22 43  1  0  0  0  0
 23 24  1  0  0  0  0
 24 44  1  0  0  0  0
 24 45  1  0  0  0  0
 25 26  4  0  0  0  0
 25 46  1  0  0  0  0
 26 27  4  0  0  0  0
 26 47  1  0  0  0  0
 27 28  4  0  0  0  0
 28 29  4  0  0  0  0
 28 48  1  0  0  0  0
 29 49  1  0  0  0  0
M  END
> <ConfClashScore>
0 

> <ConfOneFourInteractionScore>
-0.984874 

> <ConfScore>
0.00359445 

> <ConfScorePBest>
0.00391311 

> <ConfTolerance>
0.463481 

> <HETNAM>
     OWQ A 303  OWQ                                                       

> <pdb_OW>
Q_303 -16.5129 3.80749 7.62812 0.15963 1.39178 -0.28144 -3.20151 0 0 0 -1.30514 0 0 0 0 0 0 0 0 -8.31393

$$$$
6yky_lig_1.pdb
 OpenBabel04162415593D

 49 53  0  0  0  0  0  0  0  0999 V2000
   25.1047    1.8135  -65.3759 C   0  0  0  1  0  0  0  0  0  0  0  0
   26.9167    0.5034  -65.9326 C   0  0  0  1  0  0  0  0  0  0  0  0
   25.4178    1.8284  -64.0982 N   0  0  0  1  0  0  0  0  0  0  0  0
   26.7287    1.4699  -61.1390 C   0  0  0  1  0  0  0  0  0  0  0  0
   27.7473    1.9180  -60.3194 C   0  0  0  1  0  0  0  0  0  0  0  0
   25.1562    1.7750  -59.3554 C   0  0  0  1  0  0  0  0  0  0  0  0
   25.4316    1.3958  -60.6556 C   0  0  0  1  0  0  0  0  0  0  0  0
   26.1777    2.2245  -58.5331 C   0  0  0  1  0  0  0  0  0  0  0  0
   27.4709    2.2983  -59.0154 C   0  0  0  1  0  0  0  0  0  0  0  0
   23.5374    2.6151  -67.1648 C   0  0  0  1  0  0  0  0  0  0  0  0
   22.3831    3.6486  -67.2815 C   0  0  0  1  0  0  0  0  0  0  0  0
   21.5191    3.2440  -68.4944 C   0  0  0  1  0  0  0  0  0  0  0  0
   21.5315    1.0754  -69.8069 C   0  0  0  1  0  0  0  0  0  0  0  0
   25.8296    1.1707  -66.2747 N   0  0  0  1  0  0  0  0  0  0  0  0
   27.2964    0.4857  -64.5857 C   0  0  0  1  0  0  0  0  0  0  0  0
   26.4937    1.1852  -63.6614 C   0  0  0  1  0  0  0  0  0  0  0  0
   27.0810    1.0061  -62.4395 N   0  0  0  1  0  0  0  0  0  0  0  0
   28.3158   -0.0766  -63.9004 N   0  0  0  1  0  0  0  0  0  0  0  0
   28.2164    0.2092  -62.6490 N   0  0  0  1  0  0  0  0  0  0  0  0
   25.9759    2.6058  -57.2495 O   0  0  0  1  0  0  0  0  0  0  0  0
   24.0074    2.4762  -65.7837 N   0  0  0  1  0  0  0  0  0  0  0  0
   24.6240    2.5904  -56.7652 C   0  0  0  1  0  0  0  0  0  0  0  0
   21.9246    1.8295  -68.7297 N   0  0  0  1  0  0  0  0  0  0  0  0
   22.8039    1.3500  -67.6507 C   0  0  0  1  0  0  0  0  0  0  0  0
   22.0157   -0.1959  -70.0541 C   0  0  0  1  0  0  0  0  0  0  0  0
   21.5555   -0.8781  -71.1642 C   0  0  0  1  0  0  0  0  0  0  0  0
   20.6634   -0.3713  -72.0205 N   0  0  0  1  0  0  0  0  0  0  0  0
   20.2057    0.8639  -71.7712 C   0  0  0  1  0  0  0  0  0  0  0  0
   20.6094    1.6158  -70.6818 C   0  0  0  1  0  0  0  0  0  0  0  0
   27.4788    0.0014  -66.6491 H   0  0  0  1  0  0  0  0  0  0  0  0
   28.7211    1.9698  -60.6809 H   0  0  0  1  0  0  0  0  0  0  0  0
   24.1823    1.7232  -58.9939 H   0  0  0  1  0  0  0  0  0  0  0  0
   24.6659    1.0548  -61.2713 H   0  0  0  1  0  0  0  0  0  0  0  0
   28.2367    2.6394  -58.3998 H   0  0  0  1  0  0  0  0  0  0  0  0
   24.3618    2.8657  -67.7992 H   0  0  0  1  0  0  0  0  0  0  0  0
   22.7846    4.6293  -67.4301 H   0  0  0  1  0  0  0  0  0  0  0  0
   21.7906    3.6365  -66.3907 H   0  0  0  1  0  0  0  0  0  0  0  0
   20.4763    3.3130  -68.2648 H   0  0  0  1  0  0  0  0  0  0  0  0
   21.7388    3.8546  -69.3451 H   0  0  0  1  0  0  0  0  0  0  0  0
   23.4691    2.9090  -65.0884 H   0  0  0  1  0  0  0  0  0  0  0  0
   24.6081    2.8981  -55.7406 H   0  0  0  1  0  0  0  0  0  0  0  0
   24.2278    1.5997  -56.8459 H   0  0  0  1  0  0  0  0  0  0  0  0
   24.0288    3.2617  -57.3483 H   0  0  0  1  0  0  0  0  0  0  0  0
   23.5004    0.6277  -68.0225 H   0  0  0  1  0  0  0  0  0  0  0  0
   22.2296    0.9174  -66.8583 H   0  0  0  1  0  0  0  0  0  0  0  0
   22.7130   -0.6304  -69.4165 H   0  0  0  1  0  0  0  0  0  0  0  0
   21.9223   -1.8348  -71.3424 H   0  0  0  1  0  0  0  0  0  0  0  0
   19.5137    1.2771  -72.4284 H   0  0  0  1  0  0  0  0  0  0  0  0
   20.2258    2.5696  -70.5248 H   0  0  0  1  0  0  0  0  0  0  0  0
  1  3  4  0  0  0  0
  1 14  4  0  0  0  0
  1 21  1  0  0  0  0
  2 14  4  0  0  0  0
  2 15  4  0  0  0  0
  2 30  1  0  0  0  0
  3 16  4  0  0  0  0
  4  5  4  0  0  0  0
  4  7  4  0  0  0  0
  4 17  1  0  0  0  0
  5  9  4  0  0  0  0
  5 31  1  0  0  0  0
  6  7  4  0  0  0  0
  6  8  4  0  0  0  0
  6 32  1  0  0  0  0
  7 33  1  0  0  0  0
  8  9  4  0  0  0  0
  8 20  1  0  0  0  0
  9 34  1  0  0  0  0
 10 11  1  0  0  0  0
 10 21  1  0  0  0  0
 10 24  1  0  0  0  0
 10 35  1  0  0  0  0
 11 12  1  0  0  0  0
 11 36  1  0  0  0  0
 11 37  1  0  0  0  0
 12 23  1  0  0  0  0
 12 38  1  0  0  0  0
 12 39  1  0  0  0  0
 13 23  1  0  0  0  0
 13 25  4  0  0  0  0
 13 29  4  0  0  0  0
 15 16  4  0  0  0  0
 15 18  4  0  0  0  0
 16 17  4  0  0  0  0
 17 19  4  0  0  0  0
 18 19  4  0  0  0  0
 20 22  1  0  0  0  0
 21 40  1  0  0  0  0
 22 41  1  0  0  0  0
 22 42  1  0  0  0  0
 22 43  1  0  0  0  0
 23 24  1  0  0  0  0
 24 44  1  0  0  0  0
 24 45  1  0  0  0  0
 25 26  4  0  0  0  0
 25 46  1  0  0  0  0
 26 27  4  0  0  0  0
 26 47  1  0  0  0  0
 27 28  4  0  0  0  0
 28 29  4  0  0  0  0
 28 48  1  0  0  0  0
 29 49  1  0  0  0  0
M  END
> <ConfClashScore>
0 

> <ConfOneFourInteractionScore>
-0.984874 

> <ConfScore>
0.00459899 

> <ConfScorePBest>
0.00389978 

> <ConfTolerance>
0.378202 

> <HETNAM>
     OWQ A 303  OWQ                                                       

> <pdb_OW>
Q_303 -16.5129 3.80749 7.62812 0.15963 1.39178 -0.28144 -3.20151 0 0 0 -1.30514 0 0 0 0 0 0 0 0 -8.31393

$$$$
6yky_lig_1.pdb
 OpenBabel04162415593D

 49 53  0  0  0  0  0  0  0  0999 V2000
   25.1049    1.8136  -65.3760 C   0  0  0  1  0  0  0  0  0  0  0  0
   26.9167    0.5034  -65.9326 C   0  0  0  1  0  0  0  0  0  0  0  0
   25.4179    1.8285  -64.0982 N   0  0  0  1  0  0  0  0  0  0  0  0
   26.7287    1.4700  -61.1391 C   0  0  0  1  0  0  0  0  0  0  0  0
   26.3561    0.5683  -60.1602 C   0  0  0  1  0  0  0  0  0  0  0  0
   26.2458    3.2874  -59.6520 C   0  0  0  1  0  0  0  0  0  0  0  0
   26.6709    2.8317  -60.8857 C   0  0  0  1  0  0  0  0  0  0  0  0
   25.8721    2.3831  -58.6700 C   0  0  0  1  0  0  0  0  0  0  0  0
   25.9297    1.0256  -58.9230 C   0  0  0  1  0  0  0  0  0  0  0  0
   23.7555    2.6001  -67.2798 C   0  0  0  1  0  0  0  0  0  0  0  0
   22.9515    3.8830  -67.5872 C   0  0  0  1  0  0  0  0  0  0  0  0
   21.9328    3.5382  -68.6441 C   0  0  0  1  0  0  0  0  0  0  0  0
   21.0915    1.1944  -69.3523 C   0  0  0  1  0  0  0  0  0  0  0  0
   25.8297    1.1708  -66.2748 N   0  0  0  1  0  0  0  0  0  0  0  0
   27.2965    0.4858  -64.5857 C   0  0  0  1  0  0  0  0  0  0  0  0
   26.4937    1.1853  -63.6614 C   0  0  0  1  0  0  0  0  0  0  0  0
   27.0810    1.0063  -62.4395 N   0  0  0  1  0  0  0  0  0  0  0  0
   28.3159   -0.0766  -63.9004 N   0  0  0  1  0  0  0  0  0  0  0  0
   28.2164    0.2092  -62.6490 N   0  0  0  1  0  0  0  0  0  0  0  0
   25.4688    2.9459  -57.5063 O   0  0  0  1  0  0  0  0  0  0  0  0
   24.0036    2.4665  -65.8551 N   0  0  0  1  0  0  0  0  0  0  0  0
   25.1752    2.0588  -56.4156 C   0  0  0  1  0  0  0  0  0  0  0  0
   21.9544    1.9950  -68.5894 N   0  0  0  1  0  0  0  0  0  0  0  0
   22.8364    1.5029  -67.7797 C   0  0  0  1  0  0  0  0  0  0  0  0
   20.3304    1.8535  -70.3000 C   0  0  0  1  0  0  0  0  0  0  0  0
   19.4639    1.1176  -71.0856 C   0  0  0  1  0  0  0  0  0  0  0  0
   19.3177   -0.2064  -70.9768 N   0  0  0  1  0  0  0  0  0  0  0  0
   20.0585   -0.8319  -70.0510 C   0  0  0  1  0  0  0  0  0  0  0  0
   20.9530   -0.1739  -69.2250 C   0  0  0  1  0  0  0  0  0  0  0  0
   27.4789    0.0013  -66.6492 H   0  0  0  1  0  0  0  0  0  0  0  0
   26.3957   -0.4531  -60.3518 H   0  0  0  1  0  0  0  0  0  0  0  0
   26.2063    4.3088  -59.4604 H   0  0  0  1  0  0  0  0  0  0  0  0
   26.9475    3.5102  -61.6237 H   0  0  0  1  0  0  0  0  0  0  0  0
   25.6532    0.3470  -58.1850 H   0  0  0  1  0  0  0  0  0  0  0  0
   24.6867    2.5931  -67.8067 H   0  0  0  1  0  0  0  0  0  0  0  0
   22.4574    4.2251  -66.7018 H   0  0  0  1  0  0  0  0  0  0  0  0
   23.6075    4.6474  -67.9479 H   0  0  0  1  0  0  0  0  0  0  0  0
   22.2285    3.9005  -69.6065 H   0  0  0  1  0  0  0  0  0  0  0  0
   20.9662    3.9257  -68.3983 H   0  0  0  1  0  0  0  0  0  0  0  0
   23.3650    2.8544  -65.2209 H   0  0  0  1  0  0  0  0  0  0  0  0
   24.2991    1.4888  -56.6447 H   0  0  0  1  0  0  0  0  0  0  0  0
   25.0062    2.6303  -55.5269 H   0  0  0  1  0  0  0  0  0  0  0  0
   26.0015    1.3965  -56.2625 H   0  0  0  1  0  0  0  0  0  0  0  0
   22.3391    1.0515  -66.9468 H   0  0  0  1  0  0  0  0  0  0  0  0
   23.4149    0.7639  -68.2936 H   0  0  0  1  0  0  0  0  0  0  0  0
   20.4086    2.8837  -70.4193 H   0  0  0  1  0  0  0  0  0  0  0  0
   18.8965    1.6197  -71.7981 H   0  0  0  1  0  0  0  0  0  0  0  0
   19.9560   -1.8619  -69.9484 H   0  0  0  1  0  0  0  0  0  0  0  0
   21.5104   -0.6997  -68.5218 H   0  0  0  1  0  0  0  0  0  0  0  0
  1  3  4  0  0  0  0
  1 14  4  0  0  0  0
  1 21  1  0  0  0  0
  2 14  4  0  0  0  0
  2 15  4  0  0  0  0
  2 30  1  0  0  0  0
  3 16  4  0  0  0  0
  4  5  4  0  0  0  0
  4  7  4  0  0  0  0
  4 17  1  0  0  0  0
  5  9  4  0  0  0  0
  5 31  1  0  0  0  0
  6  7  4  0  0  0  0
  6  8  4  0  0  0  0
  6 32  1  0  0  0  0
  7 33  1  0  0  0  0
  8  9  4  0  0  0  0
  8 20  1  0  0  0  0
  9 34  1  0  0  0  0
 10 11  1  0  0  0  0
 10 21  1  0  0  0  0
 10 24  1  0  0  0  0
 10 35  1  0  0  0  0
 11 12  1  0  0  0  0
 11 36  1  0  0  0  0
 11 37  1  0  0  0  0
 12 23  1  0  0  0  0
 12 38  1  0  0  0  0
 12 39  1  0  0  0  0
 13 23  1  0  0  0  0
 13 25  4  0  0  0  0
 13 29  4  0  0  0  0
 15 16  4  0  0  0  0
 15 18  4  0  0  0  0
 16 17  4  0  0  0  0
 17 19  4  0  0  0  0
 18 19  4  0  0  0  0
 20 22  1  0  0  0  0
 21 40  1  0  0  0  0
 22 41  1  0  0  0  0
 22 42  1  0  0  0  0
 22 43  1  0  0  0  0
 23 24  1  0  0  0  0
 24 44  1  0  0  0  0
 24 45  1  0  0  0  0
 25 26  4  0  0  0  0
 25 46  1  0  0  0  0
 26 27  4  0  0  0  0
 26 47  1  0  0  0  0
 27 28  4  0  0  0  0
 28 29  4  0  0  0  0
 28 48  1  0  0  0  0
 29 49  1  0  0  0  0
M  END
> <ConfClashScore>
0 

> <ConfOneFourInteractionScore>
-0.984874 

> <ConfScore>
0.00560399 

> <ConfScorePBest>
0.00388645 

> <ConfTolerance>
0.449506 

> <HETNAM>
     OWQ A 303  OWQ                                                       

> <pdb_OW>
Q_303 -16.5129 3.80749 7.62812 0.15963 1.39178 -0.28144 -3.20151 0 0 0 -1.30514 0 0 0 0 0 0 0 0 -8.31393

$$$$
6yky_lig_1.pdb
 OpenBabel04162415593D

 49 53  0  0  0  0  0  0  0  0999 V2000
   25.1048    1.8135  -65.3760 C   0  0  0  1  0  0  0  0  0  0  0  0
   26.9167    0.5034  -65.9325 C   0  0  0  1  0  0  0  0  0  0  0  0
   25.4178    1.8282  -64.0982 N   0  0  0  1  0  0  0  0  0  0  0  0
   26.7286    1.4698  -61.1390 C   0  0  0  1  0  0  0  0  0  0  0  0
   26.3458    0.5689  -60.1633 C   0  0  0  1  0  0  0  0  0  0  0  0
   26.2560    3.2875  -59.6492 C   0  0  0  1  0  0  0  0  0  0  0  0
   26.6810    2.8312  -60.8827 C   0  0  0  1  0  0  0  0  0  0  0  0
   25.8721    2.3841  -58.6705 C   0  0  0  1  0  0  0  0  0  0  0  0
   25.9194    1.0268  -58.9263 C   0  0  0  1  0  0  0  0  0  0  0  0
   23.5008    2.5841  -67.1039 C   0  0  0  1  0  0  0  0  0  0  0  0
   22.5470    3.7948  -67.3004 C   0  0  0  1  0  0  0  0  0  0  0  0
   21.5766    3.4397  -68.4464 C   0  0  0  1  0  0  0  0  0  0  0  0
   21.1416    1.1815  -69.5397 C   0  0  0  1  0  0  0  0  0  0  0  0
   25.8297    1.1707  -66.2748 N   0  0  0  1  0  0  0  0  0  0  0  0
   27.2965    0.4858  -64.5857 C   0  0  0  1  0  0  0  0  0  0  0  0
   26.4937    1.1851  -63.6614 C   0  0  0  1  0  0  0  0  0  0  0  0
   27.0808    1.0061  -62.4395 N   0  0  0  1  0  0  0  0  0  0  0  0
   28.3159   -0.0766  -63.9004 N   0  0  0  1  0  0  0  0  0  0  0  0
   28.2164    0.2092  -62.6490 N   0  0  0  1  0  0  0  0  0  0  0  0
   25.4372    2.7100  -57.4378 O   0  0  0  1  0  0  0  0  0  0  0  0
   23.9889    2.4966  -65.7386 N   0  0  0  1  0  0  0  0  0  0  0  0
   25.2080    4.1221  -57.2228 C   0  0  0  1  0  0  0  0  0  0  0  0
   21.7119    1.9588  -68.5446 N   0  0  0  1  0  0  0  0  0  0  0  0
   22.5332    1.4333  -67.4418 C   0  0  0  1  0  0  0  0  0  0  0  0
   21.7328    1.0868  -70.7860 C   0  0  0  1  0  0  0  0  0  0  0  0
   21.1324    0.2972  -71.7481 C   0  0  0  1  0  0  0  0  0  0  0  0
   20.0011   -0.3830  -71.5394 N   0  0  0  1  0  0  0  0  0  0  0  0
   19.4364   -0.2787  -70.3280 C   0  0  0  1  0  0  0  0  0  0  0  0
   19.9714    0.4858  -69.3060 C   0  0  0  1  0  0  0  0  0  0  0  0
   27.4790    0.0014  -66.6492 H   0  0  0  1  0  0  0  0  0  0  0  0
   26.3776   -0.4524  -60.3571 H   0  0  0  1  0  0  0  0  0  0  0  0
   26.2241    4.3089  -59.4554 H   0  0  0  1  0  0  0  0  0  0  0  0
   26.9653    3.5092  -61.6183 H   0  0  0  1  0  0  0  0  0  0  0  0
   25.6353    0.3488  -58.1907 H   0  0  0  1  0  0  0  0  0  0  0  0
   24.3307    2.6175  -67.7784 H   0  0  0  1  0  0  0  0  0  0  0  0
   21.9982    3.9773  -66.4003 H   0  0  0  1  0  0  0  0  0  0  0  0
   23.1118    4.6667  -67.5573 H   0  0  0  1  0  0  0  0  0  0  0  0
   20.5731    3.7197  -68.2025 H   0  0  0  1  0  0  0  0  0  0  0  0
   21.8681    3.9149  -69.3596 H   0  0  0  1  0  0  0  0  0  0  0  0
   23.4827    2.9579  -65.0375 H   0  0  0  1  0  0  0  0  0  0  0  0
   25.8784    4.6897  -57.8337 H   0  0  0  1  0  0  0  0  0  0  0  0
   25.3777    4.3580  -56.1931 H   0  0  0  1  0  0  0  0  0  0  0  0
   24.1983    4.3629  -57.4827 H   0  0  0  1  0  0  0  0  0  0  0  0
   21.9228    1.1915  -66.5969 H   0  0  0  1  0  0  0  0  0  0  0  0
   23.0733    0.5636  -67.7529 H   0  0  0  1  0  0  0  0  0  0  0  0
   22.6127    1.6002  -70.9953 H   0  0  0  1  0  0  0  0  0  0  0  0
   21.5841    0.2288  -72.6825 H   0  0  0  1  0  0  0  0  0  0  0  0
   18.5534   -0.7977  -70.1476 H   0  0  0  1  0  0  0  0  0  0  0  0
   19.5011    0.5358  -68.3798 H   0  0  0  1  0  0  0  0  0  0  0  0
  1  3  4  0  0  0  0
  1 14  4  0  0  0  0
  1 21  1  0  0  0  0
  2 14  4  0  0  0  0
  2 15  4  0  0  0  0
  2 30  1  0  0  0  0
  3 16  4  0  0  0  0
  4  5  4  0  0  0  0
  4  7  4  0  0  0  0
  4 17  1  0  0  0  0
  5  9  4  0  0  0  0
  5 31  1  0  0  0  0
  6  7  4  0  0  0  0
  6  8  4  0  0  0  0
  6 32  1  0  0  0  0
  7 33  1  0  0  0  0
  8  9  4  0  0  0  0
  8 20  1  0  0  0  0
  9 34  1  0  0  0  0
 10 11  1  0  0  0  0
 10 21  1  0  0  0  0
 10 24  1  0  0  0  0
 10 35  1  0  0  0  0
 11 12  1  0  0  0  0
 11 36  1  0  0  0  0
 11 37  1  0  0  0  0
 12 23  1  0  0  0  0
 12 38  1  0  0  0  0
 12 39  1  0  0  0  0
 13 23  1  0  0  0  0
 13 25  4  0  0  0  0
 13 29  4  0  0  0  0
 15 16  4  0  0  0  0
 15 18  4  0  0  0  0
 16 17  4  0  0  0  0
 17 19  4  0  0  0  0
 18 19  4  0  0  0  0
 20 22  1  0  0  0  0
 21 40  1  0  0  0  0
 22 41  1  0  0  0  0
 22 42  1  0  0  0  0
 22 43  1  0  0  0  0
 23 24  1  0  0  0  0
 24 44  1  0  0  0  0
 24 45  1  0  0  0  0
 25 26  4  0  0  0  0
 25 46  1  0  0  0  0
 26 27  4  0  0  0  0
 26 47  1  0  0  0  0
 27 28  4  0  0  0  0
 28 29  4  0  0  0  0
 28 48  1  0  0  0  0
 29 49  1  0  0  0  0
M  END
> <ConfClashScore>
0 

> <ConfOneFourInteractionScore>
-0.986948 

> <ConfScore>
0.00663311 

> <ConfScorePBest>
0.00387312 

> <ConfTolerance>
0.477927 

> <HETNAM>
     OWQ A 303  OWQ                                                       

> <pdb_OW>
Q_303 -16.5129 3.80749 7.62812 0.15963 1.39178 -0.28144 -3.20151 0 0 0 -1.30514 0 0 0 0 0 0 0 0 -8.31393

$$$$
6yky_lig_1.pdb
 OpenBabel04162415593D

 49 53  0  0  0  0  0  0  0  0999 V2000
   25.1048    1.8136  -65.3760 C   0  0  0  1  0  0  0  0  0  0  0  0
   26.9167    0.5034  -65.9326 C   0  0  0  1  0  0  0  0  0  0  0  0
   25.4178    1.8284  -64.0983 N   0  0  0  1  0  0  0  0  0  0  0  0
   26.6855    1.4950  -61.1608 C   0  0  0  1  0  0  0  0  0  0  0  0
   27.2538    2.6489  -60.6551 C   0  0  0  1  0  0  0  0  0  0  0  0
   25.4808    1.1874  -59.1111 C   0  0  0  1  0  0  0  0  0  0  0  0
   25.7998    0.7617  -60.3867 C   0  0  0  1  0  0  0  0  0  0  0  0
   26.0506    2.3447  -58.6038 C   0  0  0  1  0  0  0  0  0  0  0  0
   26.9338    3.0757  -59.3757 C   0  0  0  1  0  0  0  0  0  0  0  0
   23.1365    3.2101  -64.8033 C   0  0  0  1  0  0  0  0  0  0  0  0
   21.9708    2.3360  -64.3508 C   0  0  0  1  0  0  0  0  0  0  0  0
   20.9755    2.4420  -65.5051 C   0  0  0  1  0  0  0  0  0  0  0  0
   20.3545    4.4681  -66.9285 C   0  0  0  1  0  0  0  0  0  0  0  0
   25.8296    1.1707  -66.2747 N   0  0  0  1  0  0  0  0  0  0  0  0
   27.2964    0.4857  -64.5857 C   0  0  0  1  0  0  0  0  0  0  0  0
   26.4937    1.1852  -63.6614 C   0  0  0  1  0  0  0  0  0  0  0  0
   27.0809    1.0061  -62.4395 N   0  0  0  1  0  0  0  0  0  0  0  0
   28.3159   -0.0766  -63.9004 N   0  0  0  1  0  0  0  0  0  0  0  0
   28.2164    0.2092  -62.6490 N   0  0  0  1  0  0  0  0  0  0  0  0
   25.8198    2.8544  -57.3742 O   0  0  0  1  0  0  0  0  0  0  0  0
   23.9888    2.4967  -65.7386 N   0  0  0  1  0  0  0  0  0  0  0  0
   24.8912    2.1959  -56.4987 C   0  0  0  1  0  0  0  0  0  0  0  0
   21.2132    3.8038  -66.0219 N   0  0  0  1  0  0  0  0  0  0  0  0
   22.4503    4.3873  -65.4806 C   0  0  0  1  0  0  0  0  0  0  0  0
   20.5828    5.7862  -67.2785 C   0  0  0  1  0  0  0  0  0  0  0  0
   19.7214    6.3957  -68.1708 C   0  0  0  1  0  0  0  0  0  0  0  0
   18.6696    5.7771  -68.7162 N   0  0  0  1  0  0  0  0  0  0  0  0
   18.4578    4.5008  -68.3647 C   0  0  0  1  0  0  0  0  0  0  0  0
   19.2717    3.8130  -67.4817 C   0  0  0  1  0  0  0  0  0  0  0  0
   27.4788    0.0014  -66.6491 H   0  0  0  1  0  0  0  0  0  0  0  0
   27.9214    3.1969  -61.2345 H   0  0  0  1  0  0  0  0  0  0  0  0
   24.8132    0.6393  -58.5318 H   0  0  0  1  0  0  0  0  0  0  0  0
   25.3753   -0.1088  -60.7659 H   0  0  0  1  0  0  0  0  0  0  0  0
   27.3583    3.9462  -58.9966 H   0  0  0  1  0  0  0  0  0  0  0  0
   23.7185    3.5356  -63.9665 H   0  0  0  1  0  0  0  0  0  0  0  0
   21.5441    2.7079  -63.4429 H   0  0  0  1  0  0  0  0  0  0  0  0
   22.2851    1.3230  -64.2091 H   0  0  0  1  0  0  0  0  0  0  0  0
   19.9696    2.3327  -65.1571 H   0  0  0  1  0  0  0  0  0  0  0  0
   21.1760    1.7055  -66.2550 H   0  0  0  1  0  0  0  0  0  0  0  0
   23.7439    2.5094  -66.6873 H   0  0  0  1  0  0  0  0  0  0  0  0
   25.3372    1.3041  -56.1105 H   0  0  0  1  0  0  0  0  0  0  0  0
   24.0055    1.9434  -57.0434 H   0  0  0  1  0  0  0  0  0  0  0  0
   24.6391    2.8494  -55.6899 H   0  0  0  1  0  0  0  0  0  0  0  0
   22.2305    5.1594  -64.7731 H   0  0  0  1  0  0  0  0  0  0  0  0
   23.0600    4.7846  -66.2651 H   0  0  0  1  0  0  0  0  0  0  0  0
   21.3875    6.3090  -66.8777 H   0  0  0  1  0  0  0  0  0  0  0  0
   19.9008    7.3864  -68.4313 H   0  0  0  1  0  0  0  0  0  0  0  0
   17.6421    4.0035  -68.7756 H   0  0  0  1  0  0  0  0  0  0  0  0
   19.0718    2.8215  -67.2393 H   0  0  0  1  0  0  0  0  0  0  0  0
  1  3  4  0  0  0  0
  1 14  4  0  0  0  0
  1 21  1  0  0  0  0
  2 14  4  0  0  0  0
  2 15  4  0  0  0  0
  2 30  1  0  0  0  0
  3 16  4  0  0  0  0
  4  5  4  0  0  0  0
  4  7  4  0  0  0  0
  4 17  1  0  0  0  0
  5  9  4  0  0  0  0
  5 31  1  0  0  0  0
  6  7  4  0  0  0  0
  6  8  4  0  0  0  0
  6 32  1  0  0  0  0
  7 33  1  0  0  0  0
  8  9  4  0  0  0  0
  8 20  1  0  0  0  0
  9 34  1  0  0  0  0
 10 11  1  0  0  0  0
 10 21  1  0  0  0  0
 10 24  1  0  0  0  0
 10 35  1  0  0  0  0
 11 12  1  0  0  0  0
 11 36  1  0  0  0  0
 11 37  1  0  0  0  0
 12 23  1  0  0  0  0
 12 38  1  0  0  0  0
 12 39  1  0  0  0  0
 13 23  1  0  0  0  0
 13 25  4  0  0  0  0
 13 29  4  0  0  0  0
 15 16  4  0  0  0  0
 15 18  4  0  0  0  0
 16 17  4  0  0  0  0
 17 19  4  0  0  0  0
 18 19  4  0  0  0  0
 20 22  1  0  0  0  0
 21 40  1  0  0  0  0
 22 41  1  0  0  0  0
 22 42  1  0  0  0  0
 22 43  1  0  0  0  0
 23 24  1  0  0  0  0
 24 44  1  0  0  0  0
 24 45  1  0  0  0  0
 25 26  4  0  0  0  0
 25 46  1  0  0  0  0
 26 27  4  0  0  0  0
 26 47  1  0  0  0  0
 27 28  4  0  0  0  0
 28 29  4  0  0  0  0
 28 48  1  0  0  0  0
 29 49  1  0  0  0  0
M  END
> <ConfClashScore>
0 

> <ConfOneFourInteractionScore>
-0.991755 

> <ConfScore>
0.00682216 

> <ConfScorePBest>
0.0038598 

> <ConfTolerance>
0.638654 

> <HETNAM>
     OWQ A 303  OWQ                                                       

> <pdb_OW>
Q_303 -16.5129 3.80749 7.62812 0.15963 1.39178 -0.28144 -3.20151 0 0 0 -1.30514 0 0 0 0 0 0 0 0 -8.31393

$$$$
6yky_lig_1.pdb
 OpenBabel04162415593D

 49 53  0  0  0  0  0  0  0  0999 V2000
   25.1048    1.8136  -65.3760 C   0  0  0  1  0  0  0  0  0  0  0  0
   26.9167    0.5034  -65.9326 C   0  0  0  1  0  0  0  0  0  0  0  0
   25.4179    1.8284  -64.0983 N   0  0  0  1  0  0  0  0  0  0  0  0
   26.7286    1.4700  -61.1390 C   0  0  0  1  0  0  0  0  0  0  0  0
   25.5943    0.9857  -60.5155 C   0  0  0  1  0  0  0  0  0  0  0  0
   27.0845    2.9880  -59.3181 C   0  0  0  1  0  0  0  0  0  0  0  0
   27.4734    2.4745  -60.5409 C   0  0  0  1  0  0  0  0  0  0  0  0
   25.9468    2.5024  -58.6923 C   0  0  0  1  0  0  0  0  0  0  0  0
   25.2044    1.5008  -59.2890 C   0  0  0  1  0  0  0  0  0  0  0  0
   23.1089    3.0811  -64.7685 C   0  0  0  1  0  0  0  0  0  0  0  0
   22.3367    1.9856  -64.0003 C   0  0  0  1  0  0  0  0  0  0  0  0
   20.9292    2.4844  -63.7903 C   0  0  0  1  0  0  0  0  0  0  0  0
   19.6905    4.4176  -65.0309 C   0  0  0  1  0  0  0  0  0  0  0  0
   25.8297    1.1707  -66.2747 N   0  0  0  1  0  0  0  0  0  0  0  0
   27.2965    0.4857  -64.5857 C   0  0  0  1  0  0  0  0  0  0  0  0
   26.4937    1.1853  -63.6614 C   0  0  0  1  0  0  0  0  0  0  0  0
   27.0810    1.0062  -62.4395 N   0  0  0  1  0  0  0  0  0  0  0  0
   28.3159   -0.0766  -63.9004 N   0  0  0  1  0  0  0  0  0  0  0  0
   28.2164    0.2092  -62.6490 N   0  0  0  1  0  0  0  0  0  0  0  0
   25.6658    3.0776  -57.5175 O   0  0  0  1  0  0  0  0  0  0  0  0
   23.9766    2.4951  -65.7952 N   0  0  0  1  0  0  0  0  0  0  0  0
   26.6040    3.9988  -56.8662 C   0  0  0  1  0  0  0  0  0  0  0  0
   20.8749    3.6590  -64.7915 N   0  0  0  1  0  0  0  0  0  0  0  0
   21.9952    3.8970  -65.3949 C   0  0  0  1  0  0  0  0  0  0  0  0
   19.4377    5.5741  -64.3167 C   0  0  0  1  0  0  0  0  0  0  0  0
   18.2803    6.2805  -64.5834 C   0  0  0  1  0  0  0  0  0  0  0  0
   17.3831    5.9023  -65.4991 N   0  0  0  1  0  0  0  0  0  0  0  0
   17.6388    4.7769  -66.1811 C   0  0  0  1  0  0  0  0  0  0  0  0
   18.7740    4.0109  -65.9809 C   0  0  0  1  0  0  0  0  0  0  0  0
   27.4789    0.0013  -66.6491 H   0  0  0  1  0  0  0  0  0  0  0  0
   25.0334    0.2348  -60.9662 H   0  0  0  1  0  0  0  0  0  0  0  0
   27.6454    3.7388  -58.8672 H   0  0  0  1  0  0  0  0  0  0  0  0
   28.3247    2.8417  -61.0121 H   0  0  0  1  0  0  0  0  0  0  0  0
   24.3530    1.1336  -58.8178 H   0  0  0  1  0  0  0  0  0  0  0  0
   23.6963    3.6779  -64.1024 H   0  0  0  1  0  0  0  0  0  0  0  0
   22.8044    1.8037  -63.0554 H   0  0  0  1  0  0  0  0  0  0  0  0
   22.3218    1.0808  -64.5715 H   0  0  0  1  0  0  0  0  0  0  0  0
   20.7778    2.8188  -62.7852 H   0  0  0  1  0  0  0  0  0  0  0  0
   20.2069    1.7321  -64.0292 H   0  0  0  1  0  0  0  0  0  0  0  0
   23.7639    2.5834  -66.7478 H   0  0  0  1  0  0  0  0  0  0  0  0
   26.9102    4.7495  -57.5644 H   0  0  0  1  0  0  0  0  0  0  0  0
   27.4614    3.4549  -56.5288 H   0  0  0  1  0  0  0  0  0  0  0  0
   26.1245    4.4639  -56.0303 H   0  0  0  1  0  0  0  0  0  0  0  0
   21.9029    3.6348  -66.4282 H   0  0  0  1  0  0  0  0  0  0  0  0
   22.2285    4.9378  -65.3100 H   0  0  0  1  0  0  0  0  0  0  0  0
   20.1061    5.9063  -63.5924 H   0  0  0  1  0  0  0  0  0  0  0  0
   18.0980    7.1508  -64.0440 H   0  0  0  1  0  0  0  0  0  0  0  0
   16.9506    4.4642  -66.8953 H   0  0  0  1  0  0  0  0  0  0  0  0
   18.9339    3.1456  -66.5352 H   0  0  0  1  0  0  0  0  0  0  0  0
  1  3  4  0  0  0  0
  1 14  4  0  0  0  0
  1 21  1  0  0  0  0
  2 14  4  0  0  0  0
  2 15  4  0  0  0  0
  2 30  1  0  0  0  0
  3 16  4  0  0  0  0
  4  5  4  0  0  0  0
  4  7  4  0  0  0  0
  4 17  1  0  0  0  0
  5  9  4  0  0  0  0
  5 31  1  0  0  0  0
  6  7  4  0  0  0  0
  6  8  4  0  0  0  0
  6 32  1  0  0  0  0
  7 33  1  0  0  0  0
  8  9  4  0  0  0  0
  8 20  1  0  0  0  0
  9 34  1  0  0  0  0
 10 11  1  0  0  0  0
 10 21  1  0  0  0  0
 10 24  1  0  0  0  0
 10 35  1  0  0  0  0
 11 12  1  0  0  0  0
 11 36  1  0  0  0  0
 11 37  1  0  0  0  0
 12 23  1  0  0  0  0
 12 38  1  0  0  0  0
 12 39  1  0  0  0  0
 13 23  1  0  0  0  0
 13 25  4  0  0  0  0
 13 29  4  0  0  0  0
 15 16  4  0  0  0  0
 15 18  4  0  0  0  0
 16 17  4  0  0  0  0
 17 19  4  0  0  0  0
 18 19  4  0  0  0  0
 20 22  1  0  0  0  0
 21 40  1  0  0  0  0
 22 41  1  0  0  0  0
 22 42  1  0  0  0  0
 22 43  1  0  0  0  0
 23 24  1  0  0  0  0
 24 44  1  0  0  0  0
 24 45  1  0  0  0  0
 25 26  4  0  0  0  0
 25 46  1  0  0  0  0
 26 27  4  0  0  0  0
 26 47  1  0  0  0  0
 27 28  4  0  0  0  0
 28 29  4  0  0  0  0
 28 48  1  0  0  0  0
 29 49  1  0  0  0  0
M  END
> <ConfClashScore>
0 

> <ConfOneFourInteractionScore>
-0.984874 

> <ConfScore>
0.00693003 

> <ConfScorePBest>
0.00384647 

> <ConfTolerance>
0.433494 

> <HETNAM>
     OWQ A 303  OWQ                                                       

> <pdb_OW>
Q_303 -16.5129 3.80749 7.62812 0.15963 1.39178 -0.28144 -3.20151 0 0 0 -1.30514 0 0 0 0 0 0 0 0 -8.31393

$$$$
6yky_lig_1.pdb
 OpenBabel04162415593D

 49 53  0  0  0  0  0  0  0  0999 V2000
   25.1047    1.8135  -65.3760 C   0  0  0  1  0  0  0  0  0  0  0  0
   26.9167    0.5034  -65.9326 C   0  0  0  1  0  0  0  0  0  0  0  0
   25.4178    1.8283  -64.0982 N   0  0  0  1  0  0  0  0  0  0  0  0
   26.6375    1.3733  -61.1361 C   0  0  0  1  0  0  0  0  0  0  0  0
   26.2962    0.3959  -60.2204 C   0  0  0  1  0  0  0  0  0  0  0  0
   25.9485    3.0683  -59.5871 C   0  0  0  1  0  0  0  0  0  0  0  0
   26.4609    2.7113  -60.8201 C   0  0  0  1  0  0  0  0  0  0  0  0
   25.6061    2.0882  -58.6685 C   0  0  0  1  0  0  0  0  0  0  0  0
   25.7822    0.7540  -58.9838 C   0  0  0  1  0  0  0  0  0  0  0  0
   23.1044    3.1763  -64.8869 C   0  0  0  1  0  0  0  0  0  0  0  0
   22.2179    4.1781  -65.6597 C   0  0  0  1  0  0  0  0  0  0  0  0
   22.1191    5.4322  -64.8284 C   0  0  0  1  0  0  0  0  0  0  0  0
   23.6402    6.1795  -62.8711 C   0  0  0  1  0  0  0  0  0  0  0  0
   25.8296    1.1707  -66.2748 N   0  0  0  1  0  0  0  0  0  0  0  0
   27.2965    0.4857  -64.5857 C   0  0  0  1  0  0  0  0  0  0  0  0
   26.4936    1.1851  -63.6613 C   0  0  0  1  0  0  0  0  0  0  0  0
   27.0809    1.0060  -62.4394 N   0  0  0  1  0  0  0  0  0  0  0  0
   28.3159   -0.0766  -63.9004 N   0  0  0  1  0  0  0  0  0  0  0  0
   28.2164    0.2092  -62.6490 N   0  0  0  1  0  0  0  0  0  0  0  0
   25.0927    2.3156  -57.4363 O   0  0  0  1  0  0  0  0  0  0  0  0
   24.0074    2.4761  -65.7837 N   0  0  0  1  0  0  0  0  0  0  0  0
   24.8344    3.6814  -57.0749 C   0  0  0  1  0  0  0  0  0  0  0  0
   23.2715    5.2172  -63.8230 N   0  0  0  1  0  0  0  0  0  0  0  0
   23.8684    4.0738  -63.9334 C   0  0  0  1  0  0  0  0  0  0  0  0
   23.0607    6.3316  -61.6251 C   0  0  0  1  0  0  0  0  0  0  0  0
   23.5332    7.3252  -60.7890 C   0  0  0  1  0  0  0  0  0  0  0  0
   24.5257    8.1560  -61.1226 N   0  0  0  1  0  0  0  0  0  0  0  0
   25.0755    8.0000  -62.3353 C   0  0  0  1  0  0  0  0  0  0  0  0
   24.6668    7.0296  -63.2335 C   0  0  0  1  0  0  0  0  0  0  0  0
   27.4790    0.0014  -66.6492 H   0  0  0  1  0  0  0  0  0  0  0  0
   26.4249   -0.6081  -60.4591 H   0  0  0  1  0  0  0  0  0  0  0  0
   25.8198    4.0723  -59.3484 H   0  0  0  1  0  0  0  0  0  0  0  0
   26.7140    3.4466  -61.5107 H   0  0  0  1  0  0  0  0  0  0  0  0
   25.5292    0.0188  -58.2932 H   0  0  0  1  0  0  0  0  0  0  0  0
   22.5083    2.4655  -64.3536 H   0  0  0  1  0  0  0  0  0  0  0  0
   22.6612    4.4023  -66.6075 H   0  0  0  1  0  0  0  0  0  0  0  0
   21.2436    3.7624  -65.8107 H   0  0  0  1  0  0  0  0  0  0  0  0
   21.1736    5.5001  -64.3322 H   0  0  0  1  0  0  0  0  0  0  0  0
   22.2748    6.3090  -65.4216 H   0  0  0  1  0  0  0  0  0  0  0  0
   23.8052    2.4871  -66.7426 H   0  0  0  1  0  0  0  0  0  0  0  0
   24.2084    4.1344  -57.8150 H   0  0  0  1  0  0  0  0  0  0  0  0
   25.7597    4.2153  -57.0153 H   0  0  0  1  0  0  0  0  0  0  0  0
   24.3426    3.7118  -56.1250 H   0  0  0  1  0  0  0  0  0  0  0  0
   24.8587    4.2266  -64.3084 H   0  0  0  1  0  0  0  0  0  0  0  0
   23.9185    3.6069  -62.9719 H   0  0  0  1  0  0  0  0  0  0  0  0
   22.2838    5.7098  -61.3226 H   0  0  0  1  0  0  0  0  0  0  0  0
   23.0941    7.4322  -59.8524 H   0  0  0  1  0  0  0  0  0  0  0  0
   25.8466    8.6393  -62.6147 H   0  0  0  1  0  0  0  0  0  0  0  0
   25.1240    6.9421  -64.1635 H   0  0  0  1  0  0  0  0  0  0  0  0
  1  3  4  0  0  0  0
  1 14  4  0  0  0  0
  1 21  1  0  0  0  0
  2 14  4  0  0  0  0
  2 15  4  0  0  0  0
  2 30  1  0  0  0  0
  3 16  4  0  0  0  0
  4  5  4  0  0  0  0
  4  7  4  0  0  0  0
  4 17  1  0  0  0  0
  5  9  4  0  0  0  0
  5 31  1  0  0  0  0
  6  7  4  0  0  0  0
  6  8  4  0  0  0  0
  6 32  1  0  0  0  0
  7 33  1  0  0  0  0
  8  9  4  0  0  0  0
  8 20  1  0  0  0  0
  9 34  1  0  0  0  0
 10 11  1  0  0  0  0
 10 21  1  0  0  0  0
 10 24  1  0  0  0  0
 10 35  1  0  0  0  0
 11 12  1  0  0  0  0
 11 36  1  0  0  0  0
 11 37  1  0  0  0  0
 12 23  1  0  0  0  0
 12 38  1  0  0  0  0
 12 39  1  0  0  0  0
 13 23  1  0  0  0  0
 13 25  4  0  0  0  0
 13 29  4  0  0  0  0
 15 16  4  0  0  0  0
 15 18  4  0  0  0  0
 16 17  4  0  0  0  0
 17 19  4  0  0  0  0
 18 19  4  0  0  0  0
 20 22  1  0  0  0  0
 21 40  1  0  0  0  0
 22 41  1  0  0  0  0
 22 42  1  0  0  0  0
 22 43  1  0  0  0  0
 23 24  1  0  0  0  0
 24 44  1  0  0  0  0
 24 45  1  0  0  0  0
 25 26  4  0  0  0  0
 25 46  1  0  0  0  0
 26 27  4  0  0  0  0
 26 47  1  0  0  0  0
 27 28  4  0  0  0  0
 28 29  4  0  0  0  0
 28 48  1  0  0  0  0
 29 49  1  0  0  0  0
M  END
> <ConfClashScore>
0 

> <ConfOneFourInteractionScore>
-0.987833 

> <ConfScore>
0.00811059 

> <ConfScorePBest>
0.00383314 

> <ConfTolerance>
0.520997 

> <HETNAM>
     OWQ A 303  OWQ                                                       

> <pdb_OW>
Q_303 -16.5129 3.80749 7.62812 0.15963 1.39178 -0.28144 -3.20151 0 0 0 -1.30514 0 0 0 0 0 0 0 0 -8.31393

$$$$
6yky_lig_1.pdb
 OpenBabel04162415593D

 49 53  0  0  0  0  0  0  0  0999 V2000
   25.1048    1.8135  -65.3760 C   0  0  0  1  0  0  0  0  0  0  0  0
   26.9167    0.5034  -65.9326 C   0  0  0  1  0  0  0  0  0  0  0  0
   25.4179    1.8283  -64.0983 N   0  0  0  1  0  0  0  0  0  0  0  0
   26.7865    1.5431  -61.1530 C   0  0  0  1  0  0  0  0  0  0  0  0
   27.8128    1.9503  -60.3217 C   0  0  0  1  0  0  0  0  0  0  0  0
   25.1958    2.0088  -59.4208 C   0  0  0  1  0  0  0  0  0  0  0  0
   25.4763    1.5699  -60.7010 C   0  0  0  1  0  0  0  0  0  0  0  0
   26.2251    2.4173  -58.5870 C   0  0  0  1  0  0  0  0  0  0  0  0
   27.5314    2.3905  -59.0378 C   0  0  0  1  0  0  0  0  0  0  0  0
   23.2163    3.1212  -64.6338 C   0  0  0  1  0  0  0  0  0  0  0  0
   21.8420    3.6830  -65.0919 C   0  0  0  1  0  0  0  0  0  0  0  0
   21.4769    4.8451  -64.1447 C   0  0  0  1  0  0  0  0  0  0  0  0
   22.9460    6.0639  -62.4650 C   0  0  0  1  0  0  0  0  0  0  0  0
   25.8297    1.1707  -66.2748 N   0  0  0  1  0  0  0  0  0  0  0  0
   27.2965    0.4857  -64.5857 C   0  0  0  1  0  0  0  0  0  0  0  0
   26.4937    1.1852  -63.6614 C   0  0  0  1  0  0  0  0  0  0  0  0
   27.0810    1.0062  -62.4395 N   0  0  0  1  0  0  0  0  0  0  0  0
   28.3158   -0.0766  -63.9004 N   0  0  0  1  0  0  0  0  0  0  0  0
   28.2164    0.2092  -62.6490 N   0  0  0  1  0  0  0  0  0  0  0  0
   25.8348    2.8159  -57.3707 O   0  0  0  1  0  0  0  0  0  0  0  0
   23.9585    2.5152  -65.7485 N   0  0  0  1  0  0  0  0  0  0  0  0
   26.8041    3.1472  -56.3201 C   0  0  0  1  0  0  0  0  0  0  0  0
   22.7841    5.1743  -63.5090 N   0  0  0  1  0  0  0  0  0  0  0  0
   23.8794    4.4232  -64.1440 C   0  0  0  1  0  0  0  0  0  0  0  0
   22.8549    5.5805  -61.1729 C   0  0  0  1  0  0  0  0  0  0  0  0
   23.0192    6.4610  -60.1206 C   0  0  0  1  0  0  0  0  0  0  0  0
   23.2603    7.7653  -60.2847 N   0  0  0  1  0  0  0  0  0  0  0  0
   23.3419    8.2212  -61.5427 C   0  0  0  1  0  0  0  0  0  0  0  0
   23.1940    7.4095  -62.6539 C   0  0  0  1  0  0  0  0  0  0  0  0
   27.4789    0.0013  -66.6492 H   0  0  0  1  0  0  0  0  0  0  0  0
   28.7962    1.9264  -60.6594 H   0  0  0  1  0  0  0  0  0  0  0  0
   24.2124    2.0326  -59.0831 H   0  0  0  1  0  0  0  0  0  0  0  0
   24.7045    1.2596  -61.3253 H   0  0  0  1  0  0  0  0  0  0  0  0
   28.3032    2.7007  -58.4135 H   0  0  0  1  0  0  0  0  0  0  0  0
   23.1112    2.4067  -63.8443 H   0  0  0  1  0  0  0  0  0  0  0  0
   21.9104    4.0399  -66.0982 H   0  0  0  1  0  0  0  0  0  0  0  0
   21.0969    2.9172  -65.0343 H   0  0  0  1  0  0  0  0  0  0  0  0
   21.0925    5.6812  -64.6906 H   0  0  0  1  0  0  0  0  0  0  0  0
   20.7597    4.5358  -63.4134 H   0  0  0  1  0  0  0  0  0  0  0  0
   23.6701    2.5979  -66.6814 H   0  0  0  1  0  0  0  0  0  0  0  0
   27.3721    4.0044  -56.6158 H   0  0  0  1  0  0  0  0  0  0  0  0
   27.4629    2.3179  -56.1687 H   0  0  0  1  0  0  0  0  0  0  0  0
   26.2838    3.3611  -55.4099 H   0  0  0  1  0  0  0  0  0  0  0  0
   24.6532    4.2110  -63.4361 H   0  0  0  1  0  0  0  0  0  0  0  0
   24.2882    4.9724  -64.9663 H   0  0  0  1  0  0  0  0  0  0  0  0
   22.6662    4.5731  -60.9962 H   0  0  0  1  0  0  0  0  0  0  0  0
   22.9517    6.0898  -59.1515 H   0  0  0  1  0  0  0  0  0  0  0  0
   23.5252    9.2341  -61.6910 H   0  0  0  1  0  0  0  0  0  0  0  0
   23.2681    7.8052  -63.6128 H   0  0  0  1  0  0  0  0  0  0  0  0
  1  3  4  0  0  0  0
  1 14  4  0  0  0  0
  1 21  1  0  0  0  0
  2 14  4  0  0  0  0
  2 15  4  0  0  0  0
  2 30  1  0  0  0  0
  3 16  4  0  0  0  0
  4  5  4  0  0  0  0
  4  7  4  0  0  0  0
  4 17  1  0  0  0  0
  5  9  4  0  0  0  0
  5 31  1  0  0  0  0
  6  7  4  0  0  0  0
  6  8  4  0  0  0  0
  6 32  1  0  0  0  0
  7 33  1  0  0  0  0
  8  9  4  0  0  0  0
  8 20  1  0  0  0  0
  9 34  1  0  0  0  0
 10 11  1  0  0  0  0
 10 21  1  0  0  0  0
 10 24  1  0  0  0  0
 10 35  1  0  0  0  0
 11 12  1  0  0  0  0
 11 36  1  0  0  0  0
 11 37  1  0  0  0  0
 12 23  1  0  0  0  0
 12 38  1  0  0  0  0
 12 39  1  0  0  0  0
 13 23  1  0  0  0  0
 13 25  4  0  0  0  0
 13 29  4  0  0  0  0
 15 16  4  0  0  0  0
 15 18  4  0  0  0  0
 16 17  4  0  0  0  0
 17 19  4  0  0  0  0
 18 19  4  0  0  0  0
 20 22  1  0  0  0  0
 21 40  1  0  0  0  0
 22 41  1  0  0  0  0
 22 42  1  0  0  0  0
 22 43  1  0  0  0  0
 23 24  1  0  0  0  0
 24 44  1  0  0  0  0
 24 45  1  0  0  0  0
 25 26  4  0  0  0  0
 25 46  1  0  0  0  0
 26 27  4  0  0  0  0
 26 47  1  0  0  0  0
 27 28  4  0  0  0  0
 28 29  4  0  0  0  0
 28 48  1  0  0  0  0
 29 49  1  0  0  0  0
M  END
> <ConfClashScore>
0 

> <ConfOneFourInteractionScore>
-0.986948 

> <ConfScore>
0.00953346 

> <ConfScorePBest>
0.00381981 

> <ConfTolerance>
0.398364 

> <HETNAM>
     OWQ A 303  OWQ                                                       

> <pdb_OW>
Q_303 -16.5129 3.80749 7.62812 0.15963 1.39178 -0.28144 -3.20151 0 0 0 -1.30514 0 0 0 0 0 0 0 0 -8.31393

$$$$
6yky_lig_1.pdb
 OpenBabel04162415593D

 49 53  0  0  0  0  0  0  0  0999 V2000
   25.1047    1.8134  -65.3759 C   0  0  0  1  0  0  0  0  0  0  0  0
   26.9167    0.5034  -65.9325 C   0  0  0  1  0  0  0  0  0  0  0  0
   25.4177    1.8283  -64.0982 N   0  0  0  1  0  0  0  0  0  0  0  0
   26.7285    1.4697  -61.1390 C   0  0  0  1  0  0  0  0  0  0  0  0
   25.4911    1.1615  -60.6062 C   0  0  0  1  0  0  0  0  0  0  0  0
   27.2165    2.8290  -59.2254 C   0  0  0  1  0  0  0  0  0  0  0  0
   27.5915    2.3068  -60.4490 C   0  0  0  1  0  0  0  0  0  0  0  0
   25.9753    2.5198  -58.6908 C   0  0  0  1  0  0  0  0  0  0  0  0
   25.1151    1.6853  -59.3791 C   0  0  0  1  0  0  0  0  0  0  0  0
   23.6804    2.6064  -67.2260 C   0  0  0  1  0  0  0  0  0  0  0  0
   23.1424    4.0162  -67.5966 C   0  0  0  1  0  0  0  0  0  0  0  0
   22.2388    3.8565  -68.8372 C   0  0  0  1  0  0  0  0  0  0  0  0
   21.2904    1.7298  -69.8712 C   0  0  0  1  0  0  0  0  0  0  0  0
   25.8296    1.1706  -66.2747 N   0  0  0  1  0  0  0  0  0  0  0  0
   27.2965    0.4857  -64.5857 C   0  0  0  1  0  0  0  0  0  0  0  0
   26.4936    1.1851  -63.6613 C   0  0  0  1  0  0  0  0  0  0  0  0
   27.0808    1.0061  -62.4395 N   0  0  0  1  0  0  0  0  0  0  0  0
   28.3159   -0.0766  -63.9004 N   0  0  0  1  0  0  0  0  0  0  0  0
   28.2164    0.2092  -62.6490 N   0  0  0  1  0  0  0  0  0  0  0  0
   25.4979    2.9737  -57.5076 O   0  0  0  1  0  0  0  0  0  0  0  0
   23.9766    2.4946  -65.7951 N   0  0  0  1  0  0  0  0  0  0  0  0
   26.4000    3.7258  -56.6811 C   0  0  0  1  0  0  0  0  0  0  0  0
   21.9516    2.3941  -68.8487 N   0  0  0  1  0  0  0  0  0  0  0  0
   22.4643    1.7498  -67.6284 C   0  0  0  1  0  0  0  0  0  0  0  0
   21.9452    1.4186  -71.0485 C   0  0  0  1  0  0  0  0  0  0  0  0
   21.2499    0.7526  -72.0397 C   0  0  0  1  0  0  0  0  0  0  0  0
   19.9680    0.3925  -71.9231 N   0  0  0  1  0  0  0  0  0  0  0  0
   19.3444    0.7044  -70.7781 C   0  0  0  1  0  0  0  0  0  0  0  0
   19.9651    1.3663  -69.7332 C   0  0  0  1  0  0  0  0  0  0  0  0
   27.4789    0.0014  -66.6491 H   0  0  0  1  0  0  0  0  0  0  0  0
   24.8421    0.5367  -61.1258 H   0  0  0  1  0  0  0  0  0  0  0  0
   27.8655    3.4537  -58.7058 H   0  0  0  1  0  0  0  0  0  0  0  0
   28.5210    2.5419  -60.8519 H   0  0  0  1  0  0  0  0  0  0  0  0
   24.1856    1.4501  -58.9762 H   0  0  0  1  0  0  0  0  0  0  0  0
   24.5519    2.3514  -67.7921 H   0  0  0  1  0  0  0  0  0  0  0  0
   22.5765    4.4170  -66.7818 H   0  0  0  1  0  0  0  0  0  0  0  0
   23.9583    4.6711  -67.8210 H   0  0  0  1  0  0  0  0  0  0  0  0
   21.3385    4.4253  -68.7342 H   0  0  0  1  0  0  0  0  0  0  0  0
   22.7505    4.1557  -69.7280 H   0  0  0  1  0  0  0  0  0  0  0  0
   23.3762    2.9020  -65.1363 H   0  0  0  1  0  0  0  0  0  0  0  0
   26.8492    3.0760  -55.9595 H   0  0  0  1  0  0  0  0  0  0  0  0
   25.8600    4.4996  -56.1766 H   0  0  0  1  0  0  0  0  0  0  0  0
   27.1628    4.1621  -57.2914 H   0  0  0  1  0  0  0  0  0  0  0  0
   21.7236    1.7577  -66.8562 H   0  0  0  1  0  0  0  0  0  0  0  0
   22.7610    0.7416  -67.8286 H   0  0  0  1  0  0  0  0  0  0  0  0
   22.9423    1.6807  -71.1855 H   0  0  0  1  0  0  0  0  0  0  0  0
   21.7496    0.5196  -72.9216 H   0  0  0  1  0  0  0  0  0  0  0  0
   18.3454    0.4360  -70.6700 H   0  0  0  1  0  0  0  0  0  0  0  0
   19.4435    1.5856  -68.8605 H   0  0  0  1  0  0  0  0  0  0  0  0
  1  3  4  0  0  0  0
  1 14  4  0  0  0  0
  1 21  1  0  0  0  0
  2 14  4  0  0  0  0
  2 15  4  0  0  0  0
  2 30  1  0  0  0  0
  3 16  4  0  0  0  0
  4  5  4  0  0  0  0
  4  7  4  0  0  0  0
  4 17  1  0  0  0  0
  5  9  4  0  0  0  0
  5 31  1  0  0  0  0
  6  7  4  0  0  0  0
  6  8  4  0  0  0  0
  6 32  1  0  0  0  0
  7 33  1  0  0  0  0
  8  9  4  0  0  0  0
  8 20  1  0  0  0  0
  9 34  1  0  0  0  0
 10 11  1  0  0  0  0
 10 21  1  0  0  0  0
 10 24  1  0  0  0  0
 10 35  1  0  0  0  0
 11 12  1  0  0  0  0
 11 36  1  0  0  0  0
 11 37  1  0  0  0  0
 12 23  1  0  0  0  0
 12 38  1  0  0  0  0
 12 39  1  0  0  0  0
 13 23  1  0  0  0  0
 13 25  4  0  0  0  0
 13 29  4  0  0  0  0
 15 16  4  0  0  0  0
 15 18  4  0  0  0  0
 16 17  4  0  0  0  0
 17 19  4  0  0  0  0
 18 19  4  0  0  0  0
 20 22  1  0  0  0  0
 21 40  1  0  0  0  0
 22 41  1  0  0  0  0
 22 42  1  0  0  0  0
 22 43  1  0  0  0  0
 23 24  1  0  0  0  0
 24 44  1  0  0  0  0
 24 45  1  0  0  0  0
 25 26  4  0  0  0  0
 25 46  1  0  0  0  0
 26 27  4  0  0  0  0
 26 47  1  0  0  0  0
 27 28  4  0  0  0  0
 28 29  4  0  0  0  0
 28 48  1  0  0  0  0
 29 49  1  0  0  0  0
M  END
> <ConfClashScore>
0 

> <ConfOneFourInteractionScore>
-0.986948 

> <ConfScore>
0.0107024 

> <ConfScorePBest>
0.00380648 

> <ConfTolerance>
0.443397 

> <HETNAM>
     OWQ A 303  OWQ                                                       

> <pdb_OW>
Q_303 -16.5129 3.80749 7.62812 0.15963 1.39178 -0.28144 -3.20151 0 0 0 -1.30514 0 0 0 0 0 0 0 0 -8.31393

$$$$
6yky_lig_1.pdb
 OpenBabel04162415593D

 49 53  0  0  0  0  0  0  0  0999 V2000
   25.1048    1.8137  -65.3759 C   0  0  0  1  0  0  0  0  0  0  0  0
   26.9167    0.5034  -65.9326 C   0  0  0  1  0  0  0  0  0  0  0  0
   25.4180    1.8285  -64.0982 N   0  0  0  1  0  0  0  0  0  0  0  0
   26.7287    1.4700  -61.1390 C   0  0  0  1  0  0  0  0  0  0  0  0
   27.2394    2.6878  -60.7316 C   0  0  0  1  0  0  0  0  0  0  0  0
   25.7407    1.1584  -58.9771 C   0  0  0  1  0  0  0  0  0  0  0  0
   25.9805    0.7029  -60.2597 C   0  0  0  1  0  0  0  0  0  0  0  0
   26.2528    2.3799  -58.5683 C   0  0  0  1  0  0  0  0  0  0  0  0
   26.9988    3.1447  -59.4451 C   0  0  0  1  0  0  0  0  0  0  0  0
   23.7058    2.3703  -67.2241 C   0  0  0  1  0  0  0  0  0  0  0  0
   24.2560    3.5873  -68.0009 C   0  0  0  1  0  0  0  0  0  0  0  0
   23.2228    3.9746  -69.0287 C   0  0  0  1  0  0  0  0  0  0  0  0
   20.7348    3.3184  -69.1004 C   0  0  0  1  0  0  0  0  0  0  0  0
   25.8297    1.1707  -66.2747 N   0  0  0  1  0  0  0  0  0  0  0  0
   27.2964    0.4858  -64.5857 C   0  0  0  1  0  0  0  0  0  0  0  0
   26.4937    1.1852  -63.6614 C   0  0  0  1  0  0  0  0  0  0  0  0
   27.0810    1.0062  -62.4395 N   0  0  0  1  0  0  0  0  0  0  0  0
   28.3159   -0.0766  -63.9004 N   0  0  0  1  0  0  0  0  0  0  0  0
   28.2164    0.2092  -62.6490 N   0  0  0  1  0  0  0  0  0  0  0  0
   26.0897    2.9226  -57.3461 O   0  0  0  1  0  0  0  0  0  0  0  0
   23.9968    2.4830  -65.7877 N   0  0  0  1  0  0  0  0  0  0  0  0
   25.4575    2.0596  -56.3724 C   0  0  0  1  0  0  0  0  0  0  0  0
   21.9852    3.2076  -68.5139 N   0  0  0  1  0  0  0  0  0  0  0  0
   22.2152    2.4525  -67.4878 C   0  0  0  1  0  0  0  0  0  0  0  0
   20.4181    4.1605  -70.1502 C   0  0  0  1  0  0  0  0  0  0  0  0
   19.1243    4.1599  -70.6357 C   0  0  0  1  0  0  0  0  0  0  0  0
   18.1539    3.3861  -70.1403 N   0  0  0  1  0  0  0  0  0  0  0  0
   18.4739    2.5776  -69.1198 C   0  0  0  1  0  0  0  0  0  0  0  0
   19.7443    2.5118  -68.5750 C   0  0  0  1  0  0  0  0  0  0  0  0
   27.4789    0.0014  -66.6492 H   0  0  0  1  0  0  0  0  0  0  0  0
   27.8041    3.2616  -61.3900 H   0  0  0  1  0  0  0  0  0  0  0  0
   25.1759    0.5847  -58.3186 H   0  0  0  1  0  0  0  0  0  0  0  0
   25.5996   -0.2155  -60.5652 H   0  0  0  1  0  0  0  0  0  0  0  0
   27.3797    4.0629  -59.1397 H   0  0  0  1  0  0  0  0  0  0  0  0
   24.1142    1.4557  -67.6006 H   0  0  0  1  0  0  0  0  0  0  0  0
   24.4261    4.4024  -67.3291 H   0  0  0  1  0  0  0  0  0  0  0  0
   25.1734    3.3265  -68.4857 H   0  0  0  1  0  0  0  0  0  0  0  0
   23.5047    3.6511  -70.0089 H   0  0  0  1  0  0  0  0  0  0  0  0
   23.0542    5.0311  -69.0360 H   0  0  0  1  0  0  0  0  0  0  0  0
   23.4347    3.0009  -65.1744 H   0  0  0  1  0  0  0  0  0  0  0  0
   26.0162    1.1513  -56.2841 H   0  0  0  1  0  0  0  0  0  0  0  0
   24.4604    1.8353  -56.6891 H   0  0  0  1  0  0  0  0  0  0  0  0
   25.4283    2.5538  -55.4238 H   0  0  0  1  0  0  0  0  0  0  0  0
   21.8352    1.4707  -67.6791 H   0  0  0  1  0  0  0  0  0  0  0  0
   21.7264    2.8638  -66.6294 H   0  0  0  1  0  0  0  0  0  0  0  0
   21.1400    4.7826  -70.5666 H   0  0  0  1  0  0  0  0  0  0  0  0
   18.8940    4.7941  -71.4272 H   0  0  0  1  0  0  0  0  0  0  0  0
   17.7312    1.9705  -68.7180 H   0  0  0  1  0  0  0  0  0  0  0  0
   19.9493    1.8674  -67.7848 H   0  0  0  1  0  0  0  0  0  0  0  0
  1  3  4  0  0  0  0
  1 14  4  0  0  0  0
  1 21  1  0  0  0  0
  2 14  4  0  0  0  0
  2 15  4  0  0  0  0
  2 30  1  0  0  0  0
  3 16  4  0  0  0  0
  4  5  4  0  0  0  0
  4  7  4  0  0  0  0
  4 17  1  0  0  0  0
  5  9  4  0  0  0  0
  5 31  1  0  0  0  0
  6  7  4  0  0  0  0
  6  8  4  0  0  0  0
  6 32  1  0  0  0  0
  7 33  1  0  0  0  0
  8  9  4  0  0  0  0
  8 20  1  0  0  0  0
  9 34  1  0  0  0  0
 10 11  1  0  0  0  0
 10 21  1  0  0  0  0
 10 24  1  0  0  0  0
 10 35  1  0  0  0  0
 11 12  1  0  0  0  0
 11 36  1  0  0  0  0
 11 37  1  0  0  0  0
 12 23  1  0  0  0  0
 12 38  1  0  0  0  0
 12 39  1  0  0  0  0
 13 23  1  0  0  0  0
 13 25  4  0  0  0  0
 13 29  4  0  0  0  0
 15 16  4  0  0  0  0
 15 18  4  0  0  0  0
 16 17  4  0  0  0  0
 17 19  4  0  0  0  0
 18 19  4  0  0  0  0
 20 22  1  0  0  0  0
 21 40  1  0  0  0  0
 22 41  1  0  0  0  0
 22 42  1  0  0  0  0
 22 43  1  0  0  0  0
 23 24  1  0  0  0  0
 24 44  1  0  0  0  0
 24 45  1  0  0  0  0
 25 26  4  0  0  0  0
 25 46  1  0  0  0  0
 26 27  4  0  0  0  0
 26 47  1  0  0  0  0
 27 28  4  0  0  0  0
 28 29  4  0  0  0  0
 28 48  1  0  0  0  0
 29 49  1  0  0  0  0
M  END
> <ConfClashScore>
0 

> <ConfOneFourInteractionScore>
-0.991755 

> <ConfScore>
0.0109817 

> <ConfScorePBest>
0.00379316 

> <ConfTolerance>
0.436103 

> <HETNAM>
     OWQ A 303  OWQ                                                       

> <pdb_OW>
Q_303 -16.5129 3.80749 7.62812 0.15963 1.39178 -0.28144 -3.20151 0 0 0 -1.30514 0 0 0 0 0 0 0 0 -8.31393

$$$$
6yky_lig_1.pdb
 OpenBabel04162415593D

 49 53  0  0  0  0  0  0  0  0999 V2000
   25.1047    1.8135  -65.3760 C   0  0  0  1  0  0  0  0  0  0  0  0
   26.9167    0.5034  -65.9326 C   0  0  0  1  0  0  0  0  0  0  0  0
   25.4178    1.8284  -64.0982 N   0  0  0  1  0  0  0  0  0  0  0  0
   26.7670    1.4473  -61.1215 C   0  0  0  1  0  0  0  0  0  0  0  0
   27.5961    1.1184  -60.0658 C   0  0  0  1  0  0  0  0  0  0  0  0
   25.2319    2.4802  -59.5970 C   0  0  0  1  0  0  0  0  0  0  0  0
   25.5819    2.1269  -60.8866 C   0  0  0  1  0  0  0  0  0  0  0  0
   26.0633    2.1502  -58.5381 C   0  0  0  1  0  0  0  0  0  0  0  0
   27.2449    1.4726  -58.7725 C   0  0  0  1  0  0  0  0  0  0  0  0
   23.5979    2.5231  -67.2424 C   0  0  0  1  0  0  0  0  0  0  0  0
   22.1618    3.0810  -67.3564 C   0  0  0  1  0  0  0  0  0  0  0  0
   21.4449    2.2775  -68.4119 C   0  0  0  1  0  0  0  0  0  0  0  0
   22.0960   -0.0297  -69.3777 C   0  0  0  1  0  0  0  0  0  0  0  0
   25.8296    1.1707  -66.2748 N   0  0  0  1  0  0  0  0  0  0  0  0
   27.2965    0.4858  -64.5857 C   0  0  0  1  0  0  0  0  0  0  0  0
   26.4936    1.1852  -63.6615 C   0  0  0  1  0  0  0  0  0  0  0  0
   27.0810    1.0062  -62.4395 N   0  0  0  1  0  0  0  0  0  0  0  0
   28.3159   -0.0766  -63.9004 N   0  0  0  1  0  0  0  0  0  0  0  0
   28.2164    0.2093  -62.6490 N   0  0  0  1  0  0  0  0  0  0  0  0
   25.7178    2.4918  -57.2740 O   0  0  0  1  0  0  0  0  0  0  0  0
   24.0270    2.4524  -65.8449 N   0  0  0  1  0  0  0  0  0  0  0  0
   24.6055    3.3865  -57.1167 C   0  0  0  1  0  0  0  0  0  0  0  0
   22.3860    1.0612  -68.5536 N   0  0  0  1  0  0  0  0  0  0  0  0
   23.4662    1.1379  -67.8443 C   0  0  0  1  0  0  0  0  0  0  0  0
   22.9599   -1.0956  -69.5490 C   0  0  0  1  0  0  0  0  0  0  0  0
   22.5814   -2.1305  -70.3828 C   0  0  0  1  0  0  0  0  0  0  0  0
   21.4181   -2.1566  -71.0403 N   0  0  0  1  0  0  0  0  0  0  0  0
   20.5922   -1.1148  -70.8684 C   0  0  0  1  0  0  0  0  0  0  0  0
   20.8895   -0.0391  -70.0500 C   0  0  0  1  0  0  0  0  0  0  0  0
   27.4789    0.0014  -66.6492 H   0  0  0  1  0  0  0  0  0  0  0  0
   28.4832    0.6049  -60.2417 H   0  0  0  1  0  0  0  0  0  0  0  0
   24.3447    2.9935  -59.4212 H   0  0  0  1  0  0  0  0  0  0  0  0
   24.9561    2.3709  -61.6807 H   0  0  0  1  0  0  0  0  0  0  0  0
   27.8707    1.2287  -57.9785 H   0  0  0  1  0  0  0  0  0  0  0  0
   24.2893    3.1211  -67.7985 H   0  0  0  1  0  0  0  0  0  0  0  0
   22.1923    4.1122  -67.6406 H   0  0  0  1  0  0  0  0  0  0  0  0
   21.6568    2.9839  -66.4181 H   0  0  0  1  0  0  0  0  0  0  0  0
   21.3647    2.8201  -69.3306 H   0  0  0  1  0  0  0  0  0  0  0  0
   20.4696    1.9825  -68.0850 H   0  0  0  1  0  0  0  0  0  0  0  0
   23.4698    2.9193  -65.1877 H   0  0  0  1  0  0  0  0  0  0  0  0
   23.7417    2.9693  -57.5908 H   0  0  0  1  0  0  0  0  0  0  0  0
   24.8393    4.3285  -57.5672 H   0  0  0  1  0  0  0  0  0  0  0  0
   24.4067    3.5283  -56.0749 H   0  0  0  1  0  0  0  0  0  0  0  0
   23.4252    0.4132  -67.0581 H   0  0  0  1  0  0  0  0  0  0  0  0
   24.3133    0.9412  -68.4677 H   0  0  0  1  0  0  0  0  0  0  0  0
   23.8773   -1.1180  -69.0596 H   0  0  0  1  0  0  0  0  0  0  0  0
   23.2352   -2.9301  -70.5049 H   0  0  0  1  0  0  0  0  0  0  0  0
   19.6837   -1.1149  -71.3747 H   0  0  0  1  0  0  0  0  0  0  0  0
   20.2173    0.7473  -69.9432 H   0  0  0  1  0  0  0  0  0  0  0  0
  1  3  4  0  0  0  0
  1 14  4  0  0  0  0
  1 21  1  0  0  0  0
  2 14  4  0  0  0  0
  2 15  4  0  0  0  0
  2 30  1  0  0  0  0
  3 16  4  0  0  0  0
  4  5  4  0  0  0  0
  4  7  4  0  0  0  0
  4 17  1  0  0  0  0
  5  9  4  0  0  0  0
  5 31  1  0  0  0  0
  6  7  4  0  0  0  0
  6  8  4  0  0  0  0
  6 32  1  0  0  0  0
  7 33  1  0  0  0  0
  8  9  4  0  0  0  0
  8 20  1  0  0  0  0
  9 34  1  0  0  0  0
 10 11  1  0  0  0  0
 10 21  1  0  0  0  0
 10 24  1  0  0  0  0
 10 35  1  0  0  0  0
 11 12  1  0  0  0  0
 11 36  1  0  0  0  0
 11 37  1  0  0  0  0
 12 23  1  0  0  0  0
 12 38  1  0  0  0  0
 12 39  1  0  0  0  0
 13 23  1  0  0  0  0
 13 25  4  0  0  0  0
 13 29  4  0  0  0  0
 15 16  4  0  0  0  0
 15 18  4  0  0  0  0
 16 17  4  0  0  0  0
 17 19  4  0  0  0  0
 18 19  4  0  0  0  0
 20 22  1  0  0  0  0
 21 40  1  0  0  0  0
 22 41  1  0  0  0  0
 22 42  1  0  0  0  0
 22 43  1  0  0  0  0
 23 24  1  0  0  0  0
 24 44  1  0  0  0  0
 24 45  1  0  0  0  0
 25 26  4  0  0  0  0
 25 46  1  0  0  0  0
 26 27  4  0  0  0  0
 26 47  1  0  0  0  0
 27 28  4  0  0  0  0
 28 29  4  0  0  0  0
 28 48  1  0  0  0  0
 29 49  1  0  0  0  0
M  END
> <ConfClashScore>
0 

> <ConfOneFourInteractionScore>
-0.987833 

> <ConfScore>
0.0131026 

> <ConfScorePBest>
0.00377983 

> <ConfTolerance>
0.356417 

> <HETNAM>
     OWQ A 303  OWQ                                                       

> <pdb_OW>
Q_303 -16.5129 3.80749 7.62812 0.15963 1.39178 -0.28144 -3.20151 0 0 0 -1.30514 0 0 0 0 0 0 0 0 -8.31393

$$$$
6yky_lig_1.pdb
 OpenBabel04162415593D

 49 53  0  0  0  0  0  0  0  0999 V2000
   25.1047    1.8135  -65.3760 C   0  0  0  1  0  0  0  0  0  0  0  0
   26.9167    0.5034  -65.9326 C   0  0  0  1  0  0  0  0  0  0  0  0
   25.4178    1.8283  -64.0982 N   0  0  0  1  0  0  0  0  0  0  0  0
   26.6877    1.3784  -61.1215 C   0  0  0  1  0  0  0  0  0  0  0  0
   26.4294    2.7034  -60.8247 C   0  0  0  1  0  0  0  0  0  0  0  0
   26.3588    0.7964  -58.8193 C   0  0  0  1  0  0  0  0  0  0  0  0
   26.6549    0.4239  -60.1169 C   0  0  0  1  0  0  0  0  0  0  0  0
   26.0997    2.1252  -58.5214 C   0  0  0  1  0  0  0  0  0  0  0  0
   26.1324    3.0768  -59.5233 C   0  0  0  1  0  0  0  0  0  0  0  0
   23.5604    2.5412  -67.1725 C   0  0  0  1  0  0  0  0  0  0  0  0
   24.4511    3.4647  -67.9895 C   0  0  0  1  0  0  0  0  0  0  0  0
   23.5752    3.8767  -69.1745 C   0  0  0  1  0  0  0  0  0  0  0  0
   21.0830    4.1656  -69.3140 C   0  0  0  1  0  0  0  0  0  0  0  0
   25.8296    1.1707  -66.2748 N   0  0  0  1  0  0  0  0  0  0  0  0
   27.2965    0.4858  -64.5857 C   0  0  0  1  0  0  0  0  0  0  0  0
   26.4937    1.1852  -63.6614 C   0  0  0  1  0  0  0  0  0  0  0  0
   27.0809    1.0062  -62.4395 N   0  0  0  1  0  0  0  0  0  0  0  0
   28.3159   -0.0766  -63.9005 N   0  0  0  1  0  0  0  0  0  0  0  0
   28.2164    0.2092  -62.6490 N   0  0  0  1  0  0  0  0  0  0  0  0
   25.8276    2.3704  -57.2177 O   0  0  0  1  0  0  0  0  0  0  0  0
   24.0033    2.4787  -65.7852 N   0  0  0  1  0  0  0  0  0  0  0  0
   25.6564    3.7426  -56.8300 C   0  0  0  1  0  0  0  0  0  0  0  0
   22.2108    3.7727  -68.6340 N   0  0  0  1  0  0  0  0  0  0  0  0
   22.1963    3.1989  -67.2806 C   0  0  0  1  0  0  0  0  0  0  0  0
   21.0724    4.9258  -70.4689 C   0  0  0  1  0  0  0  0  0  0  0  0
   19.8569    5.2415  -71.0456 C   0  0  0  1  0  0  0  0  0  0  0  0
   18.6815    4.8517  -70.5427 N   0  0  0  1  0  0  0  0  0  0  0  0
   18.7065    4.1189  -69.4204 C   0  0  0  1  0  0  0  0  0  0  0  0
   19.8777    3.7544  -68.7794 C   0  0  0  1  0  0  0  0  0  0  0  0
   27.4788    0.0014  -66.6492 H   0  0  0  1  0  0  0  0  0  0  0  0
   26.4580    3.4201  -61.5778 H   0  0  0  1  0  0  0  0  0  0  0  0
   26.3302    0.0796  -58.0662 H   0  0  0  1  0  0  0  0  0  0  0  0
   26.8532   -0.5725  -60.3396 H   0  0  0  1  0  0  0  0  0  0  0  0
   25.9342    4.0732  -59.3006 H   0  0  0  1  0  0  0  0  0  0  0  0
   23.5458    1.5550  -67.5875 H   0  0  0  1  0  0  0  0  0  0  0  0
   24.7394    4.3202  -67.4150 H   0  0  0  1  0  0  0  0  0  0  0  0
   25.3262    2.9488  -68.3256 H   0  0  0  1  0  0  0  0  0  0  0  0
   23.7912    4.8787  -69.4814 H   0  0  0  1  0  0  0  0  0  0  0  0
   23.7120    3.2124  -70.0021 H   0  0  0  1  0  0  0  0  0  0  0  0
   23.4701    2.9473  -65.1096 H   0  0  0  1  0  0  0  0  0  0  0  0
   25.4574    3.7949  -55.7800 H   0  0  0  1  0  0  0  0  0  0  0  0
   24.8350    4.1656  -57.3698 H   0  0  0  1  0  0  0  0  0  0  0  0
   26.5489    4.2896  -57.0513 H   0  0  0  1  0  0  0  0  0  0  0  0
   21.4127    2.4776  -67.1774 H   0  0  0  1  0  0  0  0  0  0  0  0
   22.0783    3.9628  -66.5407 H   0  0  0  1  0  0  0  0  0  0  0  0
   21.9623    5.2539  -70.8954 H   0  0  0  1  0  0  0  0  0  0  0  0
   19.8568    5.8115  -71.9154 H   0  0  0  1  0  0  0  0  0  0  0  0
   17.8018    3.8093  -69.0116 H   0  0  0  1  0  0  0  0  0  0  0  0
   19.8507    3.1817  -67.9116 H   0  0  0  1  0  0  0  0  0  0  0  0
  1  3  4  0  0  0  0
  1 14  4  0  0  0  0
  1 21  1  0  0  0  0
  2 14  4  0  0  0  0
  2 15  4  0  0  0  0
  2 30  1  0  0  0  0
  3 16  4  0  0  0  0
  4  5  4  0  0  0  0
  4  7  4  0  0  0  0
  4 17  1  0  0  0  0
  5  9  4  0  0  0  0
  5 31  1  0  0  0  0
  6  7  4  0  0  0  0
  6  8  4  0  0  0  0
  6 32  1  0  0  0  0
  7 33  1  0  0  0  0
  8  9  4  0  0  0  0
  8 20  1  0  0  0  0
  9 34  1  0  0  0  0
 10 11  1  0  0  0  0
 10 21  1  0  0  0  0
 10 24  1  0  0  0  0
 10 35  1  0  0  0  0
 11 12  1  0  0  0  0
 11 36  1  0  0  0  0
 11 37  1  0  0  0  0
 12 23  1  0  0  0  0
 12 38  1  0  0  0  0
 12 39  1  0  0  0  0
 13 23  1  0  0  0  0
 13 25  4  0  0  0  0
 13 29  4  0  0  0  0
 15 16  4  0  0  0  0
 15 18  4  0  0  0  0
 16 17  4  0  0  0  0
 17 19  4  0  0  0  0
 18 19  4  0  0  0  0
 20 22  1  0  0  0  0
 21 40  1  0  0  0  0
 22 41  1  0  0  0  0
 22 42  1  0  0  0  0
 22 43  1  0  0  0  0
 23 24  1  0  0  0  0
 24 44  1  0  0  0  0
 24 45  1  0  0  0  0
 25 26  4  0  0  0  0
 25 46  1  0  0  0  0
 26 27  4  0  0  0  0
 26 47  1  0  0  0  0
 27 28  4  0  0  0  0
 28 29  4  0  0  0  0
 28 48  1  0  0  0  0
 29 49  1  0  0  0  0
M  END
> <ConfClashScore>
0 

> <ConfOneFourInteractionScore>
-0.986948 

> <ConfScore>
0.0138405 

> <ConfScorePBest>
0.0037665 

> <ConfTolerance>
0.45949 

> <HETNAM>
     OWQ A 303  OWQ                                                       

> <pdb_OW>
Q_303 -16.5129 3.80749 7.62812 0.15963 1.39178 -0.28144 -3.20151 0 0 0 -1.30514 0 0 0 0 0 0 0 0 -8.31393

$$$$
6yky_lig_1.pdb
 OpenBabel04162415593D

 49 53  0  0  0  0  0  0  0  0999 V2000
   25.1048    1.8136  -65.3760 C   0  0  0  1  0  0  0  0  0  0  0  0
   26.9167    0.5034  -65.9326 C   0  0  0  1  0  0  0  0  0  0  0  0
   25.4179    1.8285  -64.0983 N   0  0  0  1  0  0  0  0  0  0  0  0
   26.7519    1.5718  -61.1738 C   0  0  0  1  0  0  0  0  0  0  0  0
   25.6489    2.4021  -61.1087 C   0  0  0  1  0  0  0  0  0  0  0  0
   27.2355    2.0301  -58.8709 C   0  0  0  1  0  0  0  0  0  0  0  0
   27.5479    1.3876  -60.0540 C   0  0  0  1  0  0  0  0  0  0  0  0
   26.1292    2.8630  -58.8055 C   0  0  0  1  0  0  0  0  0  0  0  0
   25.3357    3.0466  -59.9222 C   0  0  0  1  0  0  0  0  0  0  0  0
   23.1729    3.2480  -64.8637 C   0  0  0  1  0  0  0  0  0  0  0  0
   21.7780    3.5785  -65.4632 C   0  0  0  1  0  0  0  0  0  0  0  0
   21.2882    4.8854  -64.8050 C   0  0  0  1  0  0  0  0  0  0  0  0
   22.5934    6.5677  -63.4032 C   0  0  0  1  0  0  0  0  0  0  0  0
   25.8297    1.1708  -66.2748 N   0  0  0  1  0  0  0  0  0  0  0  0
   27.2965    0.4857  -64.5857 C   0  0  0  1  0  0  0  0  0  0  0  0
   26.4937    1.1852  -63.6614 C   0  0  0  1  0  0  0  0  0  0  0  0
   27.0810    1.0063  -62.4395 N   0  0  0  1  0  0  0  0  0  0  0  0
   28.3159   -0.0766  -63.9004 N   0  0  0  1  0  0  0  0  0  0  0  0
   28.2164    0.2093  -62.6490 N   0  0  0  1  0  0  0  0  0  0  0  0
   25.8024    3.3928  -57.6066 O   0  0  0  1  0  0  0  0  0  0  0  0
   23.9921    2.4857  -65.7896 N   0  0  0  1  0  0  0  0  0  0  0  0
   26.6999    3.2242  -56.4848 C   0  0  0  1  0  0  0  0  0  0  0  0
   22.5406    5.4542  -64.2316 N   0  0  0  1  0  0  0  0  0  0  0  0
   23.7143    4.6764  -64.6615 C   0  0  0  1  0  0  0  0  0  0  0  0
   23.8086    7.1093  -63.0271 C   0  0  0  1  0  0  0  0  0  0  0  0
   23.8153    8.2200  -62.2048 C   0  0  0  1  0  0  0  0  0  0  0  0
   22.7027    8.8021  -61.7471 N   0  0  0  1  0  0  0  0  0  0  0  0
   21.5317    8.2640  -62.1162 C   0  0  0  1  0  0  0  0  0  0  0  0
   21.4329    7.1556  -62.9391 C   0  0  0  1  0  0  0  0  0  0  0  0
   27.4789    0.0013  -66.6491 H   0  0  0  1  0  0  0  0  0  0  0  0
   25.0540    2.5435  -61.9500 H   0  0  0  1  0  0  0  0  0  0  0  0
   27.8304    1.8888  -58.0296 H   0  0  0  1  0  0  0  0  0  0  0  0
   28.3801    0.7659  -60.1042 H   0  0  0  1  0  0  0  0  0  0  0  0
   24.5035    3.6682  -59.8720 H   0  0  0  1  0  0  0  0  0  0  0  0
   23.0928    2.7177  -63.9378 H   0  0  0  1  0  0  0  0  0  0  0  0
   21.0925    2.7843  -65.2526 H   0  0  0  1  0  0  0  0  0  0  0  0
   21.8574    3.7103  -66.5221 H   0  0  0  1  0  0  0  0  0  0  0  0
   20.5693    4.6851  -64.0382 H   0  0  0  1  0  0  0  0  0  0  0  0
   20.8617    5.5461  -65.5306 H   0  0  0  1  0  0  0  0  0  0  0  0
   23.7389    2.4534  -66.7358 H   0  0  0  1  0  0  0  0  0  0  0  0
   27.1332    2.2464  -56.5178 H   0  0  0  1  0  0  0  0  0  0  0  0
   26.1550    3.3419  -55.5715 H   0  0  0  1  0  0  0  0  0  0  0  0
   27.4756    3.9595  -56.5353 H   0  0  0  1  0  0  0  0  0  0  0  0
   24.1109    5.0641  -65.5764 H   0  0  0  1  0  0  0  0  0  0  0  0
   24.4742    4.6903  -63.9085 H   0  0  0  1  0  0  0  0  0  0  0  0
   24.7009    6.6888  -63.3567 H   0  0  0  1  0  0  0  0  0  0  0  0
   24.7331    8.6235  -61.9281 H   0  0  0  1  0  0  0  0  0  0  0  0
   20.6547    8.7005  -61.7671 H   0  0  0  1  0  0  0  0  0  0  0  0
   20.5027    6.7728  -63.2029 H   0  0  0  1  0  0  0  0  0  0  0  0
  1  3  4  0  0  0  0
  1 14  4  0  0  0  0
  1 21  1  0  0  0  0
  2 14  4  0  0  0  0
  2 15  4  0  0  0  0
  2 30  1  0  0  0  0
  3 16  4  0  0  0  0
  4  5  4  0  0  0  0
  4  7  4  0  0  0  0
  4 17  1  0  0  0  0
  5  9  4  0  0  0  0
  5 31  1  0  0  0  0
  6  7  4  0  0  0  0
  6  8  4  0  0  0  0
  6 32  1  0  0  0  0
  7 33  1  0  0  0  0
  8  9  4  0  0  0  0
  8 20  1  0  0  0  0
  9 34  1  0  0  0  0
 10 11  1  0  0  0  0
 10 21  1  0  0  0  0
 10 24  1  0  0  0  0
 10 35  1  0  0  0  0
 11 12  1  0  0  0  0
 11 36  1  0  0  0  0
 11 37  1  0  0  0  0
 12 23  1  0  0  0  0
 12 38  1  0  0  0  0
 12 39  1  0  0  0  0
 13 23  1  0  0  0  0
 13 25  4  0  0  0  0
 13 29  4  0  0  0  0
 15 16  4  0  0  0  0
 15 18  4  0  0  0  0
 16 17  4  0  0  0  0
 17 19  4  0  0  0  0
 18 19  4  0  0  0  0
 20 22  1  0  0  0  0
 21 40  1  0  0  0  0
 22 41  1  0  0  0  0
 22 42  1  0  0  0  0
 22 43  1  0  0  0  0
 23 24  1  0  0  0  0
 24 44  1  0  0  0  0
 24 45  1  0  0  0  0
 25 26  4  0  0  0  0
 25 46  1  0  0  0  0
 26 27  4  0  0  0  0
 26 47  1  0  0  0  0
 27 28  4  0  0  0  0
 28 29  4  0  0  0  0
 28 48  1  0  0  0  0
 29 49  1  0  0  0  0
M  END
> <ConfClashScore>
0 

> <ConfOneFourInteractionScore>
-0.984874 

> <ConfScore>
0.0141938 

> <ConfScorePBest>
0.00375317 

> <ConfTolerance>
0.416977 

> <HETNAM>
     OWQ A 303  OWQ                                                       

> <pdb_OW>
Q_303 -16.5129 3.80749 7.62812 0.15963 1.39178 -0.28144 -3.20151 0 0 0 -1.30514 0 0 0 0 0 0 0 0 -8.31393

$$$$
6yky_lig_1.pdb
 OpenBabel04162415593D

 49 53  0  0  0  0  0  0  0  0999 V2000
   25.1048    1.8134  -65.3760 C   0  0  0  1  0  0  0  0  0  0  0  0
   26.9167    0.5034  -65.9326 C   0  0  0  1  0  0  0  0  0  0  0  0
   25.4178    1.8283  -64.0982 N   0  0  0  1  0  0  0  0  0  0  0  0
   26.6877    1.3784  -61.1216 C   0  0  0  1  0  0  0  0  0  0  0  0
   26.5268    2.7125  -60.7984 C   0  0  0  1  0  0  0  0  0  0  0  0
   26.2614    0.7723  -58.8416 C   0  0  0  1  0  0  0  0  0  0  0  0
   26.5575    0.4070  -60.1413 C   0  0  0  1  0  0  0  0  0  0  0  0
   26.1000    2.1104  -58.5173 C   0  0  0  1  0  0  0  0  0  0  0  0
   26.2299    3.0789  -59.4948 C   0  0  0  1  0  0  0  0  0  0  0  0
   23.6601    2.4819  -67.2301 C   0  0  0  1  0  0  0  0  0  0  0  0
   22.6615    3.6094  -67.6120 C   0  0  0  1  0  0  0  0  0  0  0  0
   21.8725    3.1307  -68.8487 C   0  0  0  1  0  0  0  0  0  0  0  0
   21.7221    0.7742  -69.8875 C   0  0  0  1  0  0  0  0  0  0  0  0
   25.8296    1.1707  -66.2748 N   0  0  0  1  0  0  0  0  0  0  0  0
   27.2965    0.4857  -64.5857 C   0  0  0  1  0  0  0  0  0  0  0  0
   26.4937    1.1851  -63.6614 C   0  0  0  1  0  0  0  0  0  0  0  0
   27.0809    1.0061  -62.4395 N   0  0  0  1  0  0  0  0  0  0  0  0
   28.3159   -0.0766  -63.9004 N   0  0  0  1  0  0  0  0  0  0  0  0
   28.2164    0.2092  -62.6490 N   0  0  0  1  0  0  0  0  0  0  0  0
   25.8151    2.4687  -57.2427 O   0  0  0  1  0  0  0  0  0  0  0  0
   23.9765    2.4948  -65.7953 N   0  0  0  1  0  0  0  0  0  0  0  0
   25.7284    1.4166  -56.2692 C   0  0  0  1  0  0  0  0  0  0  0  0
   22.1173    1.6607  -68.8462 N   0  0  0  1  0  0  0  0  0  0  0  0
   22.8227    1.2490  -67.6215 C   0  0  0  1  0  0  0  0  0  0  0  0
   20.4858    0.1637  -69.9889 C   0  0  0  1  0  0  0  0  0  0  0  0
   20.2434   -0.6726  -71.0620 C   0  0  0  1  0  0  0  0  0  0  0  0
   21.1468   -0.9281  -72.0133 N   0  0  0  1  0  0  0  0  0  0  0  0
   22.3427   -0.3329  -71.9001 C   0  0  0  1  0  0  0  0  0  0  0  0
   22.6687    0.5213  -70.8611 C   0  0  0  1  0  0  0  0  0  0  0  0
   27.4790    0.0013  -66.6492 H   0  0  0  1  0  0  0  0  0  0  0  0
   26.6284    3.4415  -61.5331 H   0  0  0  1  0  0  0  0  0  0  0  0
   26.1598    0.0434  -58.1069 H   0  0  0  1  0  0  0  0  0  0  0  0
   26.6825   -0.5965  -60.3838 H   0  0  0  1  0  0  0  0  0  0  0  0
   26.1048    4.0824  -59.2524 H   0  0  0  1  0  0  0  0  0  0  0  0
   24.5660    2.5439  -67.7962 H   0  0  0  1  0  0  0  0  0  0  0  0
   21.9902    3.7934  -66.7993 H   0  0  0  1  0  0  0  0  0  0  0  0
   23.1955    4.5070  -67.8445 H   0  0  0  1  0  0  0  0  0  0  0  0
   22.2470    3.5824  -69.7435 H   0  0  0  1  0  0  0  0  0  0  0  0
   20.8296    3.3482  -68.7484 H   0  0  0  1  0  0  0  0  0  0  0  0
   23.4065    2.9709  -65.1559 H   0  0  0  1  0  0  0  0  0  0  0  0
   26.7072    1.1885  -55.9016 H   0  0  0  1  0  0  0  0  0  0  0  0
   25.3061    0.5447  -56.7233 H   0  0  0  1  0  0  0  0  0  0  0  0
   25.1075    1.7327  -55.4571 H   0  0  0  1  0  0  0  0  0  0  0  0
   23.4548    0.4073  -67.8134 H   0  0  0  1  0  0  0  0  0  0  0  0
   22.1259    1.0034  -66.8475 H   0  0  0  1  0  0  0  0  0  0  0  0
   19.7521    0.3306  -69.2711 H   0  0  0  1  0  0  0  0  0  0  0  0
   19.3103   -1.1264  -71.1329 H   0  0  0  1  0  0  0  0  0  0  0  0
   23.0604   -0.5222  -72.6286 H   0  0  0  1  0  0  0  0  0  0  0  0
   23.6084    0.9643  -70.8143 H   0  0  0  1  0  0  0  0  0  0  0  0
  1  3  4  0  0  0  0
  1 14  4  0  0  0  0
  1 21  1  0  0  0  0
  2 14  4  0  0  0  0
  2 15  4  0  0  0  0
  2 30  1  0  0  0  0
  3 16  4  0  0  0  0
  4  5  4  0  0  0  0
  4  7  4  0  0  0  0
  4 17  1  0  0  0  0
  5  9  4  0  0  0  0
  5 31  1  0  0  0  0
  6  7  4  0  0  0  0
  6  8  4  0  0  0  0
  6 32  1  0  0  0  0
  7 33  1  0  0  0  0
  8  9  4  0  0  0  0
  8 20  1  0  0  0  0
  9 34  1  0  0  0  0
 10 11  1  0  0  0  0
 10 21  1  0  0  0  0
 10 24  1  0  0  0  0
 10 35  1  0  0  0  0
 11 12  1  0  0  0  0
 11 36  1  0  0  0  0
 11 37  1  0  0  0  0
 12 23  1  0  0  0  0
 12 38  1  0  0  0  0
 12 39  1  0  0  0  0
 13 23  1  0  0  0  0
 13 25  4  0  0  0  0
 13 29  4  0  0  0  0
 15 16  4  0  0  0  0
 15 18  4  0  0  0  0
 16 17  4  0  0  0  0
 17 19  4  0  0  0  0
 18 19  4  0  0  0  0
 20 22  1  0  0  0  0
 21 40  1  0  0  0  0
 22 41  1  0  0  0  0
 22 42  1  0  0  0  0
 22 43  1  0  0  0  0
 23 24  1  0  0  0  0
 24 44  1  0  0  0  0
 24 45  1  0  0  0  0
 25 26  4  0  0  0  0
 25 46  1  0  0  0  0
 26 27  4  0  0  0  0
 26 47  1  0  0  0  0
 27 28  4  0  0  0  0
 28 29  4  0  0  0  0
 28 48  1  0  0  0  0
 29 49  1  0  0  0  0
M  END
> <ConfClashScore>
0 

> <ConfOneFourInteractionScore>
-0.986948 

> <ConfScore>
0.014729 

> <ConfScorePBest>
0.00373984 

> <ConfTolerance>
0.424868 

> <HETNAM>
     OWQ A 303  OWQ                                                       

> <pdb_OW>
Q_303 -16.5129 3.80749 7.62812 0.15963 1.39178 -0.28144 -3.20151 0 0 0 -1.30514 0 0 0 0 0 0 0 0 -8.31393

$$$$
6yky_lig_1.pdb
 OpenBabel04162415593D

 49 53  0  0  0  0  0  0  0  0999 V2000
   25.1048    1.8136  -65.3760 C   0  0  0  1  0  0  0  0  0  0  0  0
   26.9167    0.5034  -65.9326 C   0  0  0  1  0  0  0  0  0  0  0  0
   25.4179    1.8284  -64.0983 N   0  0  0  1  0  0  0  0  0  0  0  0
   26.7286    1.4700  -61.1391 C   0  0  0  1  0  0  0  0  0  0  0  0
   27.1407    0.7713  -60.0200 C   0  0  0  1  0  0  0  0  0  0  0  0
   25.4807    2.9697  -59.7460 C   0  0  0  1  0  0  0  0  0  0  0  0
   25.8952    2.5692  -61.0021 C   0  0  0  1  0  0  0  0  0  0  0  0
   25.8939    2.2690  -58.6235 C   0  0  0  1  0  0  0  0  0  0  0  0
   26.7249    1.1731  -58.7602 C   0  0  0  1  0  0  0  0  0  0  0  0
   23.5954    2.5855  -67.2081 C   0  0  0  1  0  0  0  0  0  0  0  0
   22.7880    3.8840  -67.4283 C   0  0  0  1  0  0  0  0  0  0  0  0
   21.6356    3.5525  -68.3426 C   0  0  0  1  0  0  0  0  0  0  0  0
   20.6692    1.2310  -68.8991 C   0  0  0  1  0  0  0  0  0  0  0  0
   25.8296    1.1707  -66.2747 N   0  0  0  1  0  0  0  0  0  0  0  0
   27.2965    0.4857  -64.5857 C   0  0  0  1  0  0  0  0  0  0  0  0
   26.4936    1.1852  -63.6614 C   0  0  0  1  0  0  0  0  0  0  0  0
   27.0809    1.0061  -62.4395 N   0  0  0  1  0  0  0  0  0  0  0  0
   28.3159   -0.0766  -63.9004 N   0  0  0  1  0  0  0  0  0  0  0  0
   28.2164    0.2092  -62.6490 N   0  0  0  1  0  0  0  0  0  0  0  0
   25.6151    2.6909  -57.3672 O   0  0  0  1  0  0  0  0  0  0  0  0
   24.0213    2.4607  -65.8196 N   0  0  0  1  0  0  0  0  0  0  0  0
   24.6314    3.7276  -57.2262 C   0  0  0  1  0  0  0  0  0  0  0  0
   21.6292    2.0099  -68.2700 N   0  0  0  1  0  0  0  0  0  0  0  0
   22.5959    1.5054  -67.5722 C   0  0  0  1  0  0  0  0  0  0  0  0
   20.8340   -0.1372  -69.0104 C   0  0  0  1  0  0  0  0  0  0  0  0
   19.8512   -0.8759  -69.6414 C   0  0  0  1  0  0  0  0  0  0  0  0
   18.7426   -0.3356  -70.1566 N   0  0  0  1  0  0  0  0  0  0  0  0
   18.5980    0.9926  -70.0454 C   0  0  0  1  0  0  0  0  0  0  0  0
   19.5301    1.8071  -69.4265 C   0  0  0  1  0  0  0  0  0  0  0  0
   27.4789    0.0014  -66.6492 H   0  0  0  1  0  0  0  0  0  0  0  0
   27.7627   -0.0558  -60.1231 H   0  0  0  1  0  0  0  0  0  0  0  0
   24.8587    3.7968  -59.6428 H   0  0  0  1  0  0  0  0  0  0  0  0
   25.5819    3.0924  -61.8446 H   0  0  0  1  0  0  0  0  0  0  0  0
   27.0382    0.6498  -57.9179 H   0  0  0  1  0  0  0  0  0  0  0  0
   24.4517    2.5504  -67.8488 H   0  0  0  1  0  0  0  0  0  0  0  0
   22.4184    4.2472  -66.4922 H   0  0  0  1  0  0  0  0  0  0  0  0
   23.4098    4.6285  -67.8799 H   0  0  0  1  0  0  0  0  0  0  0  0
   21.8146    3.8973  -69.3397 H   0  0  0  1  0  0  0  0  0  0  0  0
   20.7171    3.9657  -67.9813 H   0  0  0  1  0  0  0  0  0  0  0  0
   23.4583    2.8938  -65.1445 H   0  0  0  1  0  0  0  0  0  0  0  0
   24.6956    4.3964  -58.0590 H   0  0  0  1  0  0  0  0  0  0  0  0
   24.8105    4.2681  -56.3203 H   0  0  0  1  0  0  0  0  0  0  0  0
   23.6552    3.2906  -57.1944 H   0  0  0  1  0  0  0  0  0  0  0  0
   22.1984    1.0750  -66.6768 H   0  0  0  1  0  0  0  0  0  0  0  0
   23.0875    0.7472  -68.1452 H   0  0  0  1  0  0  0  0  0  0  0  0
   21.6817   -0.6018  -68.6267 H   0  0  0  1  0  0  0  0  0  0  0  0
   19.9807   -1.9048  -69.7193 H   0  0  0  1  0  0  0  0  0  0  0  0
   17.7437    1.4322  -70.4436 H   0  0  0  1  0  0  0  0  0  0  0  0
   19.3757    2.8335  -69.3598 H   0  0  0  1  0  0  0  0  0  0  0  0
  1  3  4  0  0  0  0
  1 14  4  0  0  0  0
  1 21  1  0  0  0  0
  2 14  4  0  0  0  0
  2 15  4  0  0  0  0
  2 30  1  0  0  0  0
  3 16  4  0  0  0  0
  4  5  4  0  0  0  0
  4  7  4  0  0  0  0
  4 17  1  0  0  0  0
  5  9  4  0  0  0  0
  5 31  1  0  0  0  0
  6  7  4  0  0  0  0
  6  8  4  0  0  0  0
  6 32  1  0  0  0  0
  7 33  1  0  0  0  0
  8  9  4  0  0  0  0
  8 20  1  0  0  0  0
  9 34  1  0  0  0  0
 10 11  1  0  0  0  0
 10 21  1  0  0  0  0
 10 24  1  0  0  0  0
 10 35  1  0  0  0  0
 11 12  1  0  0  0  0
 11 36  1  0  0  0  0
 11 37  1  0  0  0  0
 12 23  1  0  0  0  0
 12 38  1  0  0  0  0
 12 39  1  0  0  0  0
 13 23  1  0  0  0  0
 13 25  4  0  0  0  0
 13 29  4  0  0  0  0
 15 16  4  0  0  0  0
 15 18  4  0  0  0  0
 16 17  4  0  0  0  0
 17 19  4  0  0  0  0
 18 19  4  0  0  0  0
 20 22  1  0  0  0  0
 21 40  1  0  0  0  0
 22 41  1  0  0  0  0
 22 42  1  0  0  0  0
 22 43  1  0  0  0  0
 23 24  1  0  0  0  0
 24 44  1  0  0  0  0
 24 45  1  0  0  0  0
 25 26  4  0  0  0  0
 25 46  1  0  0  0  0
 26 27  4  0  0  0  0
 26 47  1  0  0  0  0
 27 28  4  0  0  0  0
 28 29  4  0  0  0  0
 28 48  1  0  0  0  0
 29 49  1  0  0  0  0
M  END
> <ConfClashScore>
0 

> <ConfOneFourInteractionScore>
-0.984874 

> <ConfScore>
0.0148565 

> <ConfScorePBest>
0.00372651 

> <ConfTolerance>
0.533053 

> <HETNAM>
     OWQ A 303  OWQ                                                       

> <pdb_OW>
Q_303 -16.5129 3.80749 7.62812 0.15963 1.39178 -0.28144 -3.20151 0 0 0 -1.30514 0 0 0 0 0 0 0 0 -8.31393

$$$$
6yky_lig_1.pdb
 OpenBabel04162415593D

 49 53  0  0  0  0  0  0  0  0999 V2000
   25.1049    1.8138  -65.3760 C   0  0  0  1  0  0  0  0  0  0  0  0
   26.9167    0.5034  -65.9326 C   0  0  0  1  0  0  0  0  0  0  0  0
   25.4180    1.8286  -64.0983 N   0  0  0  1  0  0  0  0  0  0  0  0
   26.7287    1.4701  -61.1391 C   0  0  0  1  0  0  0  0  0  0  0  0
   26.4767    2.8126  -60.9280 C   0  0  0  1  0  0  0  0  0  0  0  0
   26.4744    1.0510  -58.7924 C   0  0  0  1  0  0  0  0  0  0  0  0
   26.7303    0.5885  -60.0695 C   0  0  0  1  0  0  0  0  0  0  0  0
   26.2215    2.3974  -58.5805 C   0  0  0  1  0  0  0  0  0  0  0  0
   26.2201    3.2764  -59.6472 C   0  0  0  1  0  0  0  0  0  0  0  0
   23.1004    3.1789  -64.8885 C   0  0  0  1  0  0  0  0  0  0  0  0
   21.7690    3.5619  -65.5920 C   0  0  0  1  0  0  0  0  0  0  0  0
   21.2196    4.8219  -64.8906 C   0  0  0  1  0  0  0  0  0  0  0  0
   22.3868    6.3863  -63.2564 C   0  0  0  1  0  0  0  0  0  0  0  0
   25.8298    1.1708  -66.2748 N   0  0  0  1  0  0  0  0  0  0  0  0
   27.2965    0.4858  -64.5857 C   0  0  0  1  0  0  0  0  0  0  0  0
   26.4937    1.1853  -63.6614 C   0  0  0  1  0  0  0  0  0  0  0  0
   27.0810    1.0063  -62.4395 N   0  0  0  1  0  0  0  0  0  0  0  0
   28.3159   -0.0766  -63.9004 N   0  0  0  1  0  0  0  0  0  0  0  0
   28.2164    0.2092  -62.6490 N   0  0  0  1  0  0  0  0  0  0  0  0
   25.9650    2.9626  -57.3848 O   0  0  0  1  0  0  0  0  0  0  0  0
   24.0036    2.4790  -65.7854 N   0  0  0  1  0  0  0  0  0  0  0  0
   25.9408    2.0453  -56.2667 C   0  0  0  1  0  0  0  0  0  0  0  0
   22.4122    5.3387  -64.1614 N   0  0  0  1  0  0  0  0  0  0  0  0
   23.6209    4.5852  -64.5333 C   0  0  0  1  0  0  0  0  0  0  0  0
   22.8253    7.6438  -63.6278 C   0  0  0  1  0  0  0  0  0  0  0  0
   22.6937    8.6858  -62.7296 C   0  0  0  1  0  0  0  0  0  0  0  0
   22.1643    8.5429  -61.5108 N   0  0  0  1  0  0  0  0  0  0  0  0
   21.7473    7.3174  -61.1623 C   0  0  0  1  0  0  0  0  0  0  0  0
   21.8375    6.2195  -62.0001 C   0  0  0  1  0  0  0  0  0  0  0  0
   27.4789    0.0013  -66.6492 H   0  0  0  1  0  0  0  0  0  0  0  0
   26.4795    3.4747  -61.7301 H   0  0  0  1  0  0  0  0  0  0  0  0
   26.4716    0.3891  -57.9904 H   0  0  0  1  0  0  0  0  0  0  0  0
   26.9240   -0.4210  -60.2278 H   0  0  0  1  0  0  0  0  0  0  0  0
   26.0264    4.2858  -59.4889 H   0  0  0  1  0  0  0  0  0  0  0  0
   22.9325    2.5843  -64.0150 H   0  0  0  1  0  0  0  0  0  0  0  0
   21.9488    3.7688  -66.6262 H   0  0  0  1  0  0  0  0  0  0  0  0
   21.0662    2.7599  -65.5050 H   0  0  0  1  0  0  0  0  0  0  0  0
   20.4311    4.5724  -64.2118 H   0  0  0  1  0  0  0  0  0  0  0  0
   20.8644    5.5361  -65.6038 H   0  0  0  1  0  0  0  0  0  0  0  0
   23.8017    2.4903  -66.7442 H   0  0  0  1  0  0  0  0  0  0  0  0
   25.7676    2.5894  -55.3618 H   0  0  0  1  0  0  0  0  0  0  0  0
   26.8801    1.5367  -56.2025 H   0  0  0  1  0  0  0  0  0  0  0  0
   25.1569    1.3309  -56.4086 H   0  0  0  1  0  0  0  0  0  0  0  0
   24.1030    5.0347  -65.3762 H   0  0  0  1  0  0  0  0  0  0  0  0
   24.3060    4.5393  -63.7126 H   0  0  0  1  0  0  0  0  0  0  0  0
   23.2463    7.8026  -64.5654 H   0  0  0  1  0  0  0  0  0  0  0  0
   23.0235    9.6293  -63.0168 H   0  0  0  1  0  0  0  0  0  0  0  0
   21.3358    7.1852  -60.2164 H   0  0  0  1  0  0  0  0  0  0  0  0
   21.4984    5.2867  -61.6896 H   0  0  0  1  0  0  0  0  0  0  0  0
  1  3  4  0  0  0  0
  1 14  4  0  0  0  0
  1 21  1  0  0  0  0
  2 14  4  0  0  0  0
  2 15  4  0  0  0  0
  2 30  1  0  0  0  0
  3 16  4  0  0  0  0
  4  5  4  0  0  0  0
  4  7  4  0  0  0  0
  4 17  1  0  0  0  0
  5  9  4  0  0  0  0
  5 31  1  0  0  0  0
  6  7  4  0  0  0  0
  6  8  4  0  0  0  0
  6 32  1  0  0  0  0
  7 33  1  0  0  0  0
  8  9  4  0  0  0  0
  8 20  1  0  0  0  0
  9 34  1  0  0  0  0
 10 11  1  0  0  0  0
 10 21  1  0  0  0  0
 10 24  1  0  0  0  0
 10 35  1  0  0  0  0
 11 12  1  0  0  0  0
 11 36  1  0  0  0  0
 11 37  1  0  0  0  0
 12 23  1  0  0  0  0
 12 38  1  0  0  0  0
 12 39  1  0  0  0  0
 13 23  1  0  0  0  0
 13 25  4  0  0  0  0
 13 29  4  0  0  0  0
 15 16  4  0  0  0  0
 15 18  4  0  0  0  0
 16 17  4  0  0  0  0
 17 19  4  0  0  0  0
 18 19  4  0  0  0  0
 20 22  1  0  0  0  0
 21 40  1  0  0  0  0
 22 41  1  0  0  0  0
 22 42  1  0  0  0  0
 22 43  1  0  0  0  0
 23 24  1  0  0  0  0
 24 44  1  0  0  0  0
 24 45  1  0  0  0  0
 25 26  4  0  0  0  0
 25 46  1  0  0  0  0
 26 27  4  0  0  0  0
 26 47  1  0  0  0  0
 27 28  4  0  0  0  0
 28 29  4  0  0  0  0
 28 48  1  0  0  0  0
 29 49  1  0  0  0  0
M  END
> <ConfClashScore>
0 

> <ConfOneFourInteractionScore>
-0.986948 

> <ConfScore>
0.0162183 

> <ConfScorePBest>
0.00371319 

> <ConfTolerance>
0.454262 

> <HETNAM>
     OWQ A 303  OWQ                                                       

> <pdb_OW>
Q_303 -16.5129 3.80749 7.62812 0.15963 1.39178 -0.28144 -3.20151 0 0 0 -1.30514 0 0 0 0 0 0 0 0 -8.31393

$$$$
6yky_lig_1.pdb
 OpenBabel04162415593D

 49 53  0  0  0  0  0  0  0  0999 V2000
   25.1049    1.8137  -65.3760 C   0  0  0  1  0  0  0  0  0  0  0  0
   26.9167    0.5034  -65.9326 C   0  0  0  1  0  0  0  0  0  0  0  0
   25.4180    1.8286  -64.0983 N   0  0  0  1  0  0  0  0  0  0  0  0
   26.6878    1.3787  -61.1216 C   0  0  0  1  0  0  0  0  0  0  0  0
   25.8098    2.4291  -60.9323 C   0  0  0  1  0  0  0  0  0  0  0  0
   26.9457    1.1635  -58.7479 C   0  0  0  1  0  0  0  0  0  0  0  0
   27.2588    0.7467  -60.0280 C   0  0  0  1  0  0  0  0  0  0  0  0
   26.0650    2.2171  -58.5578 C   0  0  0  1  0  0  0  0  0  0  0  0
   25.4959    2.8471  -59.6484 C   0  0  0  1  0  0  0  0  0  0  0  0
   23.0733    3.1713  -64.8335 C   0  0  0  1  0  0  0  0  0  0  0  0
   21.8636    2.2828  -64.5023 C   0  0  0  1  0  0  0  0  0  0  0  0
   20.8094    3.3275  -64.1045 C   0  0  0  1  0  0  0  0  0  0  0  0
   21.0411    5.9079  -63.9883 C   0  0  0  1  0  0  0  0  0  0  0  0
   25.8297    1.1708  -66.2748 N   0  0  0  1  0  0  0  0  0  0  0  0
   27.2965    0.4858  -64.5858 C   0  0  0  1  0  0  0  0  0  0  0  0
   26.4937    1.1854  -63.6614 C   0  0  0  1  0  0  0  0  0  0  0  0
   27.0810    1.0063  -62.4396 N   0  0  0  1  0  0  0  0  0  0  0  0
   28.3159   -0.0766  -63.9004 N   0  0  0  1  0  0  0  0  0  0  0  0
   28.2164    0.2092  -62.6490 N   0  0  0  1  0  0  0  0  0  0  0  0
   25.8392    2.5394  -57.2621 O   0  0  0  1  0  0  0  0  0  0  0  0
   24.0054    2.4869  -65.7333 N   0  0  0  1  0  0  0  0  0  0  0  0
   24.7868    3.4790  -56.9934 C   0  0  0  1  0  0  0  0  0  0  0  0
   21.3946    4.6452  -64.4949 N   0  0  0  1  0  0  0  0  0  0  0  0
   22.4172    4.3574  -65.5178 C   0  0  0  1  0  0  0  0  0  0  0  0
   20.0608    6.6265  -64.6472 C   0  0  0  1  0  0  0  0  0  0  0  0
   19.7025    7.8674  -64.1556 C   0  0  0  1  0  0  0  0  0  0  0  0
   20.2582    8.4166  -63.0713 N   0  0  0  1  0  0  0  0  0  0  0  0
   21.2103    7.7108  -62.4447 C   0  0  0  1  0  0  0  0  0  0  0  0
   21.6272    6.4602  -62.8661 C   0  0  0  1  0  0  0  0  0  0  0  0
   27.4788    0.0012  -66.6491 H   0  0  0  1  0  0  0  0  0  0  0  0
   25.3845    2.9059  -61.7529 H   0  0  0  1  0  0  0  0  0  0  0  0
   27.3708    0.6867  -57.9272 H   0  0  0  1  0  0  0  0  0  0  0  0
   27.9225   -0.0411  -60.1706 H   0  0  0  1  0  0  0  0  0  0  0  0
   24.8321    3.6349  -59.5058 H   0  0  0  1  0  0  0  0  0  0  0  0
   23.5893    3.4717  -63.9457 H   0  0  0  1  0  0  0  0  0  0  0  0
   22.0785    1.6177  -63.6922 H   0  0  0  1  0  0  0  0  0  0  0  0
   21.5500    1.7176  -65.3550 H   0  0  0  1  0  0  0  0  0  0  0  0
   20.6289    3.2951  -63.0504 H   0  0  0  1  0  0  0  0  0  0  0  0
   19.8932    3.1540  -64.6293 H   0  0  0  1  0  0  0  0  0  0  0  0
   23.8035    2.5261  -66.6914 H   0  0  0  1  0  0  0  0  0  0  0  0
   23.8795    3.1383  -57.4469 H   0  0  0  1  0  0  0  0  0  0  0  0
   25.0503    4.4343  -57.3971 H   0  0  0  1  0  0  0  0  0  0  0  0
   24.6466    3.5643  -55.9360 H   0  0  0  1  0  0  0  0  0  0  0  0
   23.0960    5.1734  -65.6528 H   0  0  0  1  0  0  0  0  0  0  0  0
   21.9845    4.0931  -66.4600 H   0  0  0  1  0  0  0  0  0  0  0  0
   19.6017    6.2406  -65.4968 H   0  0  0  1  0  0  0  0  0  0  0  0
   18.9626    8.4010  -64.6550 H   0  0  0  1  0  0  0  0  0  0  0  0
   21.6574    8.1230  -61.6012 H   0  0  0  1  0  0  0  0  0  0  0  0
   22.3677    5.9459  -62.3476 H   0  0  0  1  0  0  0  0  0  0  0  0
  1  3  4  0  0  0  0
  1 14  4  0  0  0  0
  1 21  1  0  0  0  0
  2 14  4  0  0  0  0
  2 15  4  0  0  0  0
  2 30  1  0  0  0  0
  3 16  4  0  0  0  0
  4  5  4  0  0  0  0
  4  7  4  0  0  0  0
  4 17  1  0  0  0  0
  5  9  4  0  0  0  0
  5 31  1  0  0  0  0
  6  7  4  0  0  0  0
  6  8  4  0  0  0  0
  6 32  1  0  0  0  0
  7 33  1  0  0  0  0
  8  9  4  0  0  0  0
  8 20  1  0  0  0  0
  9 34  1  0  0  0  0
 10 11  1  0  0  0  0
 10 21  1  0  0  0  0
 10 24  1  0  0  0  0
 10 35  1  0  0  0  0
 11 12  1  0  0  0  0
 11 36  1  0  0  0  0
 11 37  1  0  0  0  0
 12 23  1  0  0  0  0
 12 38  1  0  0  0  0
 12 39  1  0  0  0  0
 13 23  1  0  0  0  0
 13 25  4  0  0  0  0
 13 29  4  0  0  0  0
 15 16  4  0  0  0  0
 15 18  4  0  0  0  0
 16 17  4  0  0  0  0
 17 19  4  0  0  0  0
 18 19  4  0  0  0  0
 20 22  1  0  0  0  0
 21 40  1  0  0  0  0
 22 41  1  0  0  0  0
 22 42  1  0  0  0  0
 22 43  1  0  0  0  0
 23 24  1  0  0  0  0
 24 44  1  0  0  0  0
 24 45  1  0  0  0  0
 25 26  4  0  0  0  0
 25 46  1  0  0  0  0
 26 27  4  0  0  0  0
 26 47  1  0  0  0  0
 27 28  4  0  0  0  0
 28 29  4  0  0  0  0
 28 48  1  0  0  0  0
 29 49  1  0  0  0  0
M  END
> <ConfClashScore>
0 

> <ConfOneFourInteractionScore>
-0.986948 

> <ConfScore>
0.0167923 

> <ConfScorePBest>
0.00369986 

> <ConfTolerance>
0.374523 

> <HETNAM>
     OWQ A 303  OWQ                                                       

> <pdb_OW>
Q_303 -16.5129 3.80749 7.62812 0.15963 1.39178 -0.28144 -3.20151 0 0 0 -1.30514 0 0 0 0 0 0 0 0 -8.31393

$$$$
6yky_lig_1.pdb
 OpenBabel04162415593D

 49 53  0  0  0  0  0  0  0  0999 V2000
   25.1047    1.8135  -65.3759 C   0  0  0  1  0  0  0  0  0  0  0  0
   26.9167    0.5034  -65.9326 C   0  0  0  1  0  0  0  0  0  0  0  0
   25.4178    1.8283  -64.0981 N   0  0  0  1  0  0  0  0  0  0  0  0
   26.7240    1.3639  -61.1073 C   0  0  0  1  0  0  0  0  0  0  0  0
   25.4651    1.0618  -60.6232 C   0  0  0  1  0  0  0  0  0  0  0  0
   27.2321    2.5206  -59.0698 C   0  0  0  1  0  0  0  0  0  0  0  0
   27.6079    2.0967  -60.3305 C   0  0  0  1  0  0  0  0  0  0  0  0
   25.9696    2.2176  -58.5843 C   0  0  0  1  0  0  0  0  0  0  0  0
   25.0885    1.4870  -59.3589 C   0  0  0  1  0  0  0  0  0  0  0  0
   23.1651    3.1975  -64.7641 C   0  0  0  1  0  0  0  0  0  0  0  0
   21.8991    3.3689  -65.2772 C   0  0  0  1  0  0  0  0  0  0  0  0
   21.5438    4.8259  -65.2966 C   0  0  0  1  0  0  0  0  0  0  0  0
   22.9109    6.8728  -64.7333 C   0  0  0  1  0  0  0  0  0  0  0  0
   25.8296    1.1707  -66.2747 N   0  0  0  1  0  0  0  0  0  0  0  0
   27.2965    0.4858  -64.5857 C   0  0  0  1  0  0  0  0  0  0  0  0
   26.4936    1.1851  -63.6613 C   0  0  0  1  0  0  0  0  0  0  0  0
   27.0809    1.0061  -62.4395 N   0  0  0  1  0  0  0  0  0  0  0  0
   28.3159   -0.0766  -63.9004 N   0  0  0  1  0  0  0  0  0  0  0  0
   28.2164    0.2092  -62.6490 N   0  0  0  1  0  0  0  0  0  0  0  0
   25.5996    2.6374  -57.3510 O   0  0  0  1  0  0  0  0  0  0  0  0
   23.9834    2.4999  -65.7401 N   0  0  0  1  0  0  0  0  0  0  0  0
   24.2433    2.3852  -56.9516 C   0  0  0  1  0  0  0  0  0  0  0  0
   22.7520    5.4813  -64.8244 N   0  0  0  1  0  0  0  0  0  0  0  0
   23.7888    4.5032  -64.4531 C   0  0  0  1  0  0  0  0  0  0  0  0
   22.7166    7.5272  -63.5310 C   0  0  0  1  0  0  0  0  0  0  0  0
   22.8875    8.8978  -63.4850 C   0  0  0  1  0  0  0  0  0  0  0  0
   23.2300    9.6317  -64.5482 N   0  0  0  1  0  0  0  0  0  0  0  0
   23.4109    8.9847  -65.7084 C   0  0  0  1  0  0  0  0  0  0  0  0
   23.2645    7.6152  -65.8431 C   0  0  0  1  0  0  0  0  0  0  0  0
   27.4789    0.0013  -66.6492 H   0  0  0  1  0  0  0  0  0  0  0  0
   24.8006    0.5154  -61.2077 H   0  0  0  1  0  0  0  0  0  0  0  0
   27.8967    3.0669  -58.4854 H   0  0  0  1  0  0  0  0  0  0  0  0
   28.5537    2.3274  -60.6964 H   0  0  0  1  0  0  0  0  0  0  0  0
   24.1426    1.2561  -58.9931 H   0  0  0  1  0  0  0  0  0  0  0  0
   23.1041    2.6159  -63.8680 H   0  0  0  1  0  0  0  0  0  0  0  0
   21.1958    2.8412  -64.6675 H   0  0  0  1  0  0  0  0  0  0  0  0
   21.8666    2.9835  -66.2749 H   0  0  0  1  0  0  0  0  0  0  0  0
   20.7206    5.0265  -64.6430 H   0  0  0  1  0  0  0  0  0  0  0  0
   21.2989    5.1457  -66.2879 H   0  0  0  1  0  0  0  0  0  0  0  0
   23.7235    2.5227  -66.6848 H   0  0  0  1  0  0  0  0  0  0  0  0
   23.5745    2.8046  -57.6738 H   0  0  0  1  0  0  0  0  0  0  0  0
   24.0638    2.8337  -55.9968 H   0  0  0  1  0  0  0  0  0  0  0  0
   24.0815    1.3296  -56.8864 H   0  0  0  1  0  0  0  0  0  0  0  0
   24.0257    4.5746  -63.4122 H   0  0  0  1  0  0  0  0  0  0  0  0
   24.6765    4.6497  -65.0324 H   0  0  0  1  0  0  0  0  0  0  0  0
   22.4471    6.9981  -62.6773 H   0  0  0  1  0  0  0  0  0  0  0  0
   22.7421    9.3829  -62.5767 H   0  0  0  1  0  0  0  0  0  0  0  0
   23.6741    9.5390  -66.5481 H   0  0  0  1  0  0  0  0  0  0  0  0
   23.4178    7.1537  -66.7625 H   0  0  0  1  0  0  0  0  0  0  0  0
  1  3  4  0  0  0  0
  1 14  4  0  0  0  0
  1 21  1  0  0  0  0
  2 14  4  0  0  0  0
  2 15  4  0  0  0  0
  2 30  1  0  0  0  0
  3 16  4  0  0  0  0
  4  5  4  0  0  0  0
  4  7  4  0  0  0  0
  4 17  1  0  0  0  0
  5  9  4  0  0  0  0
  5 31  1  0  0  0  0
  6  7  4  0  0  0  0
  6  8  4  0  0  0  0
  6 32  1  0  0  0  0
  7 33  1  0  0  0  0
  8  9  4  0  0  0  0
  8 20  1  0  0  0  0
  9 34  1  0  0  0  0
 10 11  1  0  0  0  0
 10 21  1  0  0  0  0
 10 24  1  0  0  0  0
 10 35  1  0  0  0  0
 11 12  1  0  0  0  0
 11 36  1  0  0  0  0
 11 37  1  0  0  0  0
 12 23  1  0  0  0  0
 12 38  1  0  0  0  0
 12 39  1  0  0  0  0
 13 23  1  0  0  0  0
 13 25  4  0  0  0  0
 13 29  4  0  0  0  0
 15 16  4  0  0  0  0
 15 18  4  0  0  0  0
 16 17  4  0  0  0  0
 17 19  4  0  0  0  0
 18 19  4  0  0  0  0
 20 22  1  0  0  0  0
 21 40  1  0  0  0  0
 22 41  1  0  0  0  0
 22 42  1  0  0  0  0
 22 43  1  0  0  0  0
 23 24  1  0  0  0  0
 24 44  1  0  0  0  0
 24 45  1  0  0  0  0
 25 26  4  0  0  0  0
 25 46  1  0  0  0  0
 26 27  4  0  0  0  0
 26 47  1  0  0  0  0
 27 28  4  0  0  0  0
 28 29  4  0  0  0  0
 28 48  1  0  0  0  0
 29 49  1  0  0  0  0
M  END
> <ConfClashScore>
0 

> <ConfOneFourInteractionScore>
-0.983869 

> <ConfScore>
0.0169674 

> <ConfScorePBest>
0.00368653 

> <ConfTolerance>
0.551199 

> <HETNAM>
     OWQ A 303  OWQ                                                       

> <pdb_OW>
Q_303 -16.5129 3.80749 7.62812 0.15963 1.39178 -0.28144 -3.20151 0 0 0 -1.30514 0 0 0 0 0 0 0 0 -8.31393

$$$$
6yky_lig_1.pdb
 OpenBabel04162415593D

 49 53  0  0  0  0  0  0  0  0999 V2000
   25.1048    1.8135  -65.3761 C   0  0  0  1  0  0  0  0  0  0  0  0
   26.9167    0.5034  -65.9326 C   0  0  0  1  0  0  0  0  0  0  0  0
   25.4179    1.8283  -64.0983 N   0  0  0  1  0  0  0  0  0  0  0  0
   26.8384    1.5662  -61.1519 C   0  0  0  1  0  0  0  0  0  0  0  0
   25.6838    1.1869  -60.4939 C   0  0  0  1  0  0  0  0  0  0  0  0
   27.3406    3.1086  -59.3867 C   0  0  0  1  0  0  0  0  0  0  0  0
   27.6668    2.5303  -60.5990 C   0  0  0  1  0  0  0  0  0  0  0  0
   26.1825    2.7284  -58.7265 C   0  0  0  1  0  0  0  0  0  0  0  0
   25.3567    1.7670  -59.2781 C   0  0  0  1  0  0  0  0  0  0  0  0
   23.1576    3.2560  -64.9009 C   0  0  0  1  0  0  0  0  0  0  0  0
   22.5518    2.3749  -63.8480 C   0  0  0  1  0  0  0  0  0  0  0  0
   21.3571    1.7442  -64.6167 C   0  0  0  1  0  0  0  0  0  0  0  0
   19.7911    2.8330  -66.1964 C   0  0  0  1  0  0  0  0  0  0  0  0
   25.8297    1.1707  -66.2748 N   0  0  0  1  0  0  0  0  0  0  0  0
   27.2964    0.4857  -64.5857 C   0  0  0  1  0  0  0  0  0  0  0  0
   26.4936    1.1851  -63.6615 C   0  0  0  1  0  0  0  0  0  0  0  0
   27.0809    1.0061  -62.4395 N   0  0  0  1  0  0  0  0  0  0  0  0
   28.3159   -0.0766  -63.9004 N   0  0  0  1  0  0  0  0  0  0  0  0
   28.2164    0.2092  -62.6490 N   0  0  0  1  0  0  0  0  0  0  0  0
   25.9650    3.3663  -57.5520 O   0  0  0  1  0  0  0  0  0  0  0  0
   24.0075    2.4763  -65.7839 N   0  0  0  1  0  0  0  0  0  0  0  0
   24.6795    3.1883  -56.9367 C   0  0  0  1  0  0  0  0  0  0  0  0
   20.9956    2.8034  -65.5221 N   0  0  0  1  0  0  0  0  0  0  0  0
   22.0033    3.8376  -65.6666 C   0  0  0  1  0  0  0  0  0  0  0  0
   19.5671    3.7680  -67.1899 C   0  0  0  1  0  0  0  0  0  0  0  0
   18.3887    3.7046  -67.9089 C   0  0  0  1  0  0  0  0  0  0  0  0
   17.4448    2.7835  -67.6929 N   0  0  0  1  0  0  0  0  0  0  0  0
   17.6732    1.8858  -66.7238 C   0  0  0  1  0  0  0  0  0  0  0  0
   18.8262    1.8738  -65.9585 C   0  0  0  1  0  0  0  0  0  0  0  0
   27.4789    0.0013  -66.6493 H   0  0  0  1  0  0  0  0  0  0  0  0
   25.0603    0.4664  -60.9107 H   0  0  0  1  0  0  0  0  0  0  0  0
   27.9640    3.8291  -58.9698 H   0  0  0  1  0  0  0  0  0  0  0  0
   28.5335    2.8186  -61.0961 H   0  0  0  1  0  0  0  0  0  0  0  0
   24.4900    1.4787  -58.7809 H   0  0  0  1  0  0  0  0  0  0  0  0
   23.7335    4.0354  -64.4472 H   0  0  0  1  0  0  0  0  0  0  0  0
   23.2432    1.6271  -63.5200 H   0  0  0  1  0  0  0  0  0  0  0  0
   22.2171    2.9455  -63.0070 H   0  0  0  1  0  0  0  0  0  0  0  0
   21.6564    0.8641  -65.1468 H   0  0  0  1  0  0  0  0  0  0  0  0
   20.5509    1.5056  -63.9549 H   0  0  0  1  0  0  0  0  0  0  0  0
   23.7673    2.4303  -66.7329 H   0  0  0  1  0  0  0  0  0  0  0  0
   24.6348    3.7575  -56.0318 H   0  0  0  1  0  0  0  0  0  0  0  0
   24.5315    2.1523  -56.7138 H   0  0  0  1  0  0  0  0  0  0  0  0
   23.9147    3.5225  -57.6062 H   0  0  0  1  0  0  0  0  0  0  0  0
   21.6771    4.7613  -65.2361 H   0  0  0  1  0  0  0  0  0  0  0  0
   22.2571    3.9924  -66.6944 H   0  0  0  1  0  0  0  0  0  0  0  0
   20.2722    4.5053  -67.3923 H   0  0  0  1  0  0  0  0  0  0  0  0
   18.2282    4.4098  -68.6563 H   0  0  0  1  0  0  0  0  0  0  0  0
   16.9486    1.1632  -66.5380 H   0  0  0  1  0  0  0  0  0  0  0  0
   18.9635    1.1563  -65.2183 H   0  0  0  1  0  0  0  0  0  0  0  0
  1  3  4  0  0  0  0
  1 14  4  0  0  0  0
  1 21  1  0  0  0  0
  2 14  4  0  0  0  0
  2 15  4  0  0  0  0
  2 30  1  0  0  0  0
  3 16  4  0  0  0  0
  4  5  4  0  0  0  0
  4  7  4  0  0  0  0
  4 17  1  0  0  0  0
  5  9  4  0  0  0  0
  5 31  1  0  0  0  0
  6  7  4  0  0  0  0
  6  8  4  0  0  0  0
  6 32  1  0  0  0  0
  7 33  1  0  0  0  0
  8  9  4  0  0  0  0
  8 20  1  0  0  0  0
  9 34  1  0  0  0  0
 10 11  1  0  0  0  0
 10 21  1  0  0  0  0
 10 24  1  0  0  0  0
 10 35  1  0  0  0  0
 11 12  1  0  0  0  0
 11 36  1  0  0  0  0
 11 37  1  0  0  0  0
 12 23  1  0  0  0  0
 12 38  1  0  0  0  0
 12 39  1  0  0  0  0
 13 23  1  0  0  0  0
 13 25  4  0  0  0  0
 13 29  4  0  0  0  0
 15 16  4  0  0  0  0
 15 18  4  0  0  0  0
 16 17  4  0  0  0  0
 17 19  4  0  0  0  0
 18 19  4  0  0  0  0
 20 22  1  0  0  0  0
 21 40  1  0  0  0  0
 22 41  1  0  0  0  0
 22 42  1  0  0  0  0
 22 43  1  0  0  0  0
 23 24  1  0  0  0  0
 24 44  1  0  0  0  0
 24 45  1  0  0  0  0
 25 26  4  0  0  0  0
 25 46  1  0  0  0  0
 26 27  4  0  0  0  0
 26 47  1  0  0  0  0
 27 28  4  0  0  0  0
 28 29  4  0  0  0  0
 28 48  1  0  0  0  0
 29 49  1  0  0  0  0
M  END
> <ConfClashScore>
0 

> <ConfOneFourInteractionScore>
-0.984874 

> <ConfScore>
0.0178809 

> <ConfScorePBest>
0.0036732 

> <ConfTolerance>
0.614965 

> <HETNAM>
     OWQ A 303  OWQ                                                       

> <pdb_OW>
Q_303 -16.5129 3.80749 7.62812 0.15963 1.39178 -0.28144 -3.20151 0 0 0 -1.30514 0 0 0 0 0 0 0 0 -8.31393

$$$$
6yky_lig_1.pdb
 OpenBabel04162415593D

 49 53  0  0  0  0  0  0  0  0999 V2000
   25.1047    1.8135  -65.3759 C   0  0  0  1  0  0  0  0  0  0  0  0
   26.9167    0.5034  -65.9326 C   0  0  0  1  0  0  0  0  0  0  0  0
   25.4178    1.8283  -64.0982 N   0  0  0  1  0  0  0  0  0  0  0  0
   26.7238    1.3638  -61.1072 C   0  0  0  1  0  0  0  0  0  0  0  0
   25.9355    0.4803  -60.3946 C   0  0  0  1  0  0  0  0  0  0  0  0
   26.6167    2.9268  -59.2926 C   0  0  0  1  0  0  0  0  0  0  0  0
   27.0628    2.5899  -60.5567 C   0  0  0  1  0  0  0  0  0  0  0  0
   25.8259    2.0407  -58.5776 C   0  0  0  1  0  0  0  0  0  0  0  0
   25.4880    0.8182  -59.1268 C   0  0  0  1  0  0  0  0  0  0  0  0
   23.5914    2.4687  -67.2064 C   0  0  0  1  0  0  0  0  0  0  0  0
   23.6376    3.8846  -67.8445 C   0  0  0  1  0  0  0  0  0  0  0  0
   22.6125    3.9073  -68.9976 C   0  0  0  1  0  0  0  0  0  0  0  0
   20.7286    2.2175  -69.5730 C   0  0  0  1  0  0  0  0  0  0  0  0
   25.8296    1.1707  -66.2747 N   0  0  0  1  0  0  0  0  0  0  0  0
   27.2964    0.4857  -64.5857 C   0  0  0  1  0  0  0  0  0  0  0  0
   26.4936    1.1851  -63.6614 C   0  0  0  1  0  0  0  0  0  0  0  0
   27.0809    1.0061  -62.4395 N   0  0  0  1  0  0  0  0  0  0  0  0
   28.3159   -0.0766  -63.9005 N   0  0  0  1  0  0  0  0  0  0  0  0
   28.2164    0.2093  -62.6490 N   0  0  0  1  0  0  0  0  0  0  0  0
   25.3845    2.3729  -57.3412 O   0  0  0  1  0  0  0  0  0  0  0  0
   23.9767    2.4947  -65.7951 N   0  0  0  1  0  0  0  0  0  0  0  0
   25.8916    3.5880  -56.7680 C   0  0  0  1  0  0  0  0  0  0  0  0
   21.7538    2.7267  -68.6975 N   0  0  0  1  0  0  0  0  0  0  0  0
   22.0942    2.1510  -67.3862 C   0  0  0  1  0  0  0  0  0  0  0  0
   20.9967    1.1778  -70.4440 C   0  0  0  1  0  0  0  0  0  0  0  0
   20.0119    0.7809  -71.3284 C   0  0  0  1  0  0  0  0  0  0  0  0
   18.8059    1.3535  -71.3906 N   0  0  0  1  0  0  0  0  0  0  0  0
   18.5610    2.3632  -70.5434 C   0  0  0  1  0  0  0  0  0  0  0  0
   19.4877    2.8220  -69.6235 C   0  0  0  1  0  0  0  0  0  0  0  0
   27.4789    0.0015  -66.6492 H   0  0  0  1  0  0  0  0  0  0  0  0
   25.6778   -0.4380  -60.8094 H   0  0  0  1  0  0  0  0  0  0  0  0
   26.8743    3.8450  -58.8778 H   0  0  0  1  0  0  0  0  0  0  0  0
   27.6527    3.2564  -61.0946 H   0  0  0  1  0  0  0  0  0  0  0  0
   24.8981    0.1518  -58.5889 H   0  0  0  1  0  0  0  0  0  0  0  0
   24.2118    1.7740  -67.7332 H   0  0  0  1  0  0  0  0  0  0  0  0
   24.6183    4.0823  -68.2239 H   0  0  0  1  0  0  0  0  0  0  0  0
   23.3816    4.6230  -67.1138 H   0  0  0  1  0  0  0  0  0  0  0  0
   23.0964    3.8009  -69.9459 H   0  0  0  1  0  0  0  0  0  0  0  0
   22.0411    4.8120  -68.9877 H   0  0  0  1  0  0  0  0  0  0  0  0
   23.4362    2.9941  -65.1480 H   0  0  0  1  0  0  0  0  0  0  0  0
   26.9471    3.4983  -56.6166 H   0  0  0  1  0  0  0  0  0  0  0  0
   25.4108    3.7669  -55.8289 H   0  0  0  1  0  0  0  0  0  0  0  0
   25.6949    4.4043  -57.4311 H   0  0  0  1  0  0  0  0  0  0  0  0
   21.5147    2.6065  -66.6106 H   0  0  0  1  0  0  0  0  0  0  0  0
   21.9283    1.0939  -67.3822 H   0  0  0  1  0  0  0  0  0  0  0  0
   21.9221    0.7033  -70.4337 H   0  0  0  1  0  0  0  0  0  0  0  0
   20.2198   -0.0035  -71.9789 H   0  0  0  1  0  0  0  0  0  0  0  0
   17.6294    2.8242  -70.5792 H   0  0  0  1  0  0  0  0  0  0  0  0
   19.2541    3.6069  -68.9825 H   0  0  0  1  0  0  0  0  0  0  0  0
  1  3  4  0  0  0  0
  1 14  4  0  0  0  0
  1 21  1  0  0  0  0
  2 14  4  0  0  0  0
  2 15  4  0  0  0  0
  2 30  1  0  0  0  0
  3 16  4  0  0  0  0
  4  5  4  0  0  0  0
  4  7  4  0  0  0  0
  4 17  1  0  0  0  0
  5  9  4  0  0  0  0
  5 31  1  0  0  0  0
  6  7  4  0  0  0  0
  6  8  4  0  0  0  0
  6 32  1  0  0  0  0
  7 33  1  0  0  0  0
  8  9  4  0  0  0  0
  8 20  1  0  0  0  0
  9 34  1  0  0  0  0
 10 11  1  0  0  0  0
 10 21  1  0  0  0  0
 10 24  1  0  0  0  0
 10 35  1  0  0  0  0
 11 12  1  0  0  0  0
 11 36  1  0  0  0  0
 11 37  1  0  0  0  0
 12 23  1  0  0  0  0
 12 38  1  0  0  0  0
 12 39  1  0  0  0  0
 13 23  1  0  0  0  0
 13 25  4  0  0  0  0
 13 29  4  0  0  0  0
 15 16  4  0  0  0  0
 15 18  4  0  0  0  0
 16 17  4  0  0  0  0
 17 19  4  0  0  0  0
 18 19  4  0  0  0  0
 20 22  1  0  0  0  0
 21 40  1  0  0  0  0
 22 41  1  0  0  0  0
 22 42  1  0  0  0  0
 22 43  1  0  0  0  0
 23 24  1  0  0  0  0
 24 44  1  0  0  0  0
 24 45  1  0  0  0  0
 25 26  4  0  0  0  0
 25 46  1  0  0  0  0
 26 27  4  0  0  0  0
 26 47  1  0  0  0  0
 27 28  4  0  0  0  0
 28 29  4  0  0  0  0
 28 48  1  0  0  0  0
 29 49  1  0  0  0  0
M  END
> <ConfClashScore>
0 

> <ConfOneFourInteractionScore>
-0.991755 

> <ConfScore>
0.0192231 

> <ConfScorePBest>
0.00365987 

> <ConfTolerance>
0.376708 

> <HETNAM>
     OWQ A 303  OWQ                                                       

> <pdb_OW>
Q_303 -16.5129 3.80749 7.62812 0.15963 1.39178 -0.28144 -3.20151 0 0 0 -1.30514 0 0 0 0 0 0 0 0 -8.31393

$$$$
6yky_lig_1.pdb
 OpenBabel04162415593D

 49 53  0  0  0  0  0  0  0  0999 V2000
   25.1047    1.8134  -65.3759 C   0  0  0  1  0  0  0  0  0  0  0  0
   26.9167    0.5034  -65.9326 C   0  0  0  1  0  0  0  0  0  0  0  0
   25.4177    1.8282  -64.0983 N   0  0  0  1  0  0  0  0  0  0  0  0
   26.6709    1.3256  -61.1128 C   0  0  0  1  0  0  0  0  0  0  0  0
   25.7066    0.5613  -60.4835 C   0  0  0  1  0  0  0  0  0  0  0  0
   26.7131    2.8196  -59.2384 C   0  0  0  1  0  0  0  0  0  0  0  0
   27.1730    2.4579  -60.4905 C   0  0  0  1  0  0  0  0  0  0  0  0
   25.7460    2.0530  -58.6071 C   0  0  0  1  0  0  0  0  0  0  0  0
   25.2454    0.9240  -59.2277 C   0  0  0  1  0  0  0  0  0  0  0  0
   23.1056    3.1279  -64.8912 C   0  0  0  1  0  0  0  0  0  0  0  0
   21.7109    2.5130  -64.9236 C   0  0  0  1  0  0  0  0  0  0  0  0
   21.0391    3.1762  -66.1330 C   0  0  0  1  0  0  0  0  0  0  0  0
   21.3831    5.4836  -67.1468 C   0  0  0  1  0  0  0  0  0  0  0  0
   25.8296    1.1706  -66.2747 N   0  0  0  1  0  0  0  0  0  0  0  0
   27.2965    0.4857  -64.5857 C   0  0  0  1  0  0  0  0  0  0  0  0
   26.4936    1.1851  -63.6614 C   0  0  0  1  0  0  0  0  0  0  0  0
   27.0809    1.0061  -62.4395 N   0  0  0  1  0  0  0  0  0  0  0  0
   28.3159   -0.0766  -63.9004 N   0  0  0  1  0  0  0  0  0  0  0  0
   28.2164    0.2092  -62.6490 N   0  0  0  1  0  0  0  0  0  0  0  0
   25.2182    2.3094  -57.3902 O   0  0  0  1  0  0  0  0  0  0  0  0
   23.9904    2.4738  -65.8607 N   0  0  0  1  0  0  0  0  0  0  0  0
   25.4101    3.6018  -56.7942 C   0  0  0  1  0  0  0  0  0  0  0  0
   21.7393    4.4694  -66.2351 N   0  0  0  1  0  0  0  0  0  0  0  0
   22.8570    4.5833  -65.2740 C   0  0  0  1  0  0  0  0  0  0  0  0
   21.9231    5.4395  -68.4188 C   0  0  0  1  0  0  0  0  0  0  0  0
   21.5778    6.4266  -69.3221 C   0  0  0  1  0  0  0  0  0  0  0  0
   20.7460    7.4313  -69.0304 N   0  0  0  1  0  0  0  0  0  0  0  0
   20.2333    7.4641  -67.7921 C   0  0  0  1  0  0  0  0  0  0  0  0
   20.5222    6.5153  -66.8270 C   0  0  0  1  0  0  0  0  0  0  0  0
   27.4790    0.0013  -66.6492 H   0  0  0  1  0  0  0  0  0  0  0  0
   25.3270   -0.2861  -60.9522 H   0  0  0  1  0  0  0  0  0  0  0  0
   27.0927    3.6669  -58.7697 H   0  0  0  1  0  0  0  0  0  0  0  0
   27.8958    3.0353  -60.9658 H   0  0  0  1  0  0  0  0  0  0  0  0
   24.5227    0.3466  -58.7524 H   0  0  0  1  0  0  0  0  0  0  0  0
   23.5330    3.0567  -63.9129 H   0  0  0  1  0  0  0  0  0  0  0  0
   21.7662    1.4524  -65.0538 H   0  0  0  1  0  0  0  0  0  0  0  0
   21.1769    2.7348  -64.0233 H   0  0  0  1  0  0  0  0  0  0  0  0
   19.9927    3.3185  -65.9612 H   0  0  0  1  0  0  0  0  0  0  0  0
   21.1796    2.5924  -67.0186 H   0  0  0  1  0  0  0  0  0  0  0  0
   23.7982    2.5037  -66.8213 H   0  0  0  1  0  0  0  0  0  0  0  0
   26.4516    3.8473  -56.8010 H   0  0  0  1  0  0  0  0  0  0  0  0
   25.0543    3.5855  -55.7852 H   0  0  0  1  0  0  0  0  0  0  0  0
   24.8673    4.3358  -57.3524 H   0  0  0  1  0  0  0  0  0  0  0  0
   22.5769    5.1658  -64.4212 H   0  0  0  1  0  0  0  0  0  0  0  0
   23.7208    5.0159  -65.7339 H   0  0  0  1  0  0  0  0  0  0  0  0
   22.5769    4.6778  -68.6907 H   0  0  0  1  0  0  0  0  0  0  0  0
   21.9858    6.3856  -70.2778 H   0  0  0  1  0  0  0  0  0  0  0  0
   19.5870    8.2405  -67.5448 H   0  0  0  1  0  0  0  0  0  0  0  0
   20.0991    6.5777  -65.8790 H   0  0  0  1  0  0  0  0  0  0  0  0
  1  3  4  0  0  0  0
  1 14  4  0  0  0  0
  1 21  1  0  0  0  0
  2 14  4  0  0  0  0
  2 15  4  0  0  0  0
  2 30  1  0  0  0  0
  3 16  4  0  0  0  0
  4  5  4  0  0  0  0
  4  7  4  0  0  0  0
  4 17  1  0  0  0  0
  5  9  4  0  0  0  0
  5 31  1  0  0  0  0
  6  7  4  0  0  0  0
  6  8  4  0  0  0  0
  6 32  1  0  0  0  0
  7 33  1  0  0  0  0
  8  9  4  0  0  0  0
  8 20  1  0  0  0  0
  9 34  1  0  0  0  0
 10 11  1  0  0  0  0
 10 21  1  0  0  0  0
 10 24  1  0  0  0  0
 10 35  1  0  0  0  0
 11 12  1  0  0  0  0
 11 36  1  0  0  0  0
 11 37  1  0  0  0  0
 12 23  1  0  0  0  0
 12 38  1  0  0  0  0
 12 39  1  0  0  0  0
 13 23  1  0  0  0  0
 13 25  4  0  0  0  0
 13 29  4  0  0  0  0
 15 16  4  0  0  0  0
 15 18  4  0  0  0  0
 16 17  4  0  0  0  0
 17 19  4  0  0  0  0
 18 19  4  0  0  0  0
 20 22  1  0  0  0  0
 21 40  1  0  0  0  0
 22 41  1  0  0  0  0
 22 42  1  0  0  0  0
 22 43  1  0  0  0  0
 23 24  1  0  0  0  0
 24 44  1  0  0  0  0
 24 45  1  0  0  0  0
 25 26  4  0  0  0  0
 25 46  1  0  0  0  0
 26 27  4  0  0  0  0
 26 47  1  0  0  0  0
 27 28  4  0  0  0  0
 28 29  4  0  0  0  0
 28 48  1  0  0  0  0
 29 49  1  0  0  0  0
M  END
> <ConfClashScore>
0 

> <ConfOneFourInteractionScore>
-0.986948 

> <ConfScore>
0.0194471 

> <ConfScorePBest>
0.00364655 

> <ConfTolerance>
0.602141 

> <HETNAM>
     OWQ A 303  OWQ                                                       

> <pdb_OW>
Q_303 -16.5129 3.80749 7.62812 0.15963 1.39178 -0.28144 -3.20151 0 0 0 -1.30514 0 0 0 0 0 0 0 0 -8.31393

$$$$
6yky_lig_1.pdb
 OpenBabel04162415593D

 49 53  0  0  0  0  0  0  0  0999 V2000
   25.1049    1.8137  -65.3760 C   0  0  0  1  0  0  0  0  0  0  0  0
   26.9167    0.5034  -65.9325 C   0  0  0  1  0  0  0  0  0  0  0  0
   25.4179    1.8285  -64.0983 N   0  0  0  1  0  0  0  0  0  0  0  0
   26.7670    1.4474  -61.1215 C   0  0  0  1  0  0  0  0  0  0  0  0
   27.6193    1.0744  -60.0995 C   0  0  0  1  0  0  0  0  0  0  0  0
   25.3002    2.4736  -59.5269 C   0  0  0  1  0  0  0  0  0  0  0  0
   25.6044    2.1457  -60.8347 C   0  0  0  1  0  0  0  0  0  0  0  0
   26.1550    2.0996  -58.5017 C   0  0  0  1  0  0  0  0  0  0  0  0
   27.3141    1.4033  -58.7879 C   0  0  0  1  0  0  0  0  0  0  0  0
   23.0176    3.2818  -65.0628 C   0  0  0  1  0  0  0  0  0  0  0  0
   21.5891    2.7362  -65.2827 C   0  0  0  1  0  0  0  0  0  0  0  0
   20.6738    3.9206  -65.4651 C   0  0  0  1  0  0  0  0  0  0  0  0
   21.3216    6.3236  -66.0412 C   0  0  0  1  0  0  0  0  0  0  0  0
   25.8297    1.1708  -66.2748 N   0  0  0  1  0  0  0  0  0  0  0  0
   27.2965    0.4858  -64.5857 C   0  0  0  1  0  0  0  0  0  0  0  0
   26.4937    1.1853  -63.6614 C   0  0  0  1  0  0  0  0  0  0  0  0
   27.0810    1.0062  -62.4395 N   0  0  0  1  0  0  0  0  0  0  0  0
   28.3159   -0.0766  -63.9004 N   0  0  0  1  0  0  0  0  0  0  0  0
   28.2164    0.2092  -62.6490 N   0  0  0  1  0  0  0  0  0  0  0  0
   25.8048    2.3339  -57.2146 O   0  0  0  1  0  0  0  0  0  0  0  0
   24.0075    2.4764  -65.7838 N   0  0  0  1  0  0  0  0  0  0  0  0
   26.6814    1.8311  -56.1942 C   0  0  0  1  0  0  0  0  0  0  0  0
   21.6934    5.0495  -65.7315 N   0  0  0  1  0  0  0  0  0  0  0  0
   22.9312    4.6828  -65.6355 C   0  0  0  1  0  0  0  0  0  0  0  0
   20.0026    6.7368  -66.0750 C   0  0  0  1  0  0  0  0  0  0  0  0
   19.7261    8.0520  -66.3966 C   0  0  0  1  0  0  0  0  0  0  0  0
   20.6711    8.9531  -66.6819 N   0  0  0  1  0  0  0  0  0  0  0  0
   21.9453    8.5377  -66.6496 C   0  0  0  1  0  0  0  0  0  0  0  0
   22.3118    7.2410  -66.3341 C   0  0  0  1  0  0  0  0  0  0  0  0
   27.4789    0.0013  -66.6491 H   0  0  0  1  0  0  0  0  0  0  0  0
   28.4895    0.5471  -60.3143 H   0  0  0  1  0  0  0  0  0  0  0  0
   24.4300    3.0010  -59.3119 H   0  0  0  1  0  0  0  0  0  0  0  0
   24.9611    2.4229  -61.6034 H   0  0  0  1  0  0  0  0  0  0  0  0
   27.9575    1.1262  -58.0193 H   0  0  0  1  0  0  0  0  0  0  0  0
   23.2656    3.3052  -64.0222 H   0  0  0  1  0  0  0  0  0  0  0  0
   21.5647    2.1181  -66.1558 H   0  0  0  1  0  0  0  0  0  0  0  0
   21.2815    2.1648  -64.4318 H   0  0  0  1  0  0  0  0  0  0  0  0
   20.0991    4.1115  -64.5830 H   0  0  0  1  0  0  0  0  0  0  0  0
   20.0154    3.7827  -66.2973 H   0  0  0  1  0  0  0  0  0  0  0  0
   23.8377    2.4076  -66.7464 H   0  0  0  1  0  0  0  0  0  0  0  0
   26.3433    2.1665  -55.2359 H   0  0  0  1  0  0  0  0  0  0  0  0
   27.6739    2.1909  -56.3679 H   0  0  0  1  0  0  0  0  0  0  0  0
   26.6798    0.7614  -56.2184 H   0  0  0  1  0  0  0  0  0  0  0  0
   23.3802    4.6962  -66.6066 H   0  0  0  1  0  0  0  0  0  0  0  0
   23.4519    5.3607  -64.9920 H   0  0  0  1  0  0  0  0  0  0  0  0
   19.2330    6.0704  -65.8625 H   0  0  0  1  0  0  0  0  0  0  0  0
   18.7318    8.3563  -66.4176 H   0  0  0  1  0  0  0  0  0  0  0  0
   22.6950    9.2232  -66.8725 H   0  0  0  1  0  0  0  0  0  0  0  0
   23.3137    6.9625  -66.3179 H   0  0  0  1  0  0  0  0  0  0  0  0
  1  3  4  0  0  0  0
  1 14  4  0  0  0  0
  1 21  1  0  0  0  0
  2 14  4  0  0  0  0
  2 15  4  0  0  0  0
  2 30  1  0  0  0  0
  3 16  4  0  0  0  0
  4  5  4  0  0  0  0
  4  7  4  0  0  0  0
  4 17  1  0  0  0  0
  5  9  4  0  0  0  0
  5 31  1  0  0  0  0
  6  7  4  0  0  0  0
  6  8  4  0  0  0  0
  6 32  1  0  0  0  0
  7 33  1  0  0  0  0
  8  9  4  0  0  0  0
  8 20  1  0  0  0  0
  9 34  1  0  0  0  0
 10 11  1  0  0  0  0
 10 21  1  0  0  0  0
 10 24  1  0  0  0  0
 10 35  1  0  0  0  0
 11 12  1  0  0  0  0
 11 36  1  0  0  0  0
 11 37  1  0  0  0  0
 12 23  1  0  0  0  0
 12 38  1  0  0  0  0
 12 39  1  0  0  0  0
 13 23  1  0  0  0  0
 13 25  4  0  0  0  0
 13 29  4  0  0  0  0
 15 16  4  0  0  0  0
 15 18  4  0  0  0  0
 16 17  4  0  0  0  0
 17 19  4  0  0  0  0
 18 19  4  0  0  0  0
 20 22  1  0  0  0  0
 21 40  1  0  0  0  0
 22 41  1  0  0  0  0
 22 42  1  0  0  0  0
 22 43  1  0  0  0  0
 23 24  1  0  0  0  0
 24 44  1  0  0  0  0
 24 45  1  0  0  0  0
 25 26  4  0  0  0  0
 25 46  1  0  0  0  0
 26 27  4  0  0  0  0
 26 47  1  0  0  0  0
 27 28  4  0  0  0  0
 28 29  4  0  0  0  0
 28 48  1  0  0  0  0
 29 49  1  0  0  0  0
M  END
> <ConfClashScore>
0 

> <ConfOneFourInteractionScore>
-0.986948 

> <ConfScore>
0.020056 

> <ConfScorePBest>
0.00363322 

> <ConfTolerance>
0.600868 

> <HETNAM>
     OWQ A 303  OWQ                                                       

> <pdb_OW>
Q_303 -16.5129 3.80749 7.62812 0.15963 1.39178 -0.28144 -3.20151 0 0 0 -1.30514 0 0 0 0 0 0 0 0 -8.31393

$$$$
6yky_lig_1.pdb
 OpenBabel04162415593D

 49 53  0  0  0  0  0  0  0  0999 V2000
   25.1048    1.8135  -65.3761 C   0  0  0  1  0  0  0  0  0  0  0  0
   26.9167    0.5034  -65.9326 C   0  0  0  1  0  0  0  0  0  0  0  0
   25.4178    1.8284  -64.0983 N   0  0  0  1  0  0  0  0  0  0  0  0
   26.7285    1.4700  -61.1391 C   0  0  0  1  0  0  0  0  0  0  0  0
   26.0553    2.6735  -61.0473 C   0  0  0  1  0  0  0  0  0  0  0  0
   26.8299    1.3415  -58.7473 C   0  0  0  1  0  0  0  0  0  0  0  0
   27.1188    0.8042  -59.9876 C   0  0  0  1  0  0  0  0  0  0  0  0
   26.1546    2.5486  -58.6551 C   0  0  0  1  0  0  0  0  0  0  0  0
   25.7656    3.2122  -59.8033 C   0  0  0  1  0  0  0  0  0  0  0  0
   22.9942    3.0773  -64.9217 C   0  0  0  1  0  0  0  0  0  0  0  0
   21.5727    2.7622  -65.4382 C   0  0  0  1  0  0  0  0  0  0  0  0
   20.7477    4.0157  -65.2906 C   0  0  0  1  0  0  0  0  0  0  0  0
   21.5733    6.4532  -64.9588 C   0  0  0  1  0  0  0  0  0  0  0  0
   25.8297    1.1706  -66.2749 N   0  0  0  1  0  0  0  0  0  0  0  0
   27.2964    0.4858  -64.5857 C   0  0  0  1  0  0  0  0  0  0  0  0
   26.4937    1.1852  -63.6614 C   0  0  0  1  0  0  0  0  0  0  0  0
   27.0809    1.0062  -62.4395 N   0  0  0  1  0  0  0  0  0  0  0  0
   28.3159   -0.0766  -63.9004 N   0  0  0  1  0  0  0  0  0  0  0  0
   28.2164    0.2093  -62.6490 N   0  0  0  1  0  0  0  0  0  0  0  0
   25.9501    3.1611  -57.4647 O   0  0  0  1  0  0  0  0  0  0  0  0
   24.0148    2.4719  -65.7811 N   0  0  0  1  0  0  0  0  0  0  0  0
   25.3586    4.4695  -57.4930 C   0  0  0  1  0  0  0  0  0  0  0  0
   21.8491    5.0753  -65.0692 N   0  0  0  1  0  0  0  0  0  0  0  0
   23.0472    4.5907  -64.9935 C   0  0  0  1  0  0  0  0  0  0  0  0
   21.0973    6.9310  -63.7518 C   0  0  0  1  0  0  0  0  0  0  0  0
   20.8273    8.2808  -63.6312 C   0  0  0  1  0  0  0  0  0  0  0  0
   20.9995    9.1565  -64.6261 N   0  0  0  1  0  0  0  0  0  0  0  0
   21.4574    8.6789  -65.7921 C   0  0  0  1  0  0  0  0  0  0  0  0
   21.7567    7.3436  -65.9988 C   0  0  0  1  0  0  0  0  0  0  0  0
   27.4790    0.0013  -66.6492 H   0  0  0  1  0  0  0  0  0  0  0  0
   25.7661    3.1749  -61.9113 H   0  0  0  1  0  0  0  0  0  0  0  0
   27.1192    0.8401  -57.8834 H   0  0  0  1  0  0  0  0  0  0  0  0
   27.6290   -0.0994  -60.0569 H   0  0  0  1  0  0  0  0  0  0  0  0
   25.2555    4.1158  -59.7341 H   0  0  0  1  0  0  0  0  0  0  0  0
   23.1243    2.7341  -63.9166 H   0  0  0  1  0  0  0  0  0  0  0  0
   21.1416    1.9712  -64.8609 H   0  0  0  1  0  0  0  0  0  0  0  0
   21.6144    2.4716  -66.4672 H   0  0  0  1  0  0  0  0  0  0  0  0
   20.0882    3.9542  -64.4503 H   0  0  0  1  0  0  0  0  0  0  0  0
   20.1810    4.2183  -66.1753 H   0  0  0  1  0  0  0  0  0  0  0  0
   23.8852    2.5582  -66.7486 H   0  0  0  1  0  0  0  0  0  0  0  0
   24.5719    4.4902  -58.2180 H   0  0  0  1  0  0  0  0  0  0  0  0
   26.1034    5.1917  -57.7548 H   0  0  0  1  0  0  0  0  0  0  0  0
   24.9599    4.7013  -56.5276 H   0  0  0  1  0  0  0  0  0  0  0  0
   23.5271    4.9698  -64.1155 H   0  0  0  1  0  0  0  0  0  0  0  0
   23.6028    4.8845  -65.8593 H   0  0  0  1  0  0  0  0  0  0  0  0
   20.9454    6.2866  -62.9499 H   0  0  0  1  0  0  0  0  0  0  0  0
   20.4719    8.6333  -62.7196 H   0  0  0  1  0  0  0  0  0  0  0  0
   21.5943    9.3442  -66.5796 H   0  0  0  1  0  0  0  0  0  0  0  0
   22.1129    7.0167  -66.9196 H   0  0  0  1  0  0  0  0  0  0  0  0
  1  3  4  0  0  0  0
  1 14  4  0  0  0  0
  1 21  1  0  0  0  0
  2 14  4  0  0  0  0
  2 15  4  0  0  0  0
  2 30  1  0  0  0  0
  3 16  4  0  0  0  0
  4  5  4  0  0  0  0
  4  7  4  0  0  0  0
  4 17  1  0  0  0  0
  5  9  4  0  0  0  0
  5 31  1  0  0  0  0
  6  7  4  0  0  0  0
  6  8  4  0  0  0  0
  6 32  1  0  0  0  0
  7 33  1  0  0  0  0
  8  9  4  0  0  0  0
  8 20  1  0  0  0  0
  9 34  1  0  0  0  0
 10 11  1  0  0  0  0
 10 21  1  0  0  0  0
 10 24  1  0  0  0  0
 10 35  1  0  0  0  0
 11 12  1  0  0  0  0
 11 36  1  0  0  0  0
 11 37  1  0  0  0  0
 12 23  1  0  0  0  0
 12 38  1  0  0  0  0
 12 39  1  0  0  0  0
 13 23  1  0  0  0  0
 13 25  4  0  0  0  0
 13 29  4  0  0  0  0
 15 16  4  0  0  0  0
 15 18  4  0  0  0  0
 16 17  4  0  0  0  0
 17 19  4  0  0  0  0
 18 19  4  0  0  0  0
 20 22  1  0  0  0  0
 21 40  1  0  0  0  0
 22 41  1  0  0  0  0
 22 42  1  0  0  0  0
 22 43  1  0  0  0  0
 23 24  1  0  0  0  0
 24 44  1  0  0  0  0
 24 45  1  0  0  0  0
 25 26  4  0  0  0  0
 25 46  1  0  0  0  0
 26 27  4  0  0  0  0
 26 47  1  0  0  0  0
 27 28  4  0  0  0  0
 28 29  4  0  0  0  0
 28 48  1  0  0  0  0
 29 49  1  0  0  0  0
M  END
> <ConfClashScore>
0 

> <ConfOneFourInteractionScore>
-0.986948 

> <ConfScore>
0.0211977 

> <ConfScorePBest>
0.00361989 

> <ConfTolerance>
0.505576 

> <HETNAM>
     OWQ A 303  OWQ                                                       

> <pdb_OW>
Q_303 -16.5129 3.80749 7.62812 0.15963 1.39178 -0.28144 -3.20151 0 0 0 -1.30514 0 0 0 0 0 0 0 0 -8.31393

$$$$
6yky_lig_1.pdb
 OpenBabel04162415593D

 49 53  0  0  0  0  0  0  0  0999 V2000
   25.1046    1.8134  -65.3759 C   0  0  0  1  0  0  0  0  0  0  0  0
   26.9167    0.5034  -65.9326 C   0  0  0  1  0  0  0  0  0  0  0  0
   25.4177    1.8282  -64.0981 N   0  0  0  1  0  0  0  0  0  0  0  0
   26.7285    1.4697  -61.1390 C   0  0  0  1  0  0  0  0  0  0  0  0
   27.6911    1.5573  -60.1512 C   0  0  0  1  0  0  0  0  0  0  0  0
   25.0443    2.1101  -59.5577 C   0  0  0  1  0  0  0  0  0  0  0  0
   25.4027    1.7439  -60.8413 C   0  0  0  1  0  0  0  0  0  0  0  0
   26.0097    2.1980  -58.5668 C   0  0  0  1  0  0  0  0  0  0  0  0
   27.3316    1.9246  -58.8639 C   0  0  0  1  0  0  0  0  0  0  0  0
   23.1672    3.1931  -64.7265 C   0  0  0  1  0  0  0  0  0  0  0  0
   22.7611    2.2353  -63.6166 C   0  0  0  1  0  0  0  0  0  0  0  0
   21.5228    2.8856  -62.9963 C   0  0  0  1  0  0  0  0  0  0  0  0
   19.7473    4.3344  -64.0536 C   0  0  0  1  0  0  0  0  0  0  0  0
   25.8296    1.1706  -66.2747 N   0  0  0  1  0  0  0  0  0  0  0  0
   27.2965    0.4857  -64.5857 C   0  0  0  1  0  0  0  0  0  0  0  0
   26.4936    1.1851  -63.6614 C   0  0  0  1  0  0  0  0  0  0  0  0
   27.0809    1.0061  -62.4395 N   0  0  0  1  0  0  0  0  0  0  0  0
   28.3158   -0.0766  -63.9004 N   0  0  0  1  0  0  0  0  0  0  0  0
   28.2164    0.2092  -62.6490 N   0  0  0  1  0  0  0  0  0  0  0  0
   25.5400    2.5599  -57.3493 O   0  0  0  1  0  0  0  0  0  0  0  0
   23.9680    2.5091  -65.7452 N   0  0  0  1  0  0  0  0  0  0  0  0
   26.4377    2.4334  -56.2354 C   0  0  0  1  0  0  0  0  0  0  0  0
   20.9593    3.6630  -64.1111 N   0  0  0  1  0  0  0  0  0  0  0  0
   21.8330    3.6440  -65.2934 C   0  0  0  1  0  0  0  0  0  0  0  0
   18.6106    3.7865  -64.6184 C   0  0  0  1  0  0  0  0  0  0  0  0
   17.4226    4.4876  -64.5347 C   0  0  0  1  0  0  0  0  0  0  0  0
   17.3121    5.6771  -63.9355 N   0  0  0  1  0  0  0  0  0  0  0  0
   18.4230    6.1986  -63.3960 C   0  0  0  1  0  0  0  0  0  0  0  0
   19.6523    5.5636  -63.4307 C   0  0  0  1  0  0  0  0  0  0  0  0
   27.4790    0.0014  -66.6492 H   0  0  0  1  0  0  0  0  0  0  0  0
   28.6852    1.3477  -60.3737 H   0  0  0  1  0  0  0  0  0  0  0  0
   24.0502    2.3197  -59.3351 H   0  0  0  1  0  0  0  0  0  0  0  0
   24.6777    1.6741  -61.5838 H   0  0  0  1  0  0  0  0  0  0  0  0
   28.0565    1.9943  -58.1215 H   0  0  0  1  0  0  0  0  0  0  0  0
   23.7191    4.0224  -64.3358 H   0  0  0  1  0  0  0  0  0  0  0  0
   23.5429    2.1401  -62.8924 H   0  0  0  1  0  0  0  0  0  0  0  0
   22.5241    1.2711  -64.0152 H   0  0  0  1  0  0  0  0  0  0  0  0
   21.7922    3.5237  -62.1809 H   0  0  0  1  0  0  0  0  0  0  0  0
   20.8298    2.1446  -62.6562 H   0  0  0  1  0  0  0  0  0  0  0  0
   23.6985    2.5446  -66.6868 H   0  0  0  1  0  0  0  0  0  0  0  0
   25.9873    2.8596  -55.3635 H   0  0  0  1  0  0  0  0  0  0  0  0
   27.3502    2.9479  -56.4529 H   0  0  0  1  0  0  0  0  0  0  0  0
   26.6443    1.3983  -56.0600 H   0  0  0  1  0  0  0  0  0  0  0  0
   21.9103    4.6179  -65.7297 H   0  0  0  1  0  0  0  0  0  0  0  0
   21.4731    2.9520  -66.0259 H   0  0  0  1  0  0  0  0  0  0  0  0
   18.6488    2.8641  -65.0973 H   0  0  0  1  0  0  0  0  0  0  0  0
   16.5711    4.0681  -64.9596 H   0  0  0  1  0  0  0  0  0  0  0  0
   18.3580    7.1254  -62.9286 H   0  0  0  1  0  0  0  0  0  0  0  0
   20.4884    6.0035  -62.9962 H   0  0  0  1  0  0  0  0  0  0  0  0
  1  3  4  0  0  0  0
  1 14  4  0  0  0  0
  1 21  1  0  0  0  0
  2 14  4  0  0  0  0
  2 15  4  0  0  0  0
  2 30  1  0  0  0  0
  3 16  4  0  0  0  0
  4  5  4  0  0  0  0
  4  7  4  0  0  0  0
  4 17  1  0  0  0  0
  5  9  4  0  0  0  0
  5 31  1  0  0  0  0
  6  7  4  0  0  0  0
  6  8  4  0  0  0  0
  6 32  1  0  0  0  0
  7 33  1  0  0  0  0
  8  9  4  0  0  0  0
  8 20  1  0  0  0  0
  9 34  1  0  0  0  0
 10 11  1  0  0  0  0
 10 21  1  0  0  0  0
 10 24  1  0  0  0  0
 10 35  1  0  0  0  0
 11 12  1  0  0  0  0
 11 36  1  0  0  0  0
 11 37  1  0  0  0  0
 12 23  1  0  0  0  0
 12 38  1  0  0  0  0
 12 39  1  0  0  0  0
 13 23  1  0  0  0  0
 13 25  4  0  0  0  0
 13 29  4  0  0  0  0
 15 16  4  0  0  0  0
 15 18  4  0  0  0  0
 16 17  4  0  0  0  0
 17 19  4  0  0  0  0
 18 19  4  0  0  0  0
 20 22  1  0  0  0  0
 21 40  1  0  0  0  0
 22 41  1  0  0  0  0
 22 42  1  0  0  0  0
 22 43  1  0  0  0  0
 23 24  1  0  0  0  0
 24 44  1  0  0  0  0
 24 45  1  0  0  0  0
 25 26  4  0  0  0  0
 25 46  1  0  0  0  0
 26 27  4  0  0  0  0
 26 47  1  0  0  0  0
 27 28  4  0  0  0  0
 28 29  4  0  0  0  0
 28 48  1  0  0  0  0
 29 49  1  0  0  0  0
M  END
> <ConfClashScore>
0 

> <ConfOneFourInteractionScore>
-0.987833 

> <ConfScore>
0.0220477 

> <ConfScorePBest>
0.00360656 

> <ConfTolerance>
0.433528 

> <HETNAM>
     OWQ A 303  OWQ                                                       

> <pdb_OW>
Q_303 -16.5129 3.80749 7.62812 0.15963 1.39178 -0.28144 -3.20151 0 0 0 -1.30514 0 0 0 0 0 0 0 0 -8.31393

$$$$
6yky_lig_1.pdb
 OpenBabel04162415593D

 49 53  0  0  0  0  0  0  0  0999 V2000
   25.1049    1.8136  -65.3760 C   0  0  0  1  0  0  0  0  0  0  0  0
   26.9167    0.5034  -65.9326 C   0  0  0  1  0  0  0  0  0  0  0  0
   25.4179    1.8284  -64.0983 N   0  0  0  1  0  0  0  0  0  0  0  0
   26.6376    1.3734  -61.1361 C   0  0  0  1  0  0  0  0  0  0  0  0
   26.6397    0.4408  -60.1161 C   0  0  0  1  0  0  0  0  0  0  0  0
   25.6068    2.9712  -59.6761 C   0  0  0  1  0  0  0  0  0  0  0  0
   26.1180    2.6396  -60.9167 C   0  0  0  1  0  0  0  0  0  0  0  0
   25.6087    2.0359  -58.6530 C   0  0  0  1  0  0  0  0  0  0  0  0
   26.1269    0.7735  -58.8720 C   0  0  0  1  0  0  0  0  0  0  0  0
   23.5194    2.4698  -67.1518 C   0  0  0  1  0  0  0  0  0  0  0  0
   23.9909    3.7263  -67.9173 C   0  0  0  1  0  0  0  0  0  0  0  0
   22.8353    4.2053  -68.7592 C   0  0  0  1  0  0  0  0  0  0  0  0
   20.3123    3.6112  -68.5270 C   0  0  0  1  0  0  0  0  0  0  0  0
   25.8297    1.1707  -66.2747 N   0  0  0  1  0  0  0  0  0  0  0  0
   27.2966    0.4858  -64.5857 C   0  0  0  1  0  0  0  0  0  0  0  0
   26.4937    1.1852  -63.6614 C   0  0  0  1  0  0  0  0  0  0  0  0
   27.0810    1.0061  -62.4395 N   0  0  0  1  0  0  0  0  0  0  0  0
   28.3159   -0.0766  -63.9004 N   0  0  0  1  0  0  0  0  0  0  0  0
   28.2164    0.2093  -62.6490 N   0  0  0  1  0  0  0  0  0  0  0  0
   25.1188    2.2951  -57.4173 O   0  0  0  1  0  0  0  0  0  0  0  0
   24.0076    2.4764  -65.7837 N   0  0  0  1  0  0  0  0  0  0  0  0
   24.6631    3.6324  -57.1595 C   0  0  0  1  0  0  0  0  0  0  0  0
   21.6601    3.4301  -68.1245 N   0  0  0  1  0  0  0  0  0  0  0  0
   22.0096    2.6009  -67.1939 C   0  0  0  1  0  0  0  0  0  0  0  0
   19.8252    4.9012  -68.6277 C   0  0  0  1  0  0  0  0  0  0  0  0
   18.4899    5.0857  -68.9321 C   0  0  0  1  0  0  0  0  0  0  0  0
   17.6359    4.0775  -69.1332 N   0  0  0  1  0  0  0  0  0  0  0  0
   18.1207    2.8319  -69.0282 C   0  0  0  1  0  0  0  0  0  0  0  0
   19.4440    2.5565  -68.7309 C   0  0  0  1  0  0  0  0  0  0  0  0
   27.4789    0.0013  -66.6491 H   0  0  0  1  0  0  0  0  0  0  0  0
   27.0259   -0.5105  -60.2821 H   0  0  0  1  0  0  0  0  0  0  0  0
   25.2205    3.9224  -59.5102 H   0  0  0  1  0  0  0  0  0  0  0  0
   26.1128    3.3401  -61.6854 H   0  0  0  1  0  0  0  0  0  0  0  0
   26.1322    0.0730  -58.1033 H   0  0  0  1  0  0  0  0  0  0  0  0
   23.8427    1.5755  -67.6422 H   0  0  0  1  0  0  0  0  0  0  0  0
   24.2788    4.4892  -67.2244 H   0  0  0  1  0  0  0  0  0  0  0  0
   24.8225    3.4810  -68.5443 H   0  0  0  1  0  0  0  0  0  0  0  0
   22.9661    3.9450  -69.7888 H   0  0  0  1  0  0  0  0  0  0  0  0
   22.6993    5.2631  -68.6728 H   0  0  0  1  0  0  0  0  0  0  0  0
   23.5080    2.9942  -65.1184 H   0  0  0  1  0  0  0  0  0  0  0  0
   24.4438    3.7404  -56.1177 H   0  0  0  1  0  0  0  0  0  0  0  0
   23.7793    3.8243  -57.7313 H   0  0  0  1  0  0  0  0  0  0  0  0
   25.4264    4.3288  -57.4372 H   0  0  0  1  0  0  0  0  0  0  0  0
   21.5769    1.6427  -67.3931 H   0  0  0  1  0  0  0  0  0  0  0  0
   21.6595    2.9614  -66.2492 H   0  0  0  1  0  0  0  0  0  0  0  0
   20.4519    5.7174  -68.4771 H   0  0  0  1  0  0  0  0  0  0  0  0
   18.1311    6.0589  -69.0086 H   0  0  0  1  0  0  0  0  0  0  0  0
   17.4708    2.0339  -69.1775 H   0  0  0  1  0  0  0  0  0  0  0  0
   19.7782    1.5741  -68.6622 H   0  0  0  1  0  0  0  0  0  0  0  0
  1  3  4  0  0  0  0
  1 14  4  0  0  0  0
  1 21  1  0  0  0  0
  2 14  4  0  0  0  0
  2 15  4  0  0  0  0
  2 30  1  0  0  0  0
  3 16  4  0  0  0  0
  4  5  4  0  0  0  0
  4  7  4  0  0  0  0
  4 17  1  0  0  0  0
  5  9  4  0  0  0  0
  5 31  1  0  0  0  0
  6  7  4  0  0  0  0
  6  8  4  0  0  0  0
  6 32  1  0  0  0  0
  7 33  1  0  0  0  0
  8  9  4  0  0  0  0
  8 20  1  0  0  0  0
  9 34  1  0  0  0  0
 10 11  1  0  0  0  0
 10 21  1  0  0  0  0
 10 24  1  0  0  0  0
 10 35  1  0  0  0  0
 11 12  1  0  0  0  0
 11 36  1  0  0  0  0
 11 37  1  0  0  0  0
 12 23  1  0  0  0  0
 12 38  1  0  0  0  0
 12 39  1  0  0  0  0
 13 23  1  0  0  0  0
 13 25  4  0  0  0  0
 13 29  4  0  0  0  0
 15 16  4  0  0  0  0
 15 18  4  0  0  0  0
 16 17  4  0  0  0  0
 17 19  4  0  0  0  0
 18 19  4  0  0  0  0
 20 22  1  0  0  0  0
 21 40  1  0  0  0  0
 22 41  1  0  0  0  0
 22 42  1  0  0  0  0
 22 43  1  0  0  0  0
 23 24  1  0  0  0  0
 24 44  1  0  0  0  0
 24 45  1  0  0  0  0
 25 26  4  0  0  0  0
 25 46  1  0  0  0  0
 26 27  4  0  0  0  0
 26 47  1  0  0  0  0
 27 28  4  0  0  0  0
 28 29  4  0  0  0  0
 28 48  1  0  0  0  0
 29 49  1  0  0  0  0
M  END
> <ConfClashScore>
0 

> <ConfOneFourInteractionScore>
-0.986948 

> <ConfScore>
0.0220735 

> <ConfScorePBest>
0.00359323 

> <ConfTolerance>
0.556409 

> <HETNAM>
     OWQ A 303  OWQ                                                       

> <pdb_OW>
Q_303 -16.5129 3.80749 7.62812 0.15963 1.39178 -0.28144 -3.20151 0 0 0 -1.30514 0 0 0 0 0 0 0 0 -8.31393

$$$$
6yky_lig_1.pdb
 OpenBabel04162415593D

 49 53  0  0  0  0  0  0  0  0999 V2000
   25.1049    1.8137  -65.3759 C   0  0  0  1  0  0  0  0  0  0  0  0
   26.9167    0.5034  -65.9326 C   0  0  0  1  0  0  0  0  0  0  0  0
   25.4180    1.8285  -64.0982 N   0  0  0  1  0  0  0  0  0  0  0  0
   26.8118    1.5873  -61.1666 C   0  0  0  1  0  0  0  0  0  0  0  0
   26.7245    0.7854  -60.0444 C   0  0  0  1  0  0  0  0  0  0  0  0
   26.1992    3.4967  -59.8528 C   0  0  0  1  0  0  0  0  0  0  0  0
   26.5463    2.9445  -61.0713 C   0  0  0  1  0  0  0  0  0  0  0  0
   26.1115    2.6926  -58.7270 C   0  0  0  1  0  0  0  0  0  0  0  0
   26.3764    1.3393  -58.8223 C   0  0  0  1  0  0  0  0  0  0  0  0
   23.5039    2.5598  -67.1490 C   0  0  0  1  0  0  0  0  0  0  0  0
   22.3234    3.5221  -67.2366 C   0  0  0  1  0  0  0  0  0  0  0  0
   21.1522    2.6870  -66.7401 C   0  0  0  1  0  0  0  0  0  0  0  0
   20.6274    0.2274  -67.0844 C   0  0  0  1  0  0  0  0  0  0  0  0
   25.8297    1.1708  -66.2747 N   0  0  0  1  0  0  0  0  0  0  0  0
   27.2965    0.4857  -64.5857 C   0  0  0  1  0  0  0  0  0  0  0  0
   26.4938    1.1853  -63.6614 C   0  0  0  1  0  0  0  0  0  0  0  0
   27.0810    1.0062  -62.4395 N   0  0  0  1  0  0  0  0  0  0  0  0
   28.3159   -0.0766  -63.9004 N   0  0  0  1  0  0  0  0  0  0  0  0
   28.2164    0.2092  -62.6490 N   0  0  0  1  0  0  0  0  0  0  0  0
   25.7790    3.1157  -57.4920 O   0  0  0  1  0  0  0  0  0  0  0  0
   24.0077    2.4764  -65.7837 N   0  0  0  1  0  0  0  0  0  0  0  0
   25.4571    4.5225  -57.3929 C   0  0  0  1  0  0  0  0  0  0  0  0
   21.5104    1.3163  -67.1361 N   0  0  0  1  0  0  0  0  0  0  0  0
   22.9102    1.2243  -67.5941 C   0  0  0  1  0  0  0  0  0  0  0  0
   20.3660   -0.5348  -65.9608 C   0  0  0  1  0  0  0  0  0  0  0  0
   19.4655   -1.5784  -66.0604 C   0  0  0  1  0  0  0  0  0  0  0  0
   18.8306   -1.8957  -67.1928 N   0  0  0  1  0  0  0  0  0  0  0  0
   19.0968   -1.1511  -68.2754 C   0  0  0  1  0  0  0  0  0  0  0  0
   19.9810   -0.0865  -68.2640 C   0  0  0  1  0  0  0  0  0  0  0  0
   27.4789    0.0013  -66.6492 H   0  0  0  1  0  0  0  0  0  0  0  0
   26.9197   -0.2335  -60.1168 H   0  0  0  1  0  0  0  0  0  0  0  0
   26.0040    4.5156  -59.7804 H   0  0  0  1  0  0  0  0  0  0  0  0
   26.6082    3.5471  -61.9167 H   0  0  0  1  0  0  0  0  0  0  0  0
   26.3146    0.7367  -57.9770 H   0  0  0  1  0  0  0  0  0  0  0  0
   24.2942    2.8637  -67.8033 H   0  0  0  1  0  0  0  0  0  0  0  0
   22.1648    3.8430  -68.2449 H   0  0  0  1  0  0  0  0  0  0  0  0
   22.4778    4.3757  -66.6102 H   0  0  0  1  0  0  0  0  0  0  0  0
   21.0522    2.7635  -65.6775 H   0  0  0  1  0  0  0  0  0  0  0  0
   20.2397    2.9933  -67.2076 H   0  0  0  1  0  0  0  0  0  0  0  0
   23.4963    2.9500  -65.0947 H   0  0  0  1  0  0  0  0  0  0  0  0
   25.1059    4.7399  -56.4059 H   0  0  0  1  0  0  0  0  0  0  0  0
   24.6951    4.7647  -58.1039 H   0  0  0  1  0  0  0  0  0  0  0  0
   26.3325    5.1035  -57.5958 H   0  0  0  1  0  0  0  0  0  0  0  0
   23.4147    0.4043  -67.1272 H   0  0  0  1  0  0  0  0  0  0  0  0
   22.9608    1.1161  -68.6574 H   0  0  0  1  0  0  0  0  0  0  0  0
   20.8381   -0.3268  -65.0579 H   0  0  0  1  0  0  0  0  0  0  0  0
   19.2720   -2.1458  -65.2105 H   0  0  0  1  0  0  0  0  0  0  0  0
   18.6155   -1.3849  -69.1672 H   0  0  0  1  0  0  0  0  0  0  0  0
   20.1554    0.4667  -69.1272 H   0  0  0  1  0  0  0  0  0  0  0  0
  1  3  4  0  0  0  0
  1 14  4  0  0  0  0
  1 21  1  0  0  0  0
  2 14  4  0  0  0  0
  2 15  4  0  0  0  0
  2 30  1  0  0  0  0
  3 16  4  0  0  0  0
  4  5  4  0  0  0  0
  4  7  4  0  0  0  0
  4 17  1  0  0  0  0
  5  9  4  0  0  0  0
  5 31  1  0  0  0  0
  6  7  4  0  0  0  0
  6  8  4  0  0  0  0
  6 32  1  0  0  0  0
  7 33  1  0  0  0  0
  8  9  4  0  0  0  0
  8 20  1  0  0  0  0
  9 34  1  0  0  0  0
 10 11  1  0  0  0  0
 10 21  1  0  0  0  0
 10 24  1  0  0  0  0
 10 35  1  0  0  0  0
 11 12  1  0  0  0  0
 11 36  1  0  0  0  0
 11 37  1  0  0  0  0
 12 23  1  0  0  0  0
 12 38  1  0  0  0  0
 12 39  1  0  0  0  0
 13 23  1  0  0  0  0
 13 25  4  0  0  0  0
 13 29  4  0  0  0  0
 15 16  4  0  0  0  0
 15 18  4  0  0  0  0
 16 17  4  0  0  0  0
 17 19  4  0  0  0  0
 18 19  4  0  0  0  0
 20 22  1  0  0  0  0
 21 40  1  0  0  0  0
 22 41  1  0  0  0  0
 22 42  1  0  0  0  0
 22 43  1  0  0  0  0
 23 24  1  0  0  0  0
 24 44  1  0  0  0  0
 24 45  1  0  0  0  0
 25 26  4  0  0  0  0
 25 46  1  0  0  0  0
 26 27  4  0  0  0  0
 26 47  1  0  0  0  0
 27 28  4  0  0  0  0
 28 29  4  0  0  0  0
 28 48  1  0  0  0  0
 29 49  1  0  0  0  0
M  END
> <ConfClashScore>
0 

> <ConfOneFourInteractionScore>
-0.986948 

> <ConfScore>
0.0221528 

> <ConfScorePBest>
0.0035799 

> <ConfTolerance>
0.65899 

> <HETNAM>
     OWQ A 303  OWQ                                                       

> <pdb_OW>
Q_303 -16.5129 3.80749 7.62812 0.15963 1.39178 -0.28144 -3.20151 0 0 0 -1.30514 0 0 0 0 0 0 0 0 -8.31393

$$$$
6yky_lig_1.pdb
 OpenBabel04162415593D

 49 53  0  0  0  0  0  0  0  0999 V2000
   25.1048    1.8135  -65.3760 C   0  0  0  1  0  0  0  0  0  0  0  0
   26.9167    0.5034  -65.9326 C   0  0  0  1  0  0  0  0  0  0  0  0
   25.4178    1.8283  -64.0982 N   0  0  0  1  0  0  0  0  0  0  0  0
   26.7669    1.4473  -61.1215 C   0  0  0  1  0  0  0  0  0  0  0  0
   27.6326    1.0952  -60.1033 C   0  0  0  1  0  0  0  0  0  0  0  0
   25.2910    2.4528  -59.5220 C   0  0  0  1  0  0  0  0  0  0  0  0
   25.5931    2.1248  -60.8303 C   0  0  0  1  0  0  0  0  0  0  0  0
   26.1592    2.0997  -58.5007 C   0  0  0  1  0  0  0  0  0  0  0  0
   27.3295    1.4242  -58.7913 C   0  0  0  1  0  0  0  0  0  0  0  0
   23.6737    2.5355  -67.2423 C   0  0  0  1  0  0  0  0  0  0  0  0
   24.3245    3.7562  -67.9120 C   0  0  0  1  0  0  0  0  0  0  0  0
   23.4169    3.9616  -69.1346 C   0  0  0  1  0  0  0  0  0  0  0  0
   21.3704    2.5841  -69.8634 C   0  0  0  1  0  0  0  0  0  0  0  0
   25.8296    1.1707  -66.2748 N   0  0  0  1  0  0  0  0  0  0  0  0
   27.2965    0.4857  -64.5857 C   0  0  0  1  0  0  0  0  0  0  0  0
   26.4936    1.1851  -63.6614 C   0  0  0  1  0  0  0  0  0  0  0  0
   27.0810    1.0061  -62.4395 N   0  0  0  1  0  0  0  0  0  0  0  0
   28.3158   -0.0766  -63.9004 N   0  0  0  1  0  0  0  0  0  0  0  0
   28.2164    0.2092  -62.6490 N   0  0  0  1  0  0  0  0  0  0  0  0
   25.9683    2.3614  -57.1858 O   0  0  0  1  0  0  0  0  0  0  0  0
   23.9998    2.4734  -65.8284 N   0  0  0  1  0  0  0  0  0  0  0  0
   24.8125    3.1372  -56.8324 C   0  0  0  1  0  0  0  0  0  0  0  0
   22.2413    3.0688  -68.9062 N   0  0  0  1  0  0  0  0  0  0  0  0
   22.1952    2.8079  -67.4555 C   0  0  0  1  0  0  0  0  0  0  0  0
   20.1272    3.1619  -70.0425 C   0  0  0  1  0  0  0  0  0  0  0  0
   19.2891    2.6482  -71.0137 C   0  0  0  1  0  0  0  0  0  0  0  0
   19.6159    1.6133  -71.7937 N   0  0  0  1  0  0  0  0  0  0  0  0
   20.8225    1.0600  -71.6064 C   0  0  0  1  0  0  0  0  0  0  0  0
   21.7250    1.5128  -70.6600 C   0  0  0  1  0  0  0  0  0  0  0  0
   27.4789    0.0014  -66.6491 H   0  0  0  1  0  0  0  0  0  0  0  0
   28.5113    0.5833  -60.3214 H   0  0  0  1  0  0  0  0  0  0  0  0
   24.4123    2.9645  -59.3040 H   0  0  0  1  0  0  0  0  0  0  0  0
   24.9398    2.3861  -61.5962 H   0  0  0  1  0  0  0  0  0  0  0  0
   27.9829    1.1628  -58.0254 H   0  0  0  1  0  0  0  0  0  0  0  0
   23.9737    1.6254  -67.7183 H   0  0  0  1  0  0  0  0  0  0  0  0
   25.3325    3.5490  -68.2050 H   0  0  0  1  0  0  0  0  0  0  0  0
   24.3083    4.6097  -67.2667 H   0  0  0  1  0  0  0  0  0  0  0  0
   23.9291    3.6845  -70.0323 H   0  0  0  1  0  0  0  0  0  0  0  0
   23.1045    4.9827  -69.2022 H   0  0  0  1  0  0  0  0  0  0  0  0
   23.4110    2.9170  -65.1827 H   0  0  0  1  0  0  0  0  0  0  0  0
   24.7863    4.0287  -57.4234 H   0  0  0  1  0  0  0  0  0  0  0  0
   24.8618    3.3982  -55.7958 H   0  0  0  1  0  0  0  0  0  0  0  0
   23.9284    2.5628  -57.0144 H   0  0  0  1  0  0  0  0  0  0  0  0
   21.5884    1.9598  -67.2155 H   0  0  0  1  0  0  0  0  0  0  0  0
   21.8560    3.6581  -66.9015 H   0  0  0  1  0  0  0  0  0  0  0  0
   19.8283    3.9680  -69.4571 H   0  0  0  1  0  0  0  0  0  0  0  0
   18.3565    3.0895  -71.1444 H   0  0  0  1  0  0  0  0  0  0  0  0
   21.0935    0.2511  -72.2012 H   0  0  0  1  0  0  0  0  0  0  0  0
   22.6525    1.0554  -70.5507 H   0  0  0  1  0  0  0  0  0  0  0  0
  1  3  4  0  0  0  0
  1 14  4  0  0  0  0
  1 21  1  0  0  0  0
  2 14  4  0  0  0  0
  2 15  4  0  0  0  0
  2 30  1  0  0  0  0
  3 16  4  0  0  0  0
  4  5  4  0  0  0  0
  4  7  4  0  0  0  0
  4 17  1  0  0  0  0
  5  9  4  0  0  0  0
  5 31  1  0  0  0  0
  6  7  4  0  0  0  0
  6  8  4  0  0  0  0
  6 32  1  0  0  0  0
  7 33  1  0  0  0  0
  8  9  4  0  0  0  0
  8 20  1  0  0  0  0
  9 34  1  0  0  0  0
 10 11  1  0  0  0  0
 10 21  1  0  0  0  0
 10 24  1  0  0  0  0
 10 35  1  0  0  0  0
 11 12  1  0  0  0  0
 11 36  1  0  0  0  0
 11 37  1  0  0  0  0
 12 23  1  0  0  0  0
 12 38  1  0  0  0  0
 12 39  1  0  0  0  0
 13 23  1  0  0  0  0
 13 25  4  0  0  0  0
 13 29  4  0  0  0  0
 15 16  4  0  0  0  0
 15 18  4  0  0  0  0
 16 17  4  0  0  0  0
 17 19  4  0  0  0  0
 18 19  4  0  0  0  0
 20 22  1  0  0  0  0
 21 40  1  0  0  0  0
 22 41  1  0  0  0  0
 22 42  1  0  0  0  0
 22 43  1  0  0  0  0
 23 24  1  0  0  0  0
 24 44  1  0  0  0  0
 24 45  1  0  0  0  0
 25 26  4  0  0  0  0
 25 46  1  0  0  0  0
 26 27  4  0  0  0  0
 26 47  1  0  0  0  0
 27 28  4  0  0  0  0
 28 29  4  0  0  0  0
 28 48  1  0  0  0  0
 29 49  1  0  0  0  0
M  END
> <ConfClashScore>
0 

> <ConfOneFourInteractionScore>
-0.986948 

> <ConfScore>
0.02405 

> <ConfScorePBest>
0.00356658 

> <ConfTolerance>
0.412057 

> <HETNAM>
     OWQ A 303  OWQ                                                       

> <pdb_OW>
Q_303 -16.5129 3.80749 7.62812 0.15963 1.39178 -0.28144 -3.20151 0 0 0 -1.30514 0 0 0 0 0 0 0 0 -8.31393

$$$$
6yky_lig_1.pdb
 OpenBabel04162415593D

 49 53  0  0  0  0  0  0  0  0999 V2000
   25.1047    1.8134  -65.3760 C   0  0  0  1  0  0  0  0  0  0  0  0
   26.9167    0.5034  -65.9325 C   0  0  0  1  0  0  0  0  0  0  0  0
   25.4178    1.8283  -64.0983 N   0  0  0  1  0  0  0  0  0  0  0  0
   26.7517    1.5716  -61.1737 C   0  0  0  1  0  0  0  0  0  0  0  0
   25.6382    1.1276  -60.4860 C   0  0  0  1  0  0  0  0  0  0  0  0
   27.1282    3.2385  -59.4924 C   0  0  0  1  0  0  0  0  0  0  0  0
   27.4965    2.6303  -60.6776 C   0  0  0  1  0  0  0  0  0  0  0  0
   26.0114    2.7933  -58.8025 C   0  0  0  1  0  0  0  0  0  0  0  0
   25.2690    1.7377  -59.2973 C   0  0  0  1  0  0  0  0  0  0  0  0
   23.1609    3.2607  -64.9018 C   0  0  0  1  0  0  0  0  0  0  0  0
   22.0535    3.9890  -65.6955 C   0  0  0  1  0  0  0  0  0  0  0  0
   21.9170    5.3749  -65.1171 C   0  0  0  1  0  0  0  0  0  0  0  0
   23.5945    6.6531  -63.6230 C   0  0  0  1  0  0  0  0  0  0  0  0
   25.8297    1.1707  -66.2748 N   0  0  0  1  0  0  0  0  0  0  0  0
   27.2965    0.4857  -64.5857 C   0  0  0  1  0  0  0  0  0  0  0  0
   26.4937    1.1851  -63.6614 C   0  0  0  1  0  0  0  0  0  0  0  0
   27.0809    1.0061  -62.4395 N   0  0  0  1  0  0  0  0  0  0  0  0
   28.3159   -0.0766  -63.9005 N   0  0  0  1  0  0  0  0  0  0  0  0
   28.2164    0.2093  -62.6490 N   0  0  0  1  0  0  0  0  0  0  0  0
   25.7461    3.4684  -57.6590 O   0  0  0  1  0  0  0  0  0  0  0  0
   24.0074    2.4762  -65.7838 N   0  0  0  1  0  0  0  0  0  0  0  0
   24.5325    3.1356  -56.9669 C   0  0  0  1  0  0  0  0  0  0  0  0
   23.2192    5.4862  -64.2944 N   0  0  0  1  0  0  0  0  0  0  0  0
   23.9338    4.4067  -64.2794 C   0  0  0  1  0  0  0  0  0  0  0  0
   22.9719    7.0191  -62.4440 C   0  0  0  1  0  0  0  0  0  0  0  0
   23.3767    8.1788  -61.8108 C   0  0  0  1  0  0  0  0  0  0  0  0
   24.3425    8.9739  -62.2809 N   0  0  0  1  0  0  0  0  0  0  0  0
   24.9346    8.6094  -63.4271 C   0  0  0  1  0  0  0  0  0  0  0  0
   24.5945    7.4633  -64.1243 C   0  0  0  1  0  0  0  0  0  0  0  0
   27.4789    0.0014  -66.6492 H   0  0  0  1  0  0  0  0  0  0  0  0
   25.0772    0.3359  -60.8603 H   0  0  0  1  0  0  0  0  0  0  0  0
   27.6892    4.0302  -59.1181 H   0  0  0  1  0  0  0  0  0  0  0  0
   28.3321    2.9669  -61.1973 H   0  0  0  1  0  0  0  0  0  0  0  0
   24.4334    1.4011  -58.7777 H   0  0  0  1  0  0  0  0  0  0  0  0
   22.7419    2.6248  -64.1501 H   0  0  0  1  0  0  0  0  0  0  0  0
   22.3248    4.0498  -66.7288 H   0  0  0  1  0  0  0  0  0  0  0  0
   21.1280    3.4607  -65.5997 H   0  0  0  1  0  0  0  0  0  0  0  0
   21.0513    5.4559  -64.4936 H   0  0  0  1  0  0  0  0  0  0  0  0
   21.8743    6.1180  -65.8857 H   0  0  0  1  0  0  0  0  0  0  0  0
   23.7648    2.4267  -66.7320 H   0  0  0  1  0  0  0  0  0  0  0  0
   23.6915    3.4002  -57.5733 H   0  0  0  1  0  0  0  0  0  0  0  0
   24.4897    3.6742  -56.0434 H   0  0  0  1  0  0  0  0  0  0  0  0
   24.5122    2.0843  -56.7686 H   0  0  0  1  0  0  0  0  0  0  0  0
   24.8330    4.5702  -64.8357 H   0  0  0  1  0  0  0  0  0  0  0  0
   24.1796    4.1593  -63.2678 H   0  0  0  1  0  0  0  0  0  0  0  0
   22.2132    6.4326  -62.0413 H   0  0  0  1  0  0  0  0  0  0  0  0
   22.9055    8.4465  -60.9231 H   0  0  0  1  0  0  0  0  0  0  0  0
   25.6859    9.2173  -63.8110 H   0  0  0  1  0  0  0  0  0  0  0  0
   25.0826    7.2168  -65.0090 H   0  0  0  1  0  0  0  0  0  0  0  0
  1  3  4  0  0  0  0
  1 14  4  0  0  0  0
  1 21  1  0  0  0  0
  2 14  4  0  0  0  0
  2 15  4  0  0  0  0
  2 30  1  0  0  0  0
  3 16  4  0  0  0  0
  4  5  4  0  0  0  0
  4  7  4  0  0  0  0
  4 17  1  0  0  0  0
  5  9  4  0  0  0  0
  5 31  1  0  0  0  0
  6  7  4  0  0  0  0
  6  8  4  0  0  0  0
  6 32  1  0  0  0  0
  7 33  1  0  0  0  0
  8  9  4  0  0  0  0
  8 20  1  0  0  0  0
  9 34  1  0  0  0  0
 10 11  1  0  0  0  0
 10 21  1  0  0  0  0
 10 24  1  0  0  0  0
 10 35  1  0  0  0  0
 11 12  1  0  0  0  0
 11 36  1  0  0  0  0
 11 37  1  0  0  0  0
 12 23  1  0  0  0  0
 12 38  1  0  0  0  0
 12 39  1  0  0  0  0
 13 23  1  0  0  0  0
 13 25  4  0  0  0  0
 13 29  4  0  0  0  0
 15 16  4  0  0  0  0
 15 18  4  0  0  0  0
 16 17  4  0  0  0  0
 17 19  4  0  0  0  0
 18 19  4  0  0  0  0
 20 22  1  0  0  0  0
 21 40  1  0  0  0  0
 22 41  1  0  0  0  0
 22 42  1  0  0  0  0
 22 43  1  0  0  0  0
 23 24  1  0  0  0  0
 24 44  1  0  0  0  0
 24 45  1  0  0  0  0
 25 26  4  0  0  0  0
 25 46  1  0  0  0  0
 26 27  4  0  0  0  0
 26 47  1  0  0  0  0
 27 28  4  0  0  0  0
 28 29  4  0  0  0  0
 28 48  1  0  0  0  0
 29 49  1  0  0  0  0
M  END
> <ConfClashScore>
0 

> <ConfOneFourInteractionScore>
-0.984874 

> <ConfScore>
0.024069 

> <ConfScorePBest>
0.00355325 

> <ConfTolerance>
0.493539 

> <HETNAM>
     OWQ A 303  OWQ                                                       

> <pdb_OW>
Q_303 -16.5129 3.80749 7.62812 0.15963 1.39178 -0.28144 -3.20151 0 0 0 -1.30514 0 0 0 0 0 0 0 0 -8.31393

$$$$
6yky_lig_1.pdb
 OpenBabel04162415593D

 49 53  0  0  0  0  0  0  0  0999 V2000
   25.1048    1.8135  -65.3760 C   0  0  0  1  0  0  0  0  0  0  0  0
   26.9167    0.5034  -65.9326 C   0  0  0  1  0  0  0  0  0  0  0  0
   25.4178    1.8283  -64.0982 N   0  0  0  1  0  0  0  0  0  0  0  0
   26.7670    1.4473  -61.1214 C   0  0  0  1  0  0  0  0  0  0  0  0
   25.5800    2.1121  -60.8787 C   0  0  0  1  0  0  0  0  0  0  0  0
   27.4300    1.7946  -58.8439 C   0  0  0  1  0  0  0  0  0  0  0  0
   27.6946    1.2906  -60.1034 C   0  0  0  1  0  0  0  0  0  0  0  0
   26.2394    2.4615  -58.6003 C   0  0  0  1  0  0  0  0  0  0  0  0
   25.3147    2.6176  -59.6155 C   0  0  0  1  0  0  0  0  0  0  0  0
   23.5761    2.4425  -67.1901 C   0  0  0  1  0  0  0  0  0  0  0  0
   22.0891    2.8511  -67.3803 C   0  0  0  1  0  0  0  0  0  0  0  0
   21.5682    2.1319  -68.6422 C   0  0  0  1  0  0  0  0  0  0  0  0
   22.6282    0.2068  -69.9786 C   0  0  0  1  0  0  0  0  0  0  0  0
   25.8297    1.1707  -66.2747 N   0  0  0  1  0  0  0  0  0  0  0  0
   27.2965    0.4858  -64.5857 C   0  0  0  1  0  0  0  0  0  0  0  0
   26.4936    1.1852  -63.6614 C   0  0  0  1  0  0  0  0  0  0  0  0
   27.0809    1.0061  -62.4395 N   0  0  0  1  0  0  0  0  0  0  0  0
   28.3159   -0.0766  -63.9004 N   0  0  0  1  0  0  0  0  0  0  0  0
   28.2164    0.2092  -62.6490 N   0  0  0  1  0  0  0  0  0  0  0  0
   25.9760    2.8521  -57.3307 O   0  0  0  1  0  0  0  0  0  0  0  0
   23.9767    2.4947  -65.7951 N   0  0  0  1  0  0  0  0  0  0  0  0
   26.9762    2.5751  -56.3380 C   0  0  0  1  0  0  0  0  0  0  0  0
   22.5784    1.0556  -68.8479 N   0  0  0  1  0  0  0  0  0  0  0  0
   23.5174    0.9951  -67.7158 C   0  0  0  1  0  0  0  0  0  0  0  0
   21.9607   -1.0040  -69.9808 C   0  0  0  1  0  0  0  0  0  0  0  0
   22.0327   -1.8006  -71.1076 C   0  0  0  1  0  0  0  0  0  0  0  0
   22.7201   -1.4636  -72.2032 N   0  0  0  1  0  0  0  0  0  0  0  0
   23.3660   -0.2890  -72.1856 C   0  0  0  1  0  0  0  0  0  0  0  0
   23.3445    0.5713  -71.1018 C   0  0  0  1  0  0  0  0  0  0  0  0
   27.4789    0.0014  -66.6492 H   0  0  0  1  0  0  0  0  0  0  0  0
   24.8858    2.2331  -61.6436 H   0  0  0  1  0  0  0  0  0  0  0  0
   28.1241    1.6736  -58.0790 H   0  0  0  1  0  0  0  0  0  0  0  0
   28.5895    0.7937  -60.2872 H   0  0  0  1  0  0  0  0  0  0  0  0
   24.4197    3.1145  -59.4318 H   0  0  0  1  0  0  0  0  0  0  0  0
   24.2342    3.0515  -67.7738 H   0  0  0  1  0  0  0  0  0  0  0  0
   21.5163    2.5526  -66.5272 H   0  0  0  1  0  0  0  0  0  0  0  0
   22.0151    3.9109  -67.5072 H   0  0  0  1  0  0  0  0  0  0  0  0
   21.5374    2.7970  -69.4799 H   0  0  0  1  0  0  0  0  0  0  0  0
   20.5945    1.7203  -68.4770 H   0  0  0  1  0  0  0  0  0  0  0  0
   23.4484    3.0121  -65.1518 H   0  0  0  1  0  0  0  0  0  0  0  0
   27.4165    1.6193  -56.5317 H   0  0  0  1  0  0  0  0  0  0  0  0
   26.5239    2.5693  -55.3683 H   0  0  0  1  0  0  0  0  0  0  0  0
   27.7333    3.3303  -56.3746 H   0  0  0  1  0  0  0  0  0  0  0  0
   23.1552    0.3316  -66.9585 H   0  0  0  1  0  0  0  0  0  0  0  0
   24.4835    0.6713  -68.0421 H   0  0  0  1  0  0  0  0  0  0  0  0
   21.4147   -1.3096  -69.1500 H   0  0  0  1  0  0  0  0  0  0  0  0
   21.5261   -2.7090  -71.1030 H   0  0  0  1  0  0  0  0  0  0  0  0
   23.9096   -0.0108  -73.0274 H   0  0  0  1  0  0  0  0  0  0  0  0
   23.8580    1.4753  -71.1325 H   0  0  0  1  0  0  0  0  0  0  0  0
  1  3  4  0  0  0  0
  1 14  4  0  0  0  0
  1 21  1  0  0  0  0
  2 14  4  0  0  0  0
  2 15  4  0  0  0  0
  2 30  1  0  0  0  0
  3 16  4  0  0  0  0
  4  5  4  0  0  0  0
  4  7  4  0  0  0  0
  4 17  1  0  0  0  0
  5  9  4  0  0  0  0
  5 31  1  0  0  0  0
  6  7  4  0  0  0  0
  6  8  4  0  0  0  0
  6 32  1  0  0  0  0
  7 33  1  0  0  0  0
  8  9  4  0  0  0  0
  8 20  1  0  0  0  0
  9 34  1  0  0  0  0
 10 11  1  0  0  0  0
 10 21  1  0  0  0  0
 10 24  1  0  0  0  0
 10 35  1  0  0  0  0
 11 12  1  0  0  0  0
 11 36  1  0  0  0  0
 11 37  1  0  0  0  0
 12 23  1  0  0  0  0
 12 38  1  0  0  0  0
 12 39  1  0  0  0  0
 13 23  1  0  0  0  0
 13 25  4  0  0  0  0
 13 29  4  0  0  0  0
 15 16  4  0  0  0  0
 15 18  4  0  0  0  0
 16 17  4  0  0  0  0
 17 19  4  0  0  0  0
 18 19  4  0  0  0  0
 20 22  1  0  0  0  0
 21 40  1  0  0  0  0
 22 41  1  0  0  0  0
 22 42  1  0  0  0  0
 22 43  1  0  0  0  0
 23 24  1  0  0  0  0
 24 44  1  0  0  0  0
 24 45  1  0  0  0  0
 25 26  4  0  0  0  0
 25 46  1  0  0  0  0
 26 27  4  0  0  0  0
 26 47  1  0  0  0  0
 27 28  4  0  0  0  0
 28 29  4  0  0  0  0
 28 48  1  0  0  0  0
 29 49  1  0  0  0  0
M  END
> <ConfClashScore>
0 

> <ConfOneFourInteractionScore>
-0.987833 

> <ConfScore>
0.0247963 

> <ConfScorePBest>
0.00353992 

> <ConfTolerance>
0.423414 

> <HETNAM>
     OWQ A 303  OWQ                                                       

> <pdb_OW>
Q_303 -16.5129 3.80749 7.62812 0.15963 1.39178 -0.28144 -3.20151 0 0 0 -1.30514 0 0 0 0 0 0 0 0 -8.31393

$$$$
6yky_lig_1.pdb
 OpenBabel04162415593D

 49 53  0  0  0  0  0  0  0  0999 V2000
   25.1048    1.8136  -65.3761 C   0  0  0  1  0  0  0  0  0  0  0  0
   26.9167    0.5034  -65.9326 C   0  0  0  1  0  0  0  0  0  0  0  0
   25.4178    1.8284  -64.0983 N   0  0  0  1  0  0  0  0  0  0  0  0
   26.7669    1.4474  -61.1215 C   0  0  0  1  0  0  0  0  0  0  0  0
   27.7629    1.9457  -60.3031 C   0  0  0  1  0  0  0  0  0  0  0  0
   25.1921    1.6357  -59.3239 C   0  0  0  1  0  0  0  0  0  0  0  0
   25.4803    1.2896  -60.6306 C   0  0  0  1  0  0  0  0  0  0  0  0
   26.1909    2.1356  -58.5027 C   0  0  0  1  0  0  0  0  0  0  0  0
   27.4737    2.2927  -58.9925 C   0  0  0  1  0  0  0  0  0  0  0  0
   23.5683    2.4783  -67.1786 C   0  0  0  1  0  0  0  0  0  0  0  0
   24.3903    3.4825  -68.0170 C   0  0  0  1  0  0  0  0  0  0  0  0
   23.4387    4.1701  -68.9632 C   0  0  0  1  0  0  0  0  0  0  0  0
   20.8579    4.2928  -68.8266 C   0  0  0  1  0  0  0  0  0  0  0  0
   25.8298    1.1707  -66.2748 N   0  0  0  1  0  0  0  0  0  0  0  0
   27.2965    0.4857  -64.5857 C   0  0  0  1  0  0  0  0  0  0  0  0
   26.4936    1.1852  -63.6614 C   0  0  0  1  0  0  0  0  0  0  0  0
   27.0810    1.0062  -62.4395 N   0  0  0  1  0  0  0  0  0  0  0  0
   28.3159   -0.0766  -63.9004 N   0  0  0  1  0  0  0  0  0  0  0  0
   28.2164    0.2092  -62.6490 N   0  0  0  1  0  0  0  0  0  0  0  0
   25.9760    2.4883  -57.2131 O   0  0  0  1  0  0  0  0  0  0  0  0
   23.9921    2.4858  -65.7896 N   0  0  0  1  0  0  0  0  0  0  0  0
   26.9875    3.2816  -56.5726 C   0  0  0  1  0  0  0  0  0  0  0  0
   22.0756    3.8030  -68.3371 N   0  0  0  1  0  0  0  0  0  0  0  0
   22.1537    3.0044  -67.3212 C   0  0  0  1  0  0  0  0  0  0  0  0
   20.7568    5.0013  -70.0096 C   0  0  0  1  0  0  0  0  0  0  0  0
   19.5021    5.3578  -70.4657 C   0  0  0  1  0  0  0  0  0  0  0  0
   18.3719    5.0554  -69.8194 N   0  0  0  1  0  0  0  0  0  0  0  0
   18.4849    4.3720  -68.6717 C   0  0  0  1  0  0  0  0  0  0  0  0
   19.7005    3.9722  -68.1445 C   0  0  0  1  0  0  0  0  0  0  0  0
   27.4789    0.0013  -66.6492 H   0  0  0  1  0  0  0  0  0  0  0  0
   28.7291    2.0602  -60.6703 H   0  0  0  1  0  0  0  0  0  0  0  0
   24.2258    1.5212  -58.9567 H   0  0  0  1  0  0  0  0  0  0  0  0
   24.7318    0.9109  -61.2454 H   0  0  0  1  0  0  0  0  0  0  0  0
   28.2222    2.6715  -58.3778 H   0  0  0  1  0  0  0  0  0  0  0  0
   23.6528    1.4871  -67.5726 H   0  0  0  1  0  0  0  0  0  0  0  0
   24.8508    4.2036  -67.3744 H   0  0  0  1  0  0  0  0  0  0  0  0
   25.1450    2.9642  -68.5708 H   0  0  0  1  0  0  0  0  0  0  0  0
   23.5293    3.7863  -69.9578 H   0  0  0  1  0  0  0  0  0  0  0  0
   23.5929    5.2289  -68.9736 H   0  0  0  1  0  0  0  0  0  0  0  0
   23.4650    2.9864  -65.1324 H   0  0  0  1  0  0  0  0  0  0  0  0
   27.3131    4.0519  -57.2400 H   0  0  0  1  0  0  0  0  0  0  0  0
   27.8184    2.6589  -56.3144 H   0  0  0  1  0  0  0  0  0  0  0  0
   26.5843    3.7250  -55.6862 H   0  0  0  1  0  0  0  0  0  0  0  0
   21.8824    3.5349  -66.4326 H   0  0  0  1  0  0  0  0  0  0  0  0
   21.4837    2.1826  -67.4653 H   0  0  0  1  0  0  0  0  0  0  0  0
   21.6091    5.2612  -70.5460 H   0  0  0  1  0  0  0  0  0  0  0  0
   19.4336    5.8884  -71.3575 H   0  0  0  1  0  0  0  0  0  0  0  0
   17.6170    4.1306  -68.1521 H   0  0  0  1  0  0  0  0  0  0  0  0
   19.7417    3.4403  -67.2517 H   0  0  0  1  0  0  0  0  0  0  0  0
  1  3  4  0  0  0  0
  1 14  4  0  0  0  0
  1 21  1  0  0  0  0
  2 14  4  0  0  0  0
  2 15  4  0  0  0  0
  2 30  1  0  0  0  0
  3 16  4  0  0  0  0
  4  5  4  0  0  0  0
  4  7  4  0  0  0  0
  4 17  1  0  0  0  0
  5  9  4  0  0  0  0
  5 31  1  0  0  0  0
  6  7  4  0  0  0  0
  6  8  4  0  0  0  0
  6 32  1  0  0  0  0
  7 33  1  0  0  0  0
  8  9  4  0  0  0  0
  8 20  1  0  0  0  0
  9 34  1  0  0  0  0
 10 11  1  0  0  0  0
 10 21  1  0  0  0  0
 10 24  1  0  0  0  0
 10 35  1  0  0  0  0
 11 12  1  0  0  0  0
 11 36  1  0  0  0  0
 11 37  1  0  0  0  0
 12 23  1  0  0  0  0
 12 38  1  0  0  0  0
 12 39  1  0  0  0  0
 13 23  1  0  0  0  0
 13 25  4  0  0  0  0
 13 29  4  0  0  0  0
 15 16  4  0  0  0  0
 15 18  4  0  0  0  0
 16 17  4  0  0  0  0
 17 19  4  0  0  0  0
 18 19  4  0  0  0  0
 20 22  1  0  0  0  0
 21 40  1  0  0  0  0
 22 41  1  0  0  0  0
 22 42  1  0  0  0  0
 22 43  1  0  0  0  0
 23 24  1  0  0  0  0
 24 44  1  0  0  0  0
 24 45  1  0  0  0  0
 25 26  4  0  0  0  0
 25 46  1  0  0  0  0
 26 27  4  0  0  0  0
 26 47  1  0  0  0  0
 27 28  4  0  0  0  0
 28 29  4  0  0  0  0
 28 48  1  0  0  0  0
 29 49  1  0  0  0  0
M  END
> <ConfClashScore>
0 

> <ConfOneFourInteractionScore>
-0.986948 

> <ConfScore>
0.0248495 

> <ConfScorePBest>
0.00352659 

> <ConfTolerance>
0.44136 

> <HETNAM>
     OWQ A 303  OWQ                                                       

> <pdb_OW>
Q_303 -16.5129 3.80749 7.62812 0.15963 1.39178 -0.28144 -3.20151 0 0 0 -1.30514 0 0 0 0 0 0 0 0 -8.31393

$$$$
6yky_lig_1.pdb
 OpenBabel04162415593D

 49 53  0  0  0  0  0  0  0  0999 V2000
   25.1049    1.8136  -65.3761 C   0  0  0  1  0  0  0  0  0  0  0  0
   26.9167    0.5034  -65.9326 C   0  0  0  1  0  0  0  0  0  0  0  0
   25.4179    1.8284  -64.0983 N   0  0  0  1  0  0  0  0  0  0  0  0
   26.8198    1.5228  -61.1374 C   0  0  0  1  0  0  0  0  0  0  0  0
   26.7861    2.8886  -60.9288 C   0  0  0  1  0  0  0  0  0  0  0  0
   26.5258    1.1541  -58.7870 C   0  0  0  1  0  0  0  0  0  0  0  0
   26.6922    0.6541  -60.0648 C   0  0  0  1  0  0  0  0  0  0  0  0
   26.4919    2.5240  -58.5775 C   0  0  0  1  0  0  0  0  0  0  0  0
   26.6192    3.3898  -59.6473 C   0  0  0  1  0  0  0  0  0  0  0  0
   23.0428    3.0786  -64.8802 C   0  0  0  1  0  0  0  0  0  0  0  0
   21.9942    3.9358  -65.6418 C   0  0  0  1  0  0  0  0  0  0  0  0
   21.5046    5.0354  -64.6762 C   0  0  0  1  0  0  0  0  0  0  0  0
   22.4882    5.7762  -62.4300 C   0  0  0  1  0  0  0  0  0  0  0  0
   25.8297    1.1708  -66.2748 N   0  0  0  1  0  0  0  0  0  0  0  0
   27.2964    0.4857  -64.5858 C   0  0  0  1  0  0  0  0  0  0  0  0
   26.4936    1.1852  -63.6615 C   0  0  0  1  0  0  0  0  0  0  0  0
   27.0809    1.0061  -62.4395 N   0  0  0  1  0  0  0  0  0  0  0  0
   28.3159   -0.0766  -63.9004 N   0  0  0  1  0  0  0  0  0  0  0  0
   28.2164    0.2093  -62.6490 N   0  0  0  1  0  0  0  0  0  0  0  0
   26.3307    2.8933  -57.2920 O   0  0  0  1  0  0  0  0  0  0  0  0
   24.0076    2.4763  -65.7839 N   0  0  0  1  0  0  0  0  0  0  0  0
   26.2175    4.3189  -57.0742 C   0  0  0  1  0  0  0  0  0  0  0  0
   22.5586    5.0410  -63.6226 N   0  0  0  1  0  0  0  0  0  0  0  0
   23.6838    4.1709  -64.0024 C   0  0  0  1  0  0  0  0  0  0  0  0
   23.5645    5.6464  -61.5719 C   0  0  0  1  0  0  0  0  0  0  0  0
   23.5546    6.3495  -60.3823 C   0  0  0  1  0  0  0  0  0  0  0  0
   22.5524    7.1521  -60.0113 N   0  0  0  1  0  0  0  0  0  0  0  0
   21.5134    7.2652  -60.8508 C   0  0  0  1  0  0  0  0  0  0  0  0
   21.4428    6.6008  -62.0628 C   0  0  0  1  0  0  0  0  0  0  0  0
   27.4789    0.0014  -66.6492 H   0  0  0  1  0  0  0  0  0  0  0  0
   26.8860    3.5402  -61.7332 H   0  0  0  1  0  0  0  0  0  0  0  0
   26.4258    0.5025  -57.9826 H   0  0  0  1  0  0  0  0  0  0  0  0
   26.7215   -0.3735  -60.2213 H   0  0  0  1  0  0  0  0  0  0  0  0
   26.5899    4.4175  -59.4907 H   0  0  0  1  0  0  0  0  0  0  0  0
   22.5803    2.3148  -64.2908 H   0  0  0  1  0  0  0  0  0  0  0  0
   22.4437    4.3811  -66.5046 H   0  0  0  1  0  0  0  0  0  0  0  0
   21.1712    3.3224  -65.9441 H   0  0  0  1  0  0  0  0  0  0  0  0
   21.4471    5.9834  -65.1689 H   0  0  0  1  0  0  0  0  0  0  0  0
   20.5487    4.7885  -64.2638 H   0  0  0  1  0  0  0  0  0  0  0  0
   23.8497    2.5576  -66.7476 H   0  0  0  1  0  0  0  0  0  0  0  0
   25.9957    4.5064  -56.0444 H   0  0  0  1  0  0  0  0  0  0  0  0
   25.4319    4.7115  -57.6853 H   0  0  0  1  0  0  0  0  0  0  0  0
   27.1414    4.7933  -57.3318 H   0  0  0  1  0  0  0  0  0  0  0  0
   24.4167    4.7198  -64.5560 H   0  0  0  1  0  0  0  0  0  0  0  0
   24.1395    3.7408  -63.1351 H   0  0  0  1  0  0  0  0  0  0  0  0
   24.3664    5.0313  -61.8171 H   0  0  0  1  0  0  0  0  0  0  0  0
   24.3688    6.2490  -59.7430 H   0  0  0  1  0  0  0  0  0  0  0  0
   20.7218    7.8822  -60.5781 H   0  0  0  1  0  0  0  0  0  0  0  0
   20.6181    6.7200  -62.6853 H   0  0  0  1  0  0  0  0  0  0  0  0
  1  3  4  0  0  0  0
  1 14  4  0  0  0  0
  1 21  1  0  0  0  0
  2 14  4  0  0  0  0
  2 15  4  0  0  0  0
  2 30  1  0  0  0  0
  3 16  4  0  0  0  0
  4  5  4  0  0  0  0
  4  7  4  0  0  0  0
  4 17  1  0  0  0  0
  5  9  4  0  0  0  0
  5 31  1  0  0  0  0
  6  7  4  0  0  0  0
  6  8  4  0  0  0  0
  6 32  1  0  0  0  0
  7 33  1  0  0  0  0
  8  9  4  0  0  0  0
  8 20  1  0  0  0  0
  9 34  1  0  0  0  0
 10 11  1  0  0  0  0
 10 21  1  0  0  0  0
 10 24  1  0  0  0  0
 10 35  1  0  0  0  0
 11 12  1  0  0  0  0
 11 36  1  0  0  0  0
 11 37  1  0  0  0  0
 12 23  1  0  0  0  0
 12 38  1  0  0  0  0
 12 39  1  0  0  0  0
 13 23  1  0  0  0  0
 13 25  4  0  0  0  0
 13 29  4  0  0  0  0
 15 16  4  0  0  0  0
 15 18  4  0  0  0  0
 16 17  4  0  0  0  0
 17 19  4  0  0  0  0
 18 19  4  0  0  0  0
 20 22  1  0  0  0  0
 21 40  1  0  0  0  0
 22 41  1  0  0  0  0
 22 42  1  0  0  0  0
 22 43  1  0  0  0  0
 23 24  1  0  0  0  0
 24 44  1  0  0  0  0
 24 45  1  0  0  0  0
 25 26  4  0  0  0  0
 25 46  1  0  0  0  0
 26 27  4  0  0  0  0
 26 47  1  0  0  0  0
 27 28  4  0  0  0  0
 28 29  4  0  0  0  0
 28 48  1  0  0  0  0
 29 49  1  0  0  0  0
M  END
> <ConfClashScore>
0 

> <ConfOneFourInteractionScore>
-0.987833 

> <ConfScore>
0.0251536 

> <ConfScorePBest>
0.00351326 

> <ConfTolerance>
0.395569 

> <HETNAM>
     OWQ A 303  OWQ                                                       

> <pdb_OW>
Q_303 -16.5129 3.80749 7.62812 0.15963 1.39178 -0.28144 -3.20151 0 0 0 -1.30514 0 0 0 0 0 0 0 0 -8.31393

$$$$
6yky_lig_1.pdb
 OpenBabel04162415593D

 49 53  0  0  0  0  0  0  0  0999 V2000
   25.1048    1.8137  -65.3761 C   0  0  0  1  0  0  0  0  0  0  0  0
   26.9167    0.5034  -65.9326 C   0  0  0  1  0  0  0  0  0  0  0  0
   25.4178    1.8284  -64.0983 N   0  0  0  1  0  0  0  0  0  0  0  0
   26.6855    1.4951  -61.1608 C   0  0  0  1  0  0  0  0  0  0  0  0
   26.6274    2.8561  -60.9281 C   0  0  0  1  0  0  0  0  0  0  0  0
   26.1509    1.0767  -58.8617 C   0  0  0  1  0  0  0  0  0  0  0  0
   26.4496    0.6039  -60.1256 C   0  0  0  1  0  0  0  0  0  0  0  0
   26.0926    2.4418  -58.6280 C   0  0  0  1  0  0  0  0  0  0  0  0
   26.3278    3.3301  -59.6604 C   0  0  0  1  0  0  0  0  0  0  0  0
   23.1525    3.0151  -64.6308 C   0  0  0  1  0  0  0  0  0  0  0  0
   21.9443    3.8600  -65.1217 C   0  0  0  1  0  0  0  0  0  0  0  0
   21.6033    4.8722  -64.0081 C   0  0  0  1  0  0  0  0  0  0  0  0
   22.9673    5.5380  -61.9206 C   0  0  0  1  0  0  0  0  0  0  0  0
   25.8297    1.1708  -66.2748 N   0  0  0  1  0  0  0  0  0  0  0  0
   27.2964    0.4858  -64.5857 C   0  0  0  1  0  0  0  0  0  0  0  0
   26.4936    1.1853  -63.6614 C   0  0  0  1  0  0  0  0  0  0  0  0
   27.0809    1.0062  -62.4395 N   0  0  0  1  0  0  0  0  0  0  0  0
   28.3159   -0.0766  -63.9004 N   0  0  0  1  0  0  0  0  0  0  0  0
   28.2164    0.2092  -62.6490 N   0  0  0  1  0  0  0  0  0  0  0  0
   25.7957    2.8455  -57.3472 O   0  0  0  1  0  0  0  0  0  0  0  0
   23.9585    2.5153  -65.7485 N   0  0  0  1  0  0  0  0  0  0  0  0
   25.6299    4.2781  -57.2344 C   0  0  0  1  0  0  0  0  0  0  0  0
   22.8374    4.8702  -63.1726 N   0  0  0  1  0  0  0  0  0  0  0  0
   23.9039    4.0850  -63.8153 C   0  0  0  1  0  0  0  0  0  0  0  0
   24.1996    5.6303  -61.3004 C   0  0  0  1  0  0  0  0  0  0  0  0
   24.3045    6.3689  -60.1372 C   0  0  0  1  0  0  0  0  0  0  0  0
   23.2714    7.0015  -59.5727 N   0  0  0  1  0  0  0  0  0  0  0  0
   22.0817    6.8998  -60.1822 C   0  0  0  1  0  0  0  0  0  0  0  0
   21.8878    6.1845  -61.3510 C   0  0  0  1  0  0  0  0  0  0  0  0
   27.4789    0.0013  -66.6492 H   0  0  0  1  0  0  0  0  0  0  0  0
   26.8083    3.5246  -61.7040 H   0  0  0  1  0  0  0  0  0  0  0  0
   25.9698    0.4082  -58.0858 H   0  0  0  1  0  0  0  0  0  0  0  0
   26.4973   -0.4202  -60.2999 H   0  0  0  1  0  0  0  0  0  0  0  0
   26.2801    4.3543  -59.4861 H   0  0  0  1  0  0  0  0  0  0  0  0
   22.8417    2.1939  -64.0192 H   0  0  0  1  0  0  0  0  0  0  0  0
   22.2031    4.3794  -66.0206 H   0  0  0  1  0  0  0  0  0  0  0  0
   21.1044    3.2232  -65.3062 H   0  0  0  1  0  0  0  0  0  0  0  0
   20.7540    4.5511  -63.4420 H   0  0  0  1  0  0  0  0  0  0  0  0
   21.4148    5.8438  -64.4149 H   0  0  0  1  0  0  0  0  0  0  0  0
   23.7110    2.6629  -66.6851 H   0  0  0  1  0  0  0  0  0  0  0  0
   24.7331    4.5746  -57.7371 H   0  0  0  1  0  0  0  0  0  0  0  0
   26.4684    4.7702  -57.6812 H   0  0  0  1  0  0  0  0  0  0  0  0
   25.5657    4.5492  -56.2013 H   0  0  0  1  0  0  0  0  0  0  0  0
   24.5332    3.6283  -63.0803 H   0  0  0  1  0  0  0  0  0  0  0  0
   24.4955    4.7040  -64.4570 H   0  0  0  1  0  0  0  0  0  0  0  0
   25.0318    5.1528  -61.7018 H   0  0  0  1  0  0  0  0  0  0  0  0
   25.2351    6.4360  -59.6776 H   0  0  0  1  0  0  0  0  0  0  0  0
   21.2647    7.3820  -59.7560 H   0  0  0  1  0  0  0  0  0  0  0  0
   20.9473    6.1348  -61.7920 H   0  0  0  1  0  0  0  0  0  0  0  0
  1  3  4  0  0  0  0
  1 14  4  0  0  0  0
  1 21  1  0  0  0  0
  2 14  4  0  0  0  0
  2 15  4  0  0  0  0
  2 30  1  0  0  0  0
  3 16  4  0  0  0  0
  4  5  4  0  0  0  0
  4  7  4  0  0  0  0
  4 17  1  0  0  0  0
  5  9  4  0  0  0  0
  5 31  1  0  0  0  0
  6  7  4  0  0  0  0
  6  8  4  0  0  0  0
  6 32  1  0  0  0  0
  7 33  1  0  0  0  0
  8  9  4  0  0  0  0
  8 20  1  0  0  0  0
  9 34  1  0  0  0  0
 10 11  1  0  0  0  0
 10 21  1  0  0  0  0
 10 24  1  0  0  0  0
 10 35  1  0  0  0  0
 11 12  1  0  0  0  0
 11 36  1  0  0  0  0
 11 37  1  0  0  0  0
 12 23  1  0  0  0  0
 12 38  1  0  0  0  0
 12 39  1  0  0  0  0
 13 23  1  0  0  0  0
 13 25  4  0  0  0  0
 13 29  4  0  0  0  0
 15 16  4  0  0  0  0
 15 18  4  0  0  0  0
 16 17  4  0  0  0  0
 17 19  4  0  0  0  0
 18 19  4  0  0  0  0
 20 22  1  0  0  0  0
 21 40  1  0  0  0  0
 22 41  1  0  0  0  0
 22 42  1  0  0  0  0
 22 43  1  0  0  0  0
 23 24  1  0  0  0  0
 24 44  1  0  0  0  0
 24 45  1  0  0  0  0
 25 26  4  0  0  0  0
 25 46  1  0  0  0  0
 26 27  4  0  0  0  0
 26 47  1  0  0  0  0
 27 28  4  0  0  0  0
 28 29  4  0  0  0  0
 28 48  1  0  0  0  0
 29 49  1  0  0  0  0
M  END
> <ConfClashScore>
0 

> <ConfOneFourInteractionScore>
-0.984874 

> <ConfScore>
0.0251536 

> <ConfScorePBest>
0.00349994 

> <ConfTolerance>
0.464313 

> <HETNAM>
     OWQ A 303  OWQ                                                       

> <pdb_OW>
Q_303 -16.5129 3.80749 7.62812 0.15963 1.39178 -0.28144 -3.20151 0 0 0 -1.30514 0 0 0 0 0 0 0 0 -8.31393

$$$$
6yky_lig_1.pdb
 OpenBabel04162415593D

 49 53  0  0  0  0  0  0  0  0999 V2000
   25.1048    1.8136  -65.3760 C   0  0  0  1  0  0  0  0  0  0  0  0
   26.9167    0.5034  -65.9326 C   0  0  0  1  0  0  0  0  0  0  0  0
   25.4179    1.8284  -64.0982 N   0  0  0  1  0  0  0  0  0  0  0  0
   26.7286    1.4699  -61.1391 C   0  0  0  1  0  0  0  0  0  0  0  0
   25.6586    2.3296  -60.9774 C   0  0  0  1  0  0  0  0  0  0  0  0
   27.2293    1.6496  -58.8014 C   0  0  0  1  0  0  0  0  0  0  0  0
   27.5168    1.1315  -60.0501 C   0  0  0  1  0  0  0  0  0  0  0  0
   26.1560    2.5119  -58.6391 C   0  0  0  1  0  0  0  0  0  0  0  0
   25.3703    2.8492  -59.7251 C   0  0  0  1  0  0  0  0  0  0  0  0
   23.5581    2.5289  -67.1693 C   0  0  0  1  0  0  0  0  0  0  0  0
   22.1042    2.9689  -67.2487 C   0  0  0  1  0  0  0  0  0  0  0  0
   21.6574    2.4295  -68.5959 C   0  0  0  1  0  0  0  0  0  0  0  0
   22.1025    0.1672  -69.6072 C   0  0  0  1  0  0  0  0  0  0  0  0
   25.8297    1.1707  -66.2748 N   0  0  0  1  0  0  0  0  0  0  0  0
   27.2965    0.4857  -64.5857 C   0  0  0  1  0  0  0  0  0  0  0  0
   26.4937    1.1852  -63.6614 C   0  0  0  1  0  0  0  0  0  0  0  0
   27.0809    1.0061  -62.4395 N   0  0  0  1  0  0  0  0  0  0  0  0
   28.3159   -0.0766  -63.9005 N   0  0  0  1  0  0  0  0  0  0  0  0
   28.2164    0.2092  -62.6490 N   0  0  0  1  0  0  0  0  0  0  0  0
   25.9765    2.9567  -57.3801 O   0  0  0  1  0  0  0  0  0  0  0  0
   24.0075    2.4763  -65.7837 N   0  0  0  1  0  0  0  0  0  0  0  0
   25.0580    4.0664  -57.2482 C   0  0  0  1  0  0  0  0  0  0  0  0
   22.4197    1.1789  -68.7221 N   0  0  0  1  0  0  0  0  0  0  0  0
   23.5606    1.1323  -67.7942 C   0  0  0  1  0  0  0  0  0  0  0  0
   21.1559   -0.7856  -69.2787 C   0  0  0  1  0  0  0  0  0  0  0  0
   20.8660   -1.7781  -70.1954 C   0  0  0  1  0  0  0  0  0  0  0  0
   21.4572   -1.8702  -71.3905 N   0  0  0  1  0  0  0  0  0  0  0  0
   22.3760   -0.9424  -71.6941 C   0  0  0  1  0  0  0  0  0  0  0  0
   22.7246    0.0875  -70.8378 C   0  0  0  1  0  0  0  0  0  0  0  0
   27.4789    0.0013  -66.6491 H   0  0  0  1  0  0  0  0  0  0  0  0
   25.0698    2.5866  -61.7951 H   0  0  0  1  0  0  0  0  0  0  0  0
   27.8181    1.3926  -57.9836 H   0  0  0  1  0  0  0  0  0  0  0  0
   28.3244    0.4878  -60.1726 H   0  0  0  1  0  0  0  0  0  0  0  0
   24.5627    3.4929  -59.6025 H   0  0  0  1  0  0  0  0  0  0  0  0
   24.1868    3.1939  -67.7238 H   0  0  0  1  0  0  0  0  0  0  0  0
   22.0228    4.0352  -67.2153 H   0  0  0  1  0  0  0  0  0  0  0  0
   21.5293    2.5416  -66.4538 H   0  0  0  1  0  0  0  0  0  0  0  0
   21.9037    3.1108  -69.3833 H   0  0  0  1  0  0  0  0  0  0  0  0
   20.6043    2.2401  -68.6038 H   0  0  0  1  0  0  0  0  0  0  0  0
   23.4790    2.9518  -65.1092 H   0  0  0  1  0  0  0  0  0  0  0  0
   25.4646    4.9268  -57.7375 H   0  0  0  1  0  0  0  0  0  0  0  0
   24.9082    4.2837  -56.2112 H   0  0  0  1  0  0  0  0  0  0  0  0
   24.1218    3.8097  -57.6982 H   0  0  0  1  0  0  0  0  0  0  0  0
   24.4749    0.9482  -68.3188 H   0  0  0  1  0  0  0  0  0  0  0  0
   23.4186    0.3780  -67.0488 H   0  0  0  1  0  0  0  0  0  0  0  0
   20.6713   -0.7558  -68.3590 H   0  0  0  1  0  0  0  0  0  0  0  0
   20.1511   -2.4899  -69.9424 H   0  0  0  1  0  0  0  0  0  0  0  0
   22.8501   -0.9994  -72.6181 H   0  0  0  1  0  0  0  0  0  0  0  0
   23.4412    0.7880  -71.1157 H   0  0  0  1  0  0  0  0  0  0  0  0
  1  3  4  0  0  0  0
  1 14  4  0  0  0  0
  1 21  1  0  0  0  0
  2 14  4  0  0  0  0
  2 15  4  0  0  0  0
  2 30  1  0  0  0  0
  3 16  4  0  0  0  0
  4  5  4  0  0  0  0
  4  7  4  0  0  0  0
  4 17  1  0  0  0  0
  5  9  4  0  0  0  0
  5 31  1  0  0  0  0
  6  7  4  0  0  0  0
  6  8  4  0  0  0  0
  6 32  1  0  0  0  0
  7 33  1  0  0  0  0
  8  9  4  0  0  0  0
  8 20  1  0  0  0  0
  9 34  1  0  0  0  0
 10 11  1  0  0  0  0
 10 21  1  0  0  0  0
 10 24  1  0  0  0  0
 10 35  1  0  0  0  0
 11 12  1  0  0  0  0
 11 36  1  0  0  0  0
 11 37  1  0  0  0  0
 12 23  1  0  0  0  0
 12 38  1  0  0  0  0
 12 39  1  0  0  0  0
 13 23  1  0  0  0  0
 13 25  4  0  0  0  0
 13 29  4  0  0  0  0
 15 16  4  0  0  0  0
 15 18  4  0  0  0  0
 16 17  4  0  0  0  0
 17 19  4  0  0  0  0
 18 19  4  0  0  0  0
 20 22  1  0  0  0  0
 21 40  1  0  0  0  0
 22 41  1  0  0  0  0
 22 42  1  0  0  0  0
 22 43  1  0  0  0  0
 23 24  1  0  0  0  0
 24 44  1  0  0  0  0
 24 45  1  0  0  0  0
 25 26  4  0  0  0  0
 25 46  1  0  0  0  0
 26 27  4  0  0  0  0
 26 47  1  0  0  0  0
 27 28  4  0  0  0  0
 28 29  4  0  0  0  0
 28 48  1  0  0  0  0
 29 49  1  0  0  0  0
M  END
> <ConfClashScore>
0 

> <ConfOneFourInteractionScore>
-0.987833 

> <ConfScore>
0.0262927 

> <ConfScorePBest>
0.00348661 

> <ConfTolerance>
0.486941 

> <HETNAM>
     OWQ A 303  OWQ                                                       

> <pdb_OW>
Q_303 -16.5129 3.80749 7.62812 0.15963 1.39178 -0.28144 -3.20151 0 0 0 -1.30514 0 0 0 0 0 0 0 0 -8.31393

$$$$
6yky_lig_1.pdb
 OpenBabel04162415593D

 49 53  0  0  0  0  0  0  0  0999 V2000
   25.1047    1.8134  -65.3759 C   0  0  0  1  0  0  0  0  0  0  0  0
   26.9167    0.5034  -65.9326 C   0  0  0  1  0  0  0  0  0  0  0  0
   25.4177    1.8282  -64.0982 N   0  0  0  1  0  0  0  0  0  0  0  0
   26.7286    1.4698  -61.1390 C   0  0  0  1  0  0  0  0  0  0  0  0
   25.4152    1.8429  -60.9244 C   0  0  0  1  0  0  0  0  0  0  0  0
   27.2946    2.1773  -58.9196 C   0  0  0  1  0  0  0  0  0  0  0  0
   27.6703    1.6397  -60.1362 C   0  0  0  1  0  0  0  0  0  0  0  0
   25.9774    2.5516  -58.7041 C   0  0  0  1  0  0  0  0  0  0  0  0
   25.0386    2.3822  -59.7042 C   0  0  0  1  0  0  0  0  0  0  0  0
   23.1061    3.1877  -64.8896 C   0  0  0  1  0  0  0  0  0  0  0  0
   21.8175    2.3706  -64.5959 C   0  0  0  1  0  0  0  0  0  0  0  0
   20.6918    3.3776  -64.2798 C   0  0  0  1  0  0  0  0  0  0  0  0
   20.6468    5.8942  -64.6398 C   0  0  0  1  0  0  0  0  0  0  0  0
   25.8295    1.1706  -66.2747 N   0  0  0  1  0  0  0  0  0  0  0  0
   27.2964    0.4857  -64.5857 C   0  0  0  1  0  0  0  0  0  0  0  0
   26.4936    1.1851  -63.6614 C   0  0  0  1  0  0  0  0  0  0  0  0
   27.0809    1.0061  -62.4395 N   0  0  0  1  0  0  0  0  0  0  0  0
   28.3158   -0.0766  -63.9004 N   0  0  0  1  0  0  0  0  0  0  0  0
   28.2164    0.2092  -62.6490 N   0  0  0  1  0  0  0  0  0  0  0  0
   25.6895    3.1919  -57.5461 O   0  0  0  1  0  0  0  0  0  0  0  0
   24.0032    2.4785  -65.7852 N   0  0  0  1  0  0  0  0  0  0  0  0
   24.3082    3.4849  -57.2841 C   0  0  0  1  0  0  0  0  0  0  0  0
   21.2345    4.6571  -64.8177 N   0  0  0  1  0  0  0  0  0  0  0  0
   22.4818    4.4245  -65.5643 C   0  0  0  1  0  0  0  0  0  0  0  0
   20.9330    6.6563  -63.5223 C   0  0  0  1  0  0  0  0  0  0  0  0
   20.3256    7.8901  -63.3859 C   0  0  0  1  0  0  0  0  0  0  0  0
   19.4675    8.3897  -64.2805 N   0  0  0  1  0  0  0  0  0  0  0  0
   19.1959    7.6383  -65.3569 C   0  0  0  1  0  0  0  0  0  0  0  0
   19.7614    6.3941  -65.5748 C   0  0  0  1  0  0  0  0  0  0  0  0
   27.4789    0.0013  -66.6492 H   0  0  0  1  0  0  0  0  0  0  0  0
   24.7095    1.7191  -61.6784 H   0  0  0  1  0  0  0  0  0  0  0  0
   28.0003    2.3011  -58.1656 H   0  0  0  1  0  0  0  0  0  0  0  0
   28.6594    1.3625  -60.2991 H   0  0  0  1  0  0  0  0  0  0  0  0
   24.0496    2.6592  -59.5413 H   0  0  0  1  0  0  0  0  0  0  0  0
   23.6277    3.4449  -63.9915 H   0  0  0  1  0  0  0  0  0  0  0  0
   21.5537    1.7846  -65.4514 H   0  0  0  1  0  0  0  0  0  0  0  0
   21.9771    1.7261  -63.7568 H   0  0  0  1  0  0  0  0  0  0  0  0
   20.5193    3.4448  -63.2260 H   0  0  0  1  0  0  0  0  0  0  0  0
   19.7822    3.1066  -64.7740 H   0  0  0  1  0  0  0  0  0  0  0  0
   23.7969    2.4831  -66.7432 H   0  0  0  1  0  0  0  0  0  0  0  0
   23.8484    2.6435  -56.8092 H   0  0  0  1  0  0  0  0  0  0  0  0
   23.8066    3.6916  -58.2063 H   0  0  0  1  0  0  0  0  0  0  0  0
   24.2404    4.3378  -56.6416 H   0  0  0  1  0  0  0  0  0  0  0  0
   23.1340    5.2689  -65.4846 H   0  0  0  1  0  0  0  0  0  0  0  0
   22.2749    4.2291  -66.5958 H   0  0  0  1  0  0  0  0  0  0  0  0
   21.5929    6.3077  -62.7981 H   0  0  0  1  0  0  0  0  0  0  0  0
   20.5476    8.4590  -62.5440 H   0  0  0  1  0  0  0  0  0  0  0  0
   18.5275    8.0082  -66.0626 H   0  0  0  1  0  0  0  0  0  0  0  0
   19.5244    5.8460  -66.4263 H   0  0  0  1  0  0  0  0  0  0  0  0
  1  3  4  0  0  0  0
  1 14  4  0  0  0  0
  1 21  1  0  0  0  0
  2 14  4  0  0  0  0
  2 15  4  0  0  0  0
  2 30  1  0  0  0  0
  3 16  4  0  0  0  0
  4  5  4  0  0  0  0
  4  7  4  0  0  0  0
  4 17  1  0  0  0  0
  5  9  4  0  0  0  0
  5 31  1  0  0  0  0
  6  7  4  0  0  0  0
  6  8  4  0  0  0  0
  6 32  1  0  0  0  0
  7 33  1  0  0  0  0
  8  9  4  0  0  0  0
  8 20  1  0  0  0  0
  9 34  1  0  0  0  0
 10 11  1  0  0  0  0
 10 21  1  0  0  0  0
 10 24  1  0  0  0  0
 10 35  1  0  0  0  0
 11 12  1  0  0  0  0
 11 36  1  0  0  0  0
 11 37  1  0  0  0  0
 12 23  1  0  0  0  0
 12 38  1  0  0  0  0
 12 39  1  0  0  0  0
 13 23  1  0  0  0  0
 13 25  4  0  0  0  0
 13 29  4  0  0  0  0
 15 16  4  0  0  0  0
 15 18  4  0  0  0  0
 16 17  4  0  0  0  0
 17 19  4  0  0  0  0
 18 19  4  0  0  0  0
 20 22  1  0  0  0  0
 21 40  1  0  0  0  0
 22 41  1  0  0  0  0
 22 42  1  0  0  0  0
 22 43  1  0  0  0  0
 23 24  1  0  0  0  0
 24 44  1  0  0  0  0
 24 45  1  0  0  0  0
 25 26  4  0  0  0  0
 25 46  1  0  0  0  0
 26 27  4  0  0  0  0
 26 47  1  0  0  0  0
 27 28  4  0  0  0  0
 28 29  4  0  0  0  0
 28 48  1  0  0  0  0
 29 49  1  0  0  0  0
M  END
> <ConfClashScore>
0 

> <ConfOneFourInteractionScore>
-0.986948 

> <ConfScore>
0.0264872 

> <ConfScorePBest>
0.00347328 

> <ConfTolerance>
0.469746 

> <HETNAM>
     OWQ A 303  OWQ                                                       

> <pdb_OW>
Q_303 -16.5129 3.80749 7.62812 0.15963 1.39178 -0.28144 -3.20151 0 0 0 -1.30514 0 0 0 0 0 0 0 0 -8.31393

$$$$
6yky_lig_1.pdb
 OpenBabel04162415593D

 49 53  0  0  0  0  0  0  0  0999 V2000
   25.1048    1.8135  -65.3760 C   0  0  0  1  0  0  0  0  0  0  0  0
   26.9167    0.5034  -65.9326 C   0  0  0  1  0  0  0  0  0  0  0  0
   25.4178    1.8283  -64.0983 N   0  0  0  1  0  0  0  0  0  0  0  0
   26.7285    1.4699  -61.1391 C   0  0  0  1  0  0  0  0  0  0  0  0
   27.5968    1.2851  -60.0798 C   0  0  0  1  0  0  0  0  0  0  0  0
   25.0977    2.3937  -59.6443 C   0  0  0  1  0  0  0  0  0  0  0  0
   25.4761    2.0226  -60.9208 C   0  0  0  1  0  0  0  0  0  0  0  0
   25.9684    2.2085  -58.5817 C   0  0  0  1  0  0  0  0  0  0  0  0
   27.2171    1.6574  -58.7996 C   0  0  0  1  0  0  0  0  0  0  0  0
   23.6682    2.6320  -67.1977 C   0  0  0  1  0  0  0  0  0  0  0  0
   22.2258    3.1523  -67.3863 C   0  0  0  1  0  0  0  0  0  0  0  0
   21.6181    2.3971  -68.5413 C   0  0  0  1  0  0  0  0  0  0  0  0
   22.4164    0.1584  -69.6127 C   0  0  0  1  0  0  0  0  0  0  0  0
   25.8296    1.1707  -66.2748 N   0  0  0  1  0  0  0  0  0  0  0  0
   27.2964    0.4857  -64.5858 C   0  0  0  1  0  0  0  0  0  0  0  0
   26.4936    1.1852  -63.6614 C   0  0  0  1  0  0  0  0  0  0  0  0
   27.0809    1.0061  -62.4395 N   0  0  0  1  0  0  0  0  0  0  0  0
   28.3159   -0.0766  -63.9004 N   0  0  0  1  0  0  0  0  0  0  0  0
   28.2164    0.2092  -62.6490 N   0  0  0  1  0  0  0  0  0  0  0  0
   25.5349    2.5881  -57.3563 O   0  0  0  1  0  0  0  0  0  0  0  0
   23.9919    2.4856  -65.7896 N   0  0  0  1  0  0  0  0  0  0  0  0
   26.4565    2.4533  -56.2632 C   0  0  0  1  0  0  0  0  0  0  0  0
   22.6093    1.2216  -68.6859 N   0  0  0  1  0  0  0  0  0  0  0  0
   23.6304    1.2852  -67.8926 C   0  0  0  1  0  0  0  0  0  0  0  0
   23.3798   -0.7986  -69.8730 C   0  0  0  1  0  0  0  0  0  0  0  0
   23.0967   -1.7949  -70.7877 C   0  0  0  1  0  0  0  0  0  0  0  0
   21.9346   -1.8832  -71.4421 N   0  0  0  1  0  0  0  0  0  0  0  0
   21.0113   -0.9463  -71.1832 C   0  0  0  1  0  0  0  0  0  0  0  0
   21.2095    0.0836  -70.2802 C   0  0  0  1  0  0  0  0  0  0  0  0
   27.4789    0.0014  -66.6492 H   0  0  0  1  0  0  0  0  0  0  0  0
   28.5348    0.8668  -60.2431 H   0  0  0  1  0  0  0  0  0  0  0  0
   24.1596    2.8120  -59.4810 H   0  0  0  1  0  0  0  0  0  0  0  0
   24.8214    2.1579  -61.7173 H   0  0  0  1  0  0  0  0  0  0  0  0
   27.8719    1.5221  -58.0031 H   0  0  0  1  0  0  0  0  0  0  0  0
   24.3775    3.2854  -67.6613 H   0  0  0  1  0  0  0  0  0  0  0  0
   22.2411    4.2000  -67.6028 H   0  0  0  1  0  0  0  0  0  0  0  0
   21.6562    2.9796  -66.4972 H   0  0  0  1  0  0  0  0  0  0  0  0
   21.5874    2.9952  -69.4280 H   0  0  0  1  0  0  0  0  0  0  0  0
   20.6322    2.0522  -68.3089 H   0  0  0  1  0  0  0  0  0  0  0  0
   23.3956    2.8798  -65.1191 H   0  0  0  1  0  0  0  0  0  0  0  0
   25.9742    2.7394  -55.3520 H   0  0  0  1  0  0  0  0  0  0  0  0
   27.3039    3.0846  -56.4315 H   0  0  0  1  0  0  0  0  0  0  0  0
   26.7783    1.4353  -56.1918 H   0  0  0  1  0  0  0  0  0  0  0  0
   24.5278    1.1548  -68.4604 H   0  0  0  1  0  0  0  0  0  0  0  0
   23.5566    0.5103  -67.1584 H   0  0  0  1  0  0  0  0  0  0  0  0
   24.3001   -0.7692  -69.3895 H   0  0  0  1  0  0  0  0  0  0  0  0
   23.8251   -2.5128  -70.9766 H   0  0  0  1  0  0  0  0  0  0  0  0
   20.1020   -0.9958  -71.6853 H   0  0  0  1  0  0  0  0  0  0  0  0
   20.4639    0.7878  -70.1075 H   0  0  0  1  0  0  0  0  0  0  0  0
  1  3  4  0  0  0  0
  1 14  4  0  0  0  0
  1 21  1  0  0  0  0
  2 14  4  0  0  0  0
  2 15  4  0  0  0  0
  2 30  1  0  0  0  0
  3 16  4  0  0  0  0
  4  5  4  0  0  0  0
  4  7  4  0  0  0  0
  4 17  1  0  0  0  0
  5  9  4  0  0  0  0
  5 31  1  0  0  0  0
  6  7  4  0  0  0  0
  6  8  4  0  0  0  0
  6 32  1  0  0  0  0
  7 33  1  0  0  0  0
  8  9  4  0  0  0  0
  8 20  1  0  0  0  0
  9 34  1  0  0  0  0
 10 11  1  0  0  0  0
 10 21  1  0  0  0  0
 10 24  1  0  0  0  0
 10 35  1  0  0  0  0
 11 12  1  0  0  0  0
 11 36  1  0  0  0  0
 11 37  1  0  0  0  0
 12 23  1  0  0  0  0
 12 38  1  0  0  0  0
 12 39  1  0  0  0  0
 13 23  1  0  0  0  0
 13 25  4  0  0  0  0
 13 29  4  0  0  0  0
 15 16  4  0  0  0  0
 15 18  4  0  0  0  0
 16 17  4  0  0  0  0
 17 19  4  0  0  0  0
 18 19  4  0  0  0  0
 20 22  1  0  0  0  0
 21 40  1  0  0  0  0
 22 41  1  0  0  0  0
 22 42  1  0  0  0  0
 22 43  1  0  0  0  0
 23 24  1  0  0  0  0
 24 44  1  0  0  0  0
 24 45  1  0  0  0  0
 25 26  4  0  0  0  0
 25 46  1  0  0  0  0
 26 27  4  0  0  0  0
 26 47  1  0  0  0  0
 27 28  4  0  0  0  0
 28 29  4  0  0  0  0
 28 48  1  0  0  0  0
 29 49  1  0  0  0  0
M  END
> <ConfClashScore>
0 

> <ConfOneFourInteractionScore>
-0.987833 

> <ConfScore>
0.0278133 

> <ConfScorePBest>
0.00345995 

> <ConfTolerance>
0.44566 

> <HETNAM>
     OWQ A 303  OWQ                                                       

> <pdb_OW>
Q_303 -16.5129 3.80749 7.62812 0.15963 1.39178 -0.28144 -3.20151 0 0 0 -1.30514 0 0 0 0 0 0 0 0 -8.31393

$$$$
6yky_lig_1.pdb
 OpenBabel04162415593D

 49 53  0  0  0  0  0  0  0  0999 V2000
   25.1047    1.8135  -65.3759 C   0  0  0  1  0  0  0  0  0  0  0  0
   26.9167    0.5034  -65.9326 C   0  0  0  1  0  0  0  0  0  0  0  0
   25.4178    1.8283  -64.0983 N   0  0  0  1  0  0  0  0  0  0  0  0
   26.7286    1.4698  -61.1391 C   0  0  0  1  0  0  0  0  0  0  0  0
   27.3291    2.6022  -60.6220 C   0  0  0  1  0  0  0  0  0  0  0  0
   25.5755    1.1312  -59.0647 C   0  0  0  1  0  0  0  0  0  0  0  0
   25.8526    0.7317  -60.3585 C   0  0  0  1  0  0  0  0  0  0  0  0
   26.1777    2.2670  -58.5459 C   0  0  0  1  0  0  0  0  0  0  0  0
   27.0511    3.0028  -59.3244 C   0  0  0  1  0  0  0  0  0  0  0  0
   23.0523    3.2079  -64.8838 C   0  0  0  1  0  0  0  0  0  0  0  0
   21.6981    3.4476  -65.6068 C   0  0  0  1  0  0  0  0  0  0  0  0
   21.0723    4.7248  -65.0079 C   0  0  0  1  0  0  0  0  0  0  0  0
   22.1413    6.5059  -63.5045 C   0  0  0  1  0  0  0  0  0  0  0  0
   25.8296    1.1707  -66.2747 N   0  0  0  1  0  0  0  0  0  0  0  0
   27.2965    0.4857  -64.5858 C   0  0  0  1  0  0  0  0  0  0  0  0
   26.4936    1.1852  -63.6614 C   0  0  0  1  0  0  0  0  0  0  0  0
   27.0809    1.0060  -62.4395 N   0  0  0  1  0  0  0  0  0  0  0  0
   28.3159   -0.0766  -63.9004 N   0  0  0  1  0  0  0  0  0  0  0  0
   28.2164    0.2092  -62.6490 N   0  0  0  1  0  0  0  0  0  0  0  0
   25.8344    2.5563  -57.2682 O   0  0  0  1  0  0  0  0  0  0  0  0
   24.0039    2.4873  -65.7336 N   0  0  0  1  0  0  0  0  0  0  0  0
   26.3933    3.7472  -56.6922 C   0  0  0  1  0  0  0  0  0  0  0  0
   22.2318    5.3735  -64.3326 N   0  0  0  1  0  0  0  0  0  0  0  0
   23.4845    4.6684  -64.6497 C   0  0  0  1  0  0  0  0  0  0  0  0
   22.1562    7.7550  -64.0972 C   0  0  0  1  0  0  0  0  0  0  0  0
   22.1579    8.8748  -63.2874 C   0  0  0  1  0  0  0  0  0  0  0  0
   22.1488    8.8162  -61.9522 N   0  0  0  1  0  0  0  0  0  0  0  0
   22.1388    7.5987  -61.3910 C   0  0  0  1  0  0  0  0  0  0  0  0
   22.1327    6.4258  -62.1257 C   0  0  0  1  0  0  0  0  0  0  0  0
   27.4790    0.0014  -66.6492 H   0  0  0  1  0  0  0  0  0  0  0  0
   27.9893    3.1537  -61.2063 H   0  0  0  1  0  0  0  0  0  0  0  0
   24.9152    0.5798  -58.4803 H   0  0  0  1  0  0  0  0  0  0  0  0
   25.4039   -0.1226  -60.7463 H   0  0  0  1  0  0  0  0  0  0  0  0
   27.4998    3.8571  -58.9366 H   0  0  0  1  0  0  0  0  0  0  0  0
   22.9238    2.6783  -63.9629 H   0  0  0  1  0  0  0  0  0  0  0  0
   21.8624    3.5789  -66.6558 H   0  0  0  1  0  0  0  0  0  0  0  0
   21.0470    2.6133  -65.4488 H   0  0  0  1  0  0  0  0  0  0  0  0
   20.6716    5.3539  -65.7750 H   0  0  0  1  0  0  0  0  0  0  0  0
   20.3024    4.4837  -64.3050 H   0  0  0  1  0  0  0  0  0  0  0  0
   23.8083    2.5001  -66.6938 H   0  0  0  1  0  0  0  0  0  0  0  0
   25.7495    4.1046  -55.9159 H   0  0  0  1  0  0  0  0  0  0  0  0
   26.4897    4.4977  -57.4489 H   0  0  0  1  0  0  0  0  0  0  0  0
   27.3571    3.5268  -56.2829 H   0  0  0  1  0  0  0  0  0  0  0  0
   23.9357    5.0755  -65.5304 H   0  0  0  1  0  0  0  0  0  0  0  0
   24.1728    4.7334  -63.8330 H   0  0  0  1  0  0  0  0  0  0  0  0
   22.1660    7.8499  -65.1328 H   0  0  0  1  0  0  0  0  0  0  0  0
   22.1665    9.8110  -63.7401 H   0  0  0  1  0  0  0  0  0  0  0  0
   22.1355    7.5324  -60.3531 H   0  0  0  1  0  0  0  0  0  0  0  0
   22.1217    5.5017  -61.6485 H   0  0  0  1  0  0  0  0  0  0  0  0
  1  3  4  0  0  0  0
  1 14  4  0  0  0  0
  1 21  1  0  0  0  0
  2 14  4  0  0  0  0
  2 15  4  0  0  0  0
  2 30  1  0  0  0  0
  3 16  4  0  0  0  0
  4  5  4  0  0  0  0
  4  7  4  0  0  0  0
  4 17  1  0  0  0  0
  5  9  4  0  0  0  0
  5 31  1  0  0  0  0
  6  7  4  0  0  0  0
  6  8  4  0  0  0  0
  6 32  1  0  0  0  0
  7 33  1  0  0  0  0
  8  9  4  0  0  0  0
  8 20  1  0  0  0  0
  9 34  1  0  0  0  0
 10 11  1  0  0  0  0
 10 21  1  0  0  0  0
 10 24  1  0  0  0  0
 10 35  1  0  0  0  0
 11 12  1  0  0  0  0
 11 36  1  0  0  0  0
 11 37  1  0  0  0  0
 12 23  1  0  0  0  0
 12 38  1  0  0  0  0
 12 39  1  0  0  0  0
 13 23  1  0  0  0  0
 13 25  4  0  0  0  0
 13 29  4  0  0  0  0
 15 16  4  0  0  0  0
 15 18  4  0  0  0  0
 16 17  4  0  0  0  0
 17 19  4  0  0  0  0
 18 19  4  0  0  0  0
 20 22  1  0  0  0  0
 21 40  1  0  0  0  0
 22 41  1  0  0  0  0
 22 42  1  0  0  0  0
 22 43  1  0  0  0  0
 23 24  1  0  0  0  0
 24 44  1  0  0  0  0
 24 45  1  0  0  0  0
 25 26  4  0  0  0  0
 25 46  1  0  0  0  0
 26 27  4  0  0  0  0
 26 47  1  0  0  0  0
 27 28  4  0  0  0  0
 28 29  4  0  0  0  0
 28 48  1  0  0  0  0
 29 49  1  0  0  0  0
M  END
> <ConfClashScore>
0 

> <ConfOneFourInteractionScore>
-0.991755 

> <ConfScore>
0.0290342 

> <ConfScorePBest>
0.00344662 

> <ConfTolerance>
0.425412 

> <HETNAM>
     OWQ A 303  OWQ                                                       

> <pdb_OW>
Q_303 -16.5129 3.80749 7.62812 0.15963 1.39178 -0.28144 -3.20151 0 0 0 -1.30514 0 0 0 0 0 0 0 0 -8.31393

$$$$
6yky_lig_1.pdb
 OpenBabel04162415593D

 49 53  0  0  0  0  0  0  0  0999 V2000
   25.1048    1.8136  -65.3760 C   0  0  0  1  0  0  0  0  0  0  0  0
   26.9167    0.5034  -65.9326 C   0  0  0  1  0  0  0  0  0  0  0  0
   25.4179    1.8285  -64.0982 N   0  0  0  1  0  0  0  0  0  0  0  0
   26.7286    1.4700  -61.1391 C   0  0  0  1  0  0  0  0  0  0  0  0
   27.7505    1.6722  -60.2308 C   0  0  0  1  0  0  0  0  0  0  0  0
   25.1159    1.9951  -59.4448 C   0  0  0  1  0  0  0  0  0  0  0  0
   25.4092    1.6290  -60.7449 C   0  0  0  1  0  0  0  0  0  0  0  0
   26.1407    2.1979  -58.5337 C   0  0  0  1  0  0  0  0  0  0  0  0
   27.4562    2.0393  -58.9269 C   0  0  0  1  0  0  0  0  0  0  0  0
   23.6042    2.3865  -67.2447 C   0  0  0  1  0  0  0  0  0  0  0  0
   23.0796    3.7401  -67.7734 C   0  0  0  1  0  0  0  0  0  0  0  0
   21.8922    3.4528  -68.6572 C   0  0  0  1  0  0  0  0  0  0  0  0
   20.4772    1.3014  -68.7669 C   0  0  0  1  0  0  0  0  0  0  0  0
   25.8297    1.1707  -66.2747 N   0  0  0  1  0  0  0  0  0  0  0  0
   27.2965    0.4858  -64.5857 C   0  0  0  1  0  0  0  0  0  0  0  0
   26.4937    1.1852  -63.6614 C   0  0  0  1  0  0  0  0  0  0  0  0
   27.0809    1.0063  -62.4395 N   0  0  0  1  0  0  0  0  0  0  0  0
   28.3159   -0.0766  -63.9004 N   0  0  0  1  0  0  0  0  0  0  0  0
   28.2164    0.2092  -62.6490 N   0  0  0  1  0  0  0  0  0  0  0  0
   25.7323    2.5477  -57.2909 O   0  0  0  1  0  0  0  0  0  0  0  0
   23.9848    2.4826  -65.8346 N   0  0  0  1  0  0  0  0  0  0  0  0
   26.7517    2.8586  -56.3284 C   0  0  0  1  0  0  0  0  0  0  0  0
   21.5716    1.9941  -68.2643 N   0  0  0  1  0  0  0  0  0  0  0  0
   22.4091    1.4716  -67.4269 C   0  0  0  1  0  0  0  0  0  0  0  0
   19.6490    1.8865  -69.7069 C   0  0  0  1  0  0  0  0  0  0  0  0
   18.6293    1.1325  -70.2555 C   0  0  0  1  0  0  0  0  0  0  0  0
   18.3957   -0.1407  -69.9224 N   0  0  0  1  0  0  0  0  0  0  0  0
   19.2035   -0.6940  -69.0067 C   0  0  0  1  0  0  0  0  0  0  0  0
   20.2503   -0.0134  -68.4097 C   0  0  0  1  0  0  0  0  0  0  0  0
   27.4790    0.0014  -66.6491 H   0  0  0  1  0  0  0  0  0  0  0  0
   28.7402    1.5489  -60.5256 H   0  0  0  1  0  0  0  0  0  0  0  0
   24.1261    2.1184  -59.1501 H   0  0  0  1  0  0  0  0  0  0  0  0
   24.6401    1.4730  -61.4274 H   0  0  0  1  0  0  0  0  0  0  0  0
   28.2254    2.1954  -58.2445 H   0  0  0  1  0  0  0  0  0  0  0  0
   24.4411    2.0466  -67.8182 H   0  0  0  1  0  0  0  0  0  0  0  0
   22.7832    4.3617  -66.9545 H   0  0  0  1  0  0  0  0  0  0  0  0
   23.8439    4.2326  -68.3374 H   0  0  0  1  0  0  0  0  0  0  0  0
   22.1464    3.5328  -69.6935 H   0  0  0  1  0  0  0  0  0  0  0  0
   21.0737    4.1065  -68.4388 H   0  0  0  1  0  0  0  0  0  0  0  0
   23.4469    3.0203  -65.2165 H   0  0  0  1  0  0  0  0  0  0  0  0
   26.2949    3.1711  -55.4125 H   0  0  0  1  0  0  0  0  0  0  0  0
   27.3696    3.6466  -56.7054 H   0  0  0  1  0  0  0  0  0  0  0  0
   27.3502    1.9898  -56.1498 H   0  0  0  1  0  0  0  0  0  0  0  0
   22.7414    0.5263  -67.8023 H   0  0  0  1  0  0  0  0  0  0  0  0
   21.9244    1.3308  -66.4834 H   0  0  0  1  0  0  0  0  0  0  0  0
   19.7910    2.8754  -69.9956 H   0  0  0  1  0  0  0  0  0  0  0  0
   18.0119    1.5784  -70.9637 H   0  0  0  1  0  0  0  0  0  0  0  0
   19.0354   -1.6827  -68.7315 H   0  0  0  1  0  0  0  0  0  0  0  0
   20.8547   -0.4831  -67.7056 H   0  0  0  1  0  0  0  0  0  0  0  0
  1  3  4  0  0  0  0
  1 14  4  0  0  0  0
  1 21  1  0  0  0  0
  2 14  4  0  0  0  0
  2 15  4  0  0  0  0
  2 30  1  0  0  0  0
  3 16  4  0  0  0  0
  4  5  4  0  0  0  0
  4  7  4  0  0  0  0
  4 17  1  0  0  0  0
  5  9  4  0  0  0  0
  5 31  1  0  0  0  0
  6  7  4  0  0  0  0
  6  8  4  0  0  0  0
  6 32  1  0  0  0  0
  7 33  1  0  0  0  0
  8  9  4  0  0  0  0
  8 20  1  0  0  0  0
  9 34  1  0  0  0  0
 10 11  1  0  0  0  0
 10 21  1  0  0  0  0
 10 24  1  0  0  0  0
 10 35  1  0  0  0  0
 11 12  1  0  0  0  0
 11 36  1  0  0  0  0
 11 37  1  0  0  0  0
 12 23  1  0  0  0  0
 12 38  1  0  0  0  0
 12 39  1  0  0  0  0
 13 23  1  0  0  0  0
 13 25  4  0  0  0  0
 13 29  4  0  0  0  0
 15 16  4  0  0  0  0
 15 18  4  0  0  0  0
 16 17  4  0  0  0  0
 17 19  4  0  0  0  0
 18 19  4  0  0  0  0
 20 22  1  0  0  0  0
 21 40  1  0  0  0  0
 22 41  1  0  0  0  0
 22 42  1  0  0  0  0
 22 43  1  0  0  0  0
 23 24  1  0  0  0  0
 24 44  1  0  0  0  0
 24 45  1  0  0  0  0
 25 26  4  0  0  0  0
 25 46  1  0  0  0  0
 26 27  4  0  0  0  0
 26 47  1  0  0  0  0
 27 28  4  0  0  0  0
 28 29  4  0  0  0  0
 28 48  1  0  0  0  0
 29 49  1  0  0  0  0
M  END
> <ConfClashScore>
0 

> <ConfOneFourInteractionScore>
-0.984874 

> <ConfScore>
0.0291116 

> <ConfScorePBest>
0.00343329 

> <ConfTolerance>
0.479953 

> <HETNAM>
     OWQ A 303  OWQ                                                       

> <pdb_OW>
Q_303 -16.5129 3.80749 7.62812 0.15963 1.39178 -0.28144 -3.20151 0 0 0 -1.30514 0 0 0 0 0 0 0 0 -8.31393

$$$$
6yky_lig_1.pdb
 OpenBabel04162415593D

 49 53  0  0  0  0  0  0  0  0999 V2000
   25.1047    1.8134  -65.3759 C   0  0  0  1  0  0  0  0  0  0  0  0
   26.9167    0.5034  -65.9326 C   0  0  0  1  0  0  0  0  0  0  0  0
   25.4178    1.8282  -64.0982 N   0  0  0  1  0  0  0  0  0  0  0  0
   26.7285    1.4698  -61.1390 C   0  0  0  1  0  0  0  0  0  0  0  0
   27.7516    1.8758  -60.3032 C   0  0  0  1  0  0  0  0  0  0  0  0
   25.1456    1.8119  -59.3715 C   0  0  0  1  0  0  0  0  0  0  0  0
   25.4239    1.4352  -60.6719 C   0  0  0  1  0  0  0  0  0  0  0  0
   26.1715    2.2192  -58.5330 C   0  0  0  1  0  0  0  0  0  0  0  0
   27.4723    2.2537  -58.9991 C   0  0  0  1  0  0  0  0  0  0  0  0
   23.1765    3.2533  -64.8649 C   0  0  0  1  0  0  0  0  0  0  0  0
   22.2335    2.3333  -64.0579 C   0  0  0  1  0  0  0  0  0  0  0  0
   20.8980    3.0267  -63.9591 C   0  0  0  1  0  0  0  0  0  0  0  0
   20.0201    4.9658  -65.3904 C   0  0  0  1  0  0  0  0  0  0  0  0
   25.8296    1.1706  -66.2747 N   0  0  0  1  0  0  0  0  0  0  0  0
   27.2965    0.4857  -64.5857 C   0  0  0  1  0  0  0  0  0  0  0  0
   26.4936    1.1851  -63.6614 C   0  0  0  1  0  0  0  0  0  0  0  0
   27.0809    1.0061  -62.4395 N   0  0  0  1  0  0  0  0  0  0  0  0
   28.3159   -0.0766  -63.9004 N   0  0  0  1  0  0  0  0  0  0  0  0
   28.2164    0.2093  -62.6490 N   0  0  0  1  0  0  0  0  0  0  0  0
   26.0218    2.6048  -57.2435 O   0  0  0  1  0  0  0  0  0  0  0  0
   23.9919    2.4854  -65.7895 N   0  0  0  1  0  0  0  0  0  0  0  0
   24.6927    2.5771  -56.7004 C   0  0  0  1  0  0  0  0  0  0  0  0
   21.0429    4.1134  -65.0467 N   0  0  0  1  0  0  0  0  0  0  0  0
   22.2091    4.1538  -65.6075 C   0  0  0  1  0  0  0  0  0  0  0  0
   18.9035    5.0880  -64.5843 C   0  0  0  1  0  0  0  0  0  0  0  0
   17.9007    5.9591  -64.9653 C   0  0  0  1  0  0  0  0  0  0  0  0
   17.9499    6.6936  -66.0808 N   0  0  0  1  0  0  0  0  0  0  0  0
   19.0363    6.5619  -66.8552 C   0  0  0  1  0  0  0  0  0  0  0  0
   20.0880    5.7164  -66.5479 C   0  0  0  1  0  0  0  0  0  0  0  0
   27.4789    0.0014  -66.6492 H   0  0  0  1  0  0  0  0  0  0  0  0
   28.7309    1.8980  -60.6526 H   0  0  0  1  0  0  0  0  0  0  0  0
   24.1663    1.7898  -59.0221 H   0  0  0  1  0  0  0  0  0  0  0  0
   24.6547    1.1258  -61.2997 H   0  0  0  1  0  0  0  0  0  0  0  0
   28.2415    2.5631  -58.3713 H   0  0  0  1  0  0  0  0  0  0  0  0
   23.8105    3.8204  -64.2158 H   0  0  0  1  0  0  0  0  0  0  0  0
   22.6330    2.1693  -63.0790 H   0  0  0  1  0  0  0  0  0  0  0  0
   22.1213    1.3950  -64.5598 H   0  0  0  1  0  0  0  0  0  0  0  0
   20.7511    3.4581  -62.9909 H   0  0  0  1  0  0  0  0  0  0  0  0
   20.0920    2.3579  -64.1780 H   0  0  0  1  0  0  0  0  0  0  0  0
   23.7360    2.4492  -66.7348 H   0  0  0  1  0  0  0  0  0  0  0  0
   24.2558    1.6160  -56.8740 H   0  0  0  1  0  0  0  0  0  0  0  0
   24.0982    3.3298  -57.1746 H   0  0  0  1  0  0  0  0  0  0  0  0
   24.7337    2.7650  -55.6478 H   0  0  0  1  0  0  0  0  0  0  0  0
   22.1254    3.8229  -66.6216 H   0  0  0  1  0  0  0  0  0  0  0  0
   22.5758    5.1587  -65.5887 H   0  0  0  1  0  0  0  0  0  0  0  0
   18.8198    4.5348  -63.7076 H   0  0  0  1  0  0  0  0  0  0  0  0
   17.0650    6.0479  -64.3527 H   0  0  0  1  0  0  0  0  0  0  0  0
   19.0914    7.1223  -67.7297 H   0  0  0  1  0  0  0  0  0  0  0  0
   20.9137    5.6477  -67.1764 H   0  0  0  1  0  0  0  0  0  0  0  0
  1  3  4  0  0  0  0
  1 14  4  0  0  0  0
  1 21  1  0  0  0  0
  2 14  4  0  0  0  0
  2 15  4  0  0  0  0
  2 30  1  0  0  0  0
  3 16  4  0  0  0  0
  4  5  4  0  0  0  0
  4  7  4  0  0  0  0
  4 17  1  0  0  0  0
  5  9  4  0  0  0  0
  5 31  1  0  0  0  0
  6  7  4  0  0  0  0
  6  8  4  0  0  0  0
  6 32  1  0  0  0  0
  7 33  1  0  0  0  0
  8  9  4  0  0  0  0
  8 20  1  0  0  0  0
  9 34  1  0  0  0  0
 10 11  1  0  0  0  0
 10 21  1  0  0  0  0
 10 24  1  0  0  0  0
 10 35  1  0  0  0  0
 11 12  1  0  0  0  0
 11 36  1  0  0  0  0
 11 37  1  0  0  0  0
 12 23  1  0  0  0  0
 12 38  1  0  0  0  0
 12 39  1  0  0  0  0
 13 23  1  0  0  0  0
 13 25  4  0  0  0  0
 13 29  4  0  0  0  0
 15 16  4  0  0  0  0
 15 18  4  0  0  0  0
 16 17  4  0  0  0  0
 17 19  4  0  0  0  0
 18 19  4  0  0  0  0
 20 22  1  0  0  0  0
 21 40  1  0  0  0  0
 22 41  1  0  0  0  0
 22 42  1  0  0  0  0
 22 43  1  0  0  0  0
 23 24  1  0  0  0  0
 24 44  1  0  0  0  0
 24 45  1  0  0  0  0
 25 26  4  0  0  0  0
 25 46  1  0  0  0  0
 26 27  4  0  0  0  0
 26 47  1  0  0  0  0
 27 28  4  0  0  0  0
 28 29  4  0  0  0  0
 28 48  1  0  0  0  0
 29 49  1  0  0  0  0
M  END
> <ConfClashScore>
0 

> <ConfOneFourInteractionScore>
-0.986948 

> <ConfScore>
0.0295042 

> <ConfScorePBest>
0.00341997 

> <ConfTolerance>
0.495165 

> <HETNAM>
     OWQ A 303  OWQ                                                       

> <pdb_OW>
Q_303 -16.5129 3.80749 7.62812 0.15963 1.39178 -0.28144 -3.20151 0 0 0 -1.30514 0 0 0 0 0 0 0 0 -8.31393

$$$$
6yky_lig_1.pdb
 OpenBabel04162415593D

 49 53  0  0  0  0  0  0  0  0999 V2000
   25.1047    1.8136  -65.3760 C   0  0  0  1  0  0  0  0  0  0  0  0
   26.9167    0.5034  -65.9326 C   0  0  0  1  0  0  0  0  0  0  0  0
   25.4179    1.8285  -64.0983 N   0  0  0  1  0  0  0  0  0  0  0  0
   26.7286    1.4700  -61.1391 C   0  0  0  1  0  0  0  0  0  0  0  0
   26.4411    0.5220  -60.1753 C   0  0  0  1  0  0  0  0  0  0  0  0
   26.1494    3.2140  -59.5995 C   0  0  0  1  0  0  0  0  0  0  0  0
   26.5801    2.8179  -60.8518 C   0  0  0  1  0  0  0  0  0  0  0  0
   25.8610    2.2633  -58.6328 C   0  0  0  1  0  0  0  0  0  0  0  0
   26.0093    0.9194  -58.9195 C   0  0  0  1  0  0  0  0  0  0  0  0
   22.9867    3.0362  -65.0040 C   0  0  0  1  0  0  0  0  0  0  0  0
   21.6952    3.3588  -65.8053 C   0  0  0  1  0  0  0  0  0  0  0  0
   20.9887    4.5317  -65.0937 C   0  0  0  1  0  0  0  0  0  0  0  0
   21.8724    6.1301  -63.2362 C   0  0  0  1  0  0  0  0  0  0  0  0
   25.8297    1.1707  -66.2748 N   0  0  0  1  0  0  0  0  0  0  0  0
   27.2965    0.4857  -64.5857 C   0  0  0  1  0  0  0  0  0  0  0  0
   26.4936    1.1853  -63.6614 C   0  0  0  1  0  0  0  0  0  0  0  0
   27.0810    1.0063  -62.4395 N   0  0  0  1  0  0  0  0  0  0  0  0
   28.3158   -0.0766  -63.9005 N   0  0  0  1  0  0  0  0  0  0  0  0
   28.2164    0.2092  -62.6490 N   0  0  0  1  0  0  0  0  0  0  0  0
   25.4342    2.6513  -57.4076 O   0  0  0  1  0  0  0  0  0  0  0  0
   24.0170    2.4585  -65.8492 N   0  0  0  1  0  0  0  0  0  0  0  0
   25.1668    4.0496  -57.2182 C   0  0  0  1  0  0  0  0  0  0  0  0
   22.0686    5.0930  -64.2337 N   0  0  0  1  0  0  0  0  0  0  0  0
   23.3611    4.4544  -64.5318 C   0  0  0  1  0  0  0  0  0  0  0  0
   20.6080    6.6219  -62.9700 C   0  0  0  1  0  0  0  0  0  0  0  0
   20.4659    7.6058  -62.0101 C   0  0  0  1  0  0  0  0  0  0  0  0
   21.4923    8.1143  -61.3216 N   0  0  0  1  0  0  0  0  0  0  0  0
   22.7131    7.6315  -61.5930 C   0  0  0  1  0  0  0  0  0  0  0  0
   22.9455    6.6445  -62.5349 C   0  0  0  1  0  0  0  0  0  0  0  0
   27.4789    0.0013  -66.6491 H   0  0  0  1  0  0  0  0  0  0  0  0
   26.5488   -0.4894  -60.3923 H   0  0  0  1  0  0  0  0  0  0  0  0
   26.0418    4.2255  -59.3826 H   0  0  0  1  0  0  0  0  0  0  0  0
   26.7925    3.5310  -61.5783 H   0  0  0  1  0  0  0  0  0  0  0  0
   25.7969    0.2062  -58.1929 H   0  0  0  1  0  0  0  0  0  0  0  0
   22.7912    2.3812  -64.1807 H   0  0  0  1  0  0  0  0  0  0  0  0
   21.0533    2.5029  -65.8236 H   0  0  0  1  0  0  0  0  0  0  0  0
   21.9471    3.6380  -66.8070 H   0  0  0  1  0  0  0  0  0  0  0  0
   20.6411    5.2575  -65.7990 H   0  0  0  1  0  0  0  0  0  0  0  0
   20.1664    4.1853  -64.5031 H   0  0  0  1  0  0  0  0  0  0  0  0
   23.9167    2.5417  -66.8205 H   0  0  0  1  0  0  0  0  0  0  0  0
   24.1971    4.2834  -57.6053 H   0  0  0  1  0  0  0  0  0  0  0  0
   25.9053    4.6267  -57.7344 H   0  0  0  1  0  0  0  0  0  0  0  0
   25.1989    4.2803  -56.1739 H   0  0  0  1  0  0  0  0  0  0  0  0
   23.8772    4.9865  -65.3034 H   0  0  0  1  0  0  0  0  0  0  0  0
   23.9738    4.4125  -63.6556 H   0  0  0  1  0  0  0  0  0  0  0  0
   19.7793    6.2582  -63.4825 H   0  0  0  1  0  0  0  0  0  0  0  0
   19.5115    7.9691  -61.8135 H   0  0  0  1  0  0  0  0  0  0  0  0
   23.5252    8.0174  -61.0702 H   0  0  0  1  0  0  0  0  0  0  0  0
   23.9095    6.2967  -62.7113 H   0  0  0  1  0  0  0  0  0  0  0  0
  1  3  4  0  0  0  0
  1 14  4  0  0  0  0
  1 21  1  0  0  0  0
  2 14  4  0  0  0  0
  2 15  4  0  0  0  0
  2 30  1  0  0  0  0
  3 16  4  0  0  0  0
  4  5  4  0  0  0  0
  4  7  4  0  0  0  0
  4 17  1  0  0  0  0
  5  9  4  0  0  0  0
  5 31  1  0  0  0  0
  6  7  4  0  0  0  0
  6  8  4  0  0  0  0
  6 32  1  0  0  0  0
  7 33  1  0  0  0  0
  8  9  4  0  0  0  0
  8 20  1  0  0  0  0
  9 34  1  0  0  0  0
 10 11  1  0  0  0  0
 10 21  1  0  0  0  0
 10 24  1  0  0  0  0
 10 35  1  0  0  0  0
 11 12  1  0  0  0  0
 11 36  1  0  0  0  0
 11 37  1  0  0  0  0
 12 23  1  0  0  0  0
 12 38  1  0  0  0  0
 12 39  1  0  0  0  0
 13 23  1  0  0  0  0
 13 25  4  0  0  0  0
 13 29  4  0  0  0  0
 15 16  4  0  0  0  0
 15 18  4  0  0  0  0
 16 17  4  0  0  0  0
 17 19  4  0  0  0  0
 18 19  4  0  0  0  0
 20 22  1  0  0  0  0
 21 40  1  0  0  0  0
 22 41  1  0  0  0  0
 22 42  1  0  0  0  0
 22 43  1  0  0  0  0
 23 24  1  0  0  0  0
 24 44  1  0  0  0  0
 24 45  1  0  0  0  0
 25 26  4  0  0  0  0
 25 46  1  0  0  0  0
 26 27  4  0  0  0  0
 26 47  1  0  0  0  0
 27 28  4  0  0  0  0
 28 29  4  0  0  0  0
 28 48  1  0  0  0  0
 29 49  1  0  0  0  0
M  END
> <ConfClashScore>
0 

> <ConfOneFourInteractionScore>
-0.984874 

> <ConfScore>
0.0300294 

> <ConfScorePBest>
0.00340664 

> <ConfTolerance>
0.425818 

> <HETNAM>
     OWQ A 303  OWQ                                                       

> <pdb_OW>
Q_303 -16.5129 3.80749 7.62812 0.15963 1.39178 -0.28144 -3.20151 0 0 0 -1.30514 0 0 0 0 0 0 0 0 -8.31393

$$$$
6yky_lig_1.pdb
 OpenBabel04162415593D

 49 53  0  0  0  0  0  0  0  0999 V2000
   25.1047    1.8135  -65.3760 C   0  0  0  1  0  0  0  0  0  0  0  0
   26.9167    0.5034  -65.9326 C   0  0  0  1  0  0  0  0  0  0  0  0
   25.4179    1.8284  -64.0982 N   0  0  0  1  0  0  0  0  0  0  0  0
   26.6855    1.4949  -61.1608 C   0  0  0  1  0  0  0  0  0  0  0  0
   25.3422    1.7485  -60.9577 C   0  0  0  1  0  0  0  0  0  0  0  0
   27.1807    2.3592  -58.9802 C   0  0  0  1  0  0  0  0  0  0  0  0
   27.6065    1.8031  -60.1717 C   0  0  0  1  0  0  0  0  0  0  0  0
   25.8334    2.6136  -58.7763 C   0  0  0  1  0  0  0  0  0  0  0  0
   24.9152    2.3062  -59.7626 C   0  0  0  1  0  0  0  0  0  0  0  0
   23.0931    3.2072  -65.0152 C   0  0  0  1  0  0  0  0  0  0  0  0
   22.4676    2.3193  -63.9040 C   0  0  0  1  0  0  0  0  0  0  0  0
   21.0843    2.9111  -63.5612 C   0  0  0  1  0  0  0  0  0  0  0  0
   19.7332    4.6513  -64.8240 C   0  0  0  1  0  0  0  0  0  0  0  0
   25.8296    1.1707  -66.2747 N   0  0  0  1  0  0  0  0  0  0  0  0
   27.2964    0.4857  -64.5857 C   0  0  0  1  0  0  0  0  0  0  0  0
   26.4937    1.1851  -63.6613 C   0  0  0  1  0  0  0  0  0  0  0  0
   27.0809    1.0061  -62.4395 N   0  0  0  1  0  0  0  0  0  0  0  0
   28.3159   -0.0766  -63.9005 N   0  0  0  1  0  0  0  0  0  0  0  0
   28.2164    0.2092  -62.6490 N   0  0  0  1  0  0  0  0  0  0  0  0
   25.5366    3.1637  -57.5750 O   0  0  0  1  0  0  0  0  0  0  0  0
   24.0170    2.4584  -65.8493 N   0  0  0  1  0  0  0  0  0  0  0  0
   24.1544    3.4460  -57.3059 C   0  0  0  1  0  0  0  0  0  0  0  0
   20.8011    3.7858  -64.7342 N   0  0  0  1  0  0  0  0  0  0  0  0
   21.8163    3.5999  -65.7837 C   0  0  0  1  0  0  0  0  0  0  0  0
   19.9076    6.0045  -64.6005 C   0  0  0  1  0  0  0  0  0  0  0  0
   18.8351    6.8539  -64.7954 C   0  0  0  1  0  0  0  0  0  0  0  0
   17.6281    6.4354  -65.1882 N   0  0  0  1  0  0  0  0  0  0  0  0
   17.4721    5.1204  -65.3969 C   0  0  0  1  0  0  0  0  0  0  0  0
   18.4923    4.2003  -65.2296 C   0  0  0  1  0  0  0  0  0  0  0  0
   27.4789    0.0013  -66.6492 H   0  0  0  1  0  0  0  0  0  0  0  0
   24.6517    1.5210  -61.7014 H   0  0  0  1  0  0  0  0  0  0  0  0
   27.8711    2.5868  -58.2365 H   0  0  0  1  0  0  0  0  0  0  0  0
   28.6178    1.6160  -60.3262 H   0  0  0  1  0  0  0  0  0  0  0  0
   23.9039    2.4933  -59.6082 H   0  0  0  1  0  0  0  0  0  0  0  0
   23.5916    4.0620  -64.6083 H   0  0  0  1  0  0  0  0  0  0  0  0
   22.3579    1.3153  -64.2573 H   0  0  0  1  0  0  0  0  0  0  0  0
   23.0930    2.3262  -63.0358 H   0  0  0  1  0  0  0  0  0  0  0  0
   20.3478    2.1405  -63.4681 H   0  0  0  1  0  0  0  0  0  0  0  0
   21.1221    3.4803  -62.6560 H   0  0  0  1  0  0  0  0  0  0  0  0
   23.8404    2.4188  -66.8124 H   0  0  0  1  0  0  0  0  0  0  0  0
   23.5936    2.5350  -57.3247 H   0  0  0  1  0  0  0  0  0  0  0  0
   23.7753    4.1134  -58.0515 H   0  0  0  1  0  0  0  0  0  0  0  0
   24.0646    3.9000  -56.3412 H   0  0  0  1  0  0  0  0  0  0  0  0
   21.5258    2.8217  -66.4581 H   0  0  0  1  0  0  0  0  0  0  0  0
   21.9672    4.5077  -66.3296 H   0  0  0  1  0  0  0  0  0  0  0  0
   20.8285    6.3762  -64.2916 H   0  0  0  1  0  0  0  0  0  0  0  0
   18.9743    7.8709  -64.6277 H   0  0  0  1  0  0  0  0  0  0  0  0
   16.5390    4.7748  -65.6994 H   0  0  0  1  0  0  0  0  0  0  0  0
   18.3278    3.1887  -65.4060 H   0  0  0  1  0  0  0  0  0  0  0  0
  1  3  4  0  0  0  0
  1 14  4  0  0  0  0
  1 21  1  0  0  0  0
  2 14  4  0  0  0  0
  2 15  4  0  0  0  0
  2 30  1  0  0  0  0
  3 16  4  0  0  0  0
  4  5  4  0  0  0  0
  4  7  4  0  0  0  0
  4 17  1  0  0  0  0
  5  9  4  0  0  0  0
  5 31  1  0  0  0  0
  6  7  4  0  0  0  0
  6  8  4  0  0  0  0
  6 32  1  0  0  0  0
  7 33  1  0  0  0  0
  8  9  4  0  0  0  0
  8 20  1  0  0  0  0
  9 34  1  0  0  0  0
 10 11  1  0  0  0  0
 10 21  1  0  0  0  0
 10 24  1  0  0  0  0
 10 35  1  0  0  0  0
 11 12  1  0  0  0  0
 11 36  1  0  0  0  0
 11 37  1  0  0  0  0
 12 23  1  0  0  0  0
 12 38  1  0  0  0  0
 12 39  1  0  0  0  0
 13 23  1  0  0  0  0
 13 25  4  0  0  0  0
 13 29  4  0  0  0  0
 15 16  4  0  0  0  0
 15 18  4  0  0  0  0
 16 17  4  0  0  0  0
 17 19  4  0  0  0  0
 18 19  4  0  0  0  0
 20 22  1  0  0  0  0
 21 40  1  0  0  0  0
 22 41  1  0  0  0  0
 22 42  1  0  0  0  0
 22 43  1  0  0  0  0
 23 24  1  0  0  0  0
 24 44  1  0  0  0  0
 24 45  1  0  0  0  0
 25 26  4  0  0  0  0
 25 46  1  0  0  0  0
 26 27  4  0  0  0  0
 26 47  1  0  0  0  0
 27 28  4  0  0  0  0
 28 29  4  0  0  0  0
 28 48  1  0  0  0  0
 29 49  1  0  0  0  0
M  END
> <ConfClashScore>
0 

> <ConfOneFourInteractionScore>
-0.987833 

> <ConfScore>
0.0301436 

> <ConfScorePBest>
0.00339331 

> <ConfTolerance>
0.404526 

> <HETNAM>
     OWQ A 303  OWQ                                                       

> <pdb_OW>
Q_303 -16.5129 3.80749 7.62812 0.15963 1.39178 -0.28144 -3.20151 0 0 0 -1.30514 0 0 0 0 0 0 0 0 -8.31393

$$$$
6yky_lig_1.pdb
 OpenBabel04162415593D

 49 53  0  0  0  0  0  0  0  0999 V2000
   25.1048    1.8135  -65.3761 C   0  0  0  1  0  0  0  0  0  0  0  0
   26.9167    0.5034  -65.9326 C   0  0  0  1  0  0  0  0  0  0  0  0
   25.4178    1.8284  -64.0983 N   0  0  0  1  0  0  0  0  0  0  0  0
   26.7285    1.4700  -61.1391 C   0  0  0  1  0  0  0  0  0  0  0  0
   27.0204    0.7018  -60.0279 C   0  0  0  1  0  0  0  0  0  0  0  0
   25.5917    3.0563  -59.7468 C   0  0  0  1  0  0  0  0  0  0  0  0
   26.0108    2.6476  -60.9988 C   0  0  0  1  0  0  0  0  0  0  0  0
   25.8844    2.2859  -58.6321 C   0  0  0  1  0  0  0  0  0  0  0  0
   26.6000    1.1118  -58.7722 C   0  0  0  1  0  0  0  0  0  0  0  0
   23.1549    3.3393  -64.9600 C   0  0  0  1  0  0  0  0  0  0  0  0
   22.6394    2.5819  -63.7716 C   0  0  0  1  0  0  0  0  0  0  0  0
   21.4419    1.8069  -64.3891 C   0  0  0  1  0  0  0  0  0  0  0  0
   19.7414    2.6108  -66.0227 C   0  0  0  1  0  0  0  0  0  0  0  0
   25.8297    1.1707  -66.2749 N   0  0  0  1  0  0  0  0  0  0  0  0
   27.2965    0.4857  -64.5858 C   0  0  0  1  0  0  0  0  0  0  0  0
   26.4936    1.1852  -63.6614 C   0  0  0  1  0  0  0  0  0  0  0  0
   27.0809    1.0061  -62.4395 N   0  0  0  1  0  0  0  0  0  0  0  0
   28.3158   -0.0766  -63.9004 N   0  0  0  1  0  0  0  0  0  0  0  0
   28.2164    0.2092  -62.6490 N   0  0  0  1  0  0  0  0  0  0  0  0
   25.4417    2.7383  -57.4387 O   0  0  0  1  0  0  0  0  0  0  0  0
   24.0075    2.4762  -65.7839 N   0  0  0  1  0  0  0  0  0  0  0  0
   24.6305    3.9223  -57.3880 C   0  0  0  1  0  0  0  0  0  0  0  0
   20.9905    2.7212  -65.4053 N   0  0  0  1  0  0  0  0  0  0  0  0
   21.9409    3.7669  -65.7350 C   0  0  0  1  0  0  0  0  0  0  0  0
   18.9226    1.5285  -65.7586 C   0  0  0  1  0  0  0  0  0  0  0  0
   17.6562    1.5029  -66.3110 C   0  0  0  1  0  0  0  0  0  0  0  0
   17.1766    2.4732  -67.0951 N   0  0  0  1  0  0  0  0  0  0  0  0
   17.9828    3.5145  -67.3463 C   0  0  0  1  0  0  0  0  0  0  0  0
   19.2630    3.6229  -66.8318 C   0  0  0  1  0  0  0  0  0  0  0  0
   27.4789    0.0013  -66.6492 H   0  0  0  1  0  0  0  0  0  0  0  0
   27.5554   -0.1837  -60.1337 H   0  0  0  1  0  0  0  0  0  0  0  0
   25.0568    3.9419  -59.6410 H   0  0  0  1  0  0  0  0  0  0  0  0
   25.7878    3.2235  -61.8356 H   0  0  0  1  0  0  0  0  0  0  0  0
   26.8231    0.5359  -57.9355 H   0  0  0  1  0  0  0  0  0  0  0  0
   23.7135    4.1947  -64.6421 H   0  0  0  1  0  0  0  0  0  0  0  0
   23.3792    1.9129  -63.3845 H   0  0  0  1  0  0  0  0  0  0  0  0
   22.3168    3.2450  -62.9962 H   0  0  0  1  0  0  0  0  0  0  0  0
   21.7577    0.8772  -64.8144 H   0  0  0  1  0  0  0  0  0  0  0  0
   20.6787    1.6258  -63.6614 H   0  0  0  1  0  0  0  0  0  0  0  0
   23.7527    2.3719  -66.7244 H   0  0  0  1  0  0  0  0  0  0  0  0
   24.6662    4.3379  -56.4027 H   0  0  0  1  0  0  0  0  0  0  0  0
   23.6193    3.6724  -57.6331 H   0  0  0  1  0  0  0  0  0  0  0  0
   25.0015    4.6389  -58.0907 H   0  0  0  1  0  0  0  0  0  0  0  0
   22.1402    3.7943  -66.7859 H   0  0  0  1  0  0  0  0  0  0  0  0
   21.5916    4.7256  -65.4127 H   0  0  0  1  0  0  0  0  0  0  0  0
   19.2536    0.7484  -65.1558 H   0  0  0  1  0  0  0  0  0  0  0  0
   17.0450    0.6868  -66.1061 H   0  0  0  1  0  0  0  0  0  0  0  0
   17.6290    4.2778  -67.9575 H   0  0  0  1  0  0  0  0  0  0  0  0
   19.8535    4.4506  -67.0501 H   0  0  0  1  0  0  0  0  0  0  0  0
  1  3  4  0  0  0  0
  1 14  4  0  0  0  0
  1 21  1  0  0  0  0
  2 14  4  0  0  0  0
  2 15  4  0  0  0  0
  2 30  1  0  0  0  0
  3 16  4  0  0  0  0
  4  5  4  0  0  0  0
  4  7  4  0  0  0  0
  4 17  1  0  0  0  0
  5  9  4  0  0  0  0
  5 31  1  0  0  0  0
  6  7  4  0  0  0  0
  6  8  4  0  0  0  0
  6 32  1  0  0  0  0
  7 33  1  0  0  0  0
  8  9  4  0  0  0  0
  8 20  1  0  0  0  0
  9 34  1  0  0  0  0
 10 11  1  0  0  0  0
 10 21  1  0  0  0  0
 10 24  1  0  0  0  0
 10 35  1  0  0  0  0
 11 12  1  0  0  0  0
 11 36  1  0  0  0  0
 11 37  1  0  0  0  0
 12 23  1  0  0  0  0
 12 38  1  0  0  0  0
 12 39  1  0  0  0  0
 13 23  1  0  0  0  0
 13 25  4  0  0  0  0
 13 29  4  0  0  0  0
 15 16  4  0  0  0  0
 15 18  4  0  0  0  0
 16 17  4  0  0  0  0
 17 19  4  0  0  0  0
 18 19  4  0  0  0  0
 20 22  1  0  0  0  0
 21 40  1  0  0  0  0
 22 41  1  0  0  0  0
 22 42  1  0  0  0  0
 22 43  1  0  0  0  0
 23 24  1  0  0  0  0
 24 44  1  0  0  0  0
 24 45  1  0  0  0  0
 25 26  4  0  0  0  0
 25 46  1  0  0  0  0
 26 27  4  0  0  0  0
 26 47  1  0  0  0  0
 27 28  4  0  0  0  0
 28 29  4  0  0  0  0
 28 48  1  0  0  0  0
 29 49  1  0  0  0  0
M  END
> <ConfClashScore>
0 

> <ConfOneFourInteractionScore>
-0.987833 

> <ConfScore>
0.031413 

> <ConfScorePBest>
0.00337998 

> <ConfTolerance>
0.722666 

> <HETNAM>
     OWQ A 303  OWQ                                                       

> <pdb_OW>
Q_303 -16.5129 3.80749 7.62812 0.15963 1.39178 -0.28144 -3.20151 0 0 0 -1.30514 0 0 0 0 0 0 0 0 -8.31393

$$$$
6yky_lig_1.pdb
 OpenBabel04162415593D

 49 53  0  0  0  0  0  0  0  0999 V2000
   25.1049    1.8137  -65.3760 C   0  0  0  1  0  0  0  0  0  0  0  0
   26.9167    0.5034  -65.9326 C   0  0  0  1  0  0  0  0  0  0  0  0
   25.4180    1.8285  -64.0983 N   0  0  0  1  0  0  0  0  0  0  0  0
   26.7287    1.4701  -61.1391 C   0  0  0  1  0  0  0  0  0  0  0  0
   27.6538    2.1556  -60.3747 C   0  0  0  1  0  0  0  0  0  0  0  0
   25.1762    1.5249  -59.3132 C   0  0  0  1  0  0  0  0  0  0  0  0
   25.4890    1.1518  -60.6067 C   0  0  0  1  0  0  0  0  0  0  0  0
   26.1040    2.2126  -58.5464 C   0  0  0  1  0  0  0  0  0  0  0  0
   27.3400    2.5297  -59.0775 C   0  0  0  1  0  0  0  0  0  0  0  0
   23.0972    3.1813  -64.8853 C   0  0  0  1  0  0  0  0  0  0  0  0
   22.0722    3.9465  -65.6700 C   0  0  0  1  0  0  0  0  0  0  0  0
   22.8621    5.2302  -66.0492 C   0  0  0  1  0  0  0  0  0  0  0  0
   24.4179    6.5655  -64.6459 C   0  0  0  1  0  0  0  0  0  0  0  0
   25.8297    1.1708  -66.2748 N   0  0  0  1  0  0  0  0  0  0  0  0
   27.2965    0.4857  -64.5857 C   0  0  0  1  0  0  0  0  0  0  0  0
   26.4937    1.1853  -63.6614 C   0  0  0  1  0  0  0  0  0  0  0  0
   27.0810    1.0062  -62.4395 N   0  0  0  1  0  0  0  0  0  0  0  0
   28.3158   -0.0766  -63.9004 N   0  0  0  1  0  0  0  0  0  0  0  0
   28.2164    0.2092  -62.6490 N   0  0  0  1  0  0  0  0  0  0  0  0
   25.7372    2.5440  -57.2857 O   0  0  0  1  0  0  0  0  0  0  0  0
   24.0036    2.4789  -65.7853 N   0  0  0  1  0  0  0  0  0  0  0  0
   24.5685    1.9023  -56.7522 C   0  0  0  1  0  0  0  0  0  0  0  0
   23.7371    5.3845  -64.9165 N   0  0  0  1  0  0  0  0  0  0  0  0
   23.8486    4.2035  -64.0807 C   0  0  0  1  0  0  0  0  0  0  0  0
   24.2607    7.6719  -65.4601 C   0  0  0  1  0  0  0  0  0  0  0  0
   24.9535    8.8273  -65.1524 C   0  0  0  1  0  0  0  0  0  0  0  0
   25.7762    8.9339  -64.1045 N   0  0  0  1  0  0  0  0  0  0  0  0
   25.9225    7.8522  -63.3262 C   0  0  0  1  0  0  0  0  0  0  0  0
   25.2647    6.6570  -63.5586 C   0  0  0  1  0  0  0  0  0  0  0  0
   27.4789    0.0013  -66.6491 H   0  0  0  1  0  0  0  0  0  0  0  0
   28.5855    2.3907  -60.7729 H   0  0  0  1  0  0  0  0  0  0  0  0
   24.2446    1.2898  -58.9151 H   0  0  0  1  0  0  0  0  0  0  0  0
   24.7943    0.6324  -61.1806 H   0  0  0  1  0  0  0  0  0  0  0  0
   28.0347    3.0491  -58.5037 H   0  0  0  1  0  0  0  0  0  0  0  0
   22.6195    2.4762  -64.2377 H   0  0  0  1  0  0  0  0  0  0  0  0
   21.2157    4.1778  -65.0718 H   0  0  0  1  0  0  0  0  0  0  0  0
   21.7644    3.4063  -66.5408 H   0  0  0  1  0  0  0  0  0  0  0  0
   23.4170    5.0929  -66.9538 H   0  0  0  1  0  0  0  0  0  0  0  0
   22.2098    6.0717  -66.1546 H   0  0  0  1  0  0  0  0  0  0  0  0
   23.8016    2.4902  -66.7442 H   0  0  0  1  0  0  0  0  0  0  0  0
   23.7119    2.1842  -57.3280 H   0  0  0  1  0  0  0  0  0  0  0  0
   24.4292    2.2040  -55.7350 H   0  0  0  1  0  0  0  0  0  0  0  0
   24.6936    0.8405  -56.7957 H   0  0  0  1  0  0  0  0  0  0  0  0
   24.8708    3.9176  -63.9459 H   0  0  0  1  0  0  0  0  0  0  0  0
   23.3922    4.3586  -63.1254 H   0  0  0  1  0  0  0  0  0  0  0  0
   23.6328    7.6353  -66.2883 H   0  0  0  1  0  0  0  0  0  0  0  0
   24.8285    9.6564  -65.7677 H   0  0  0  1  0  0  0  0  0  0  0  0
   26.5614    7.9142  -62.5079 H   0  0  0  1  0  0  0  0  0  0  0  0
   25.4055    5.8430  -62.9267 H   0  0  0  1  0  0  0  0  0  0  0  0
  1  3  4  0  0  0  0
  1 14  4  0  0  0  0
  1 21  1  0  0  0  0
  2 14  4  0  0  0  0
  2 15  4  0  0  0  0
  2 30  1  0  0  0  0
  3 16  4  0  0  0  0
  4  5  4  0  0  0  0
  4  7  4  0  0  0  0
  4 17  1  0  0  0  0
  5  9  4  0  0  0  0
  5 31  1  0  0  0  0
  6  7  4  0  0  0  0
  6  8  4  0  0  0  0
  6 32  1  0  0  0  0
  7 33  1  0  0  0  0
  8  9  4  0  0  0  0
  8 20  1  0  0  0  0
  9 34  1  0  0  0  0
 10 11  1  0  0  0  0
 10 21  1  0  0  0  0
 10 24  1  0  0  0  0
 10 35  1  0  0  0  0
 11 12  1  0  0  0  0
 11 36  1  0  0  0  0
 11 37  1  0  0  0  0
 12 23  1  0  0  0  0
 12 38  1  0  0  0  0
 12 39  1  0  0  0  0
 13 23  1  0  0  0  0
 13 25  4  0  0  0  0
 13 29  4  0  0  0  0
 15 16  4  0  0  0  0
 15 18  4  0  0  0  0
 16 17  4  0  0  0  0
 17 19  4  0  0  0  0
 18 19  4  0  0  0  0
 20 22  1  0  0  0  0
 21 40  1  0  0  0  0
 22 41  1  0  0  0  0
 22 42  1  0  0  0  0
 22 43  1  0  0  0  0
 23 24  1  0  0  0  0
 24 44  1  0  0  0  0
 24 45  1  0  0  0  0
 25 26  4  0  0  0  0
 25 46  1  0  0  0  0
 26 27  4  0  0  0  0
 26 47  1  0  0  0  0
 27 28  4  0  0  0  0
 28 29  4  0  0  0  0
 28 48  1  0  0  0  0
 29 49  1  0  0  0  0
M  END
> <ConfClashScore>
0 

> <ConfOneFourInteractionScore>
-0.987833 

> <ConfScore>
0.031464 

> <ConfScorePBest>
0.00336665 

> <ConfTolerance>
0.587435 

> <HETNAM>
     OWQ A 303  OWQ                                                       

> <pdb_OW>
Q_303 -16.5129 3.80749 7.62812 0.15963 1.39178 -0.28144 -3.20151 0 0 0 -1.30514 0 0 0 0 0 0 0 0 -8.31393

$$$$
6yky_lig_1.pdb
 OpenBabel04162415593D

 49 53  0  0  0  0  0  0  0  0999 V2000
   25.1048    1.8136  -65.3760 C   0  0  0  1  0  0  0  0  0  0  0  0
   26.9167    0.5034  -65.9326 C   0  0  0  1  0  0  0  0  0  0  0  0
   25.4179    1.8285  -64.0982 N   0  0  0  1  0  0  0  0  0  0  0  0
   26.7287    1.4701  -61.1390 C   0  0  0  1  0  0  0  0  0  0  0  0
   26.5100    2.8172  -60.9207 C   0  0  0  1  0  0  0  0  0  0  0  0
   26.4411    1.0415  -58.7980 C   0  0  0  1  0  0  0  0  0  0  0  0
   26.6969    0.5812  -60.0758 C   0  0  0  1  0  0  0  0  0  0  0  0
   26.2217    2.3925  -58.5787 C   0  0  0  1  0  0  0  0  0  0  0  0
   26.2535    3.2786  -59.6389 C   0  0  0  1  0  0  0  0  0  0  0  0
   23.0690    3.1210  -64.8818 C   0  0  0  1  0  0  0  0  0  0  0  0
   22.1620    4.1157  -65.6397 C   0  0  0  1  0  0  0  0  0  0  0  0
   22.0101    5.3414  -64.7746 C   0  0  0  1  0  0  0  0  0  0  0  0
   23.4733    6.0695  -62.7840 C   0  0  0  1  0  0  0  0  0  0  0  0
   25.8296    1.1707  -66.2748 N   0  0  0  1  0  0  0  0  0  0  0  0
   27.2965    0.4857  -64.5856 C   0  0  0  1  0  0  0  0  0  0  0  0
   26.4937    1.1852  -63.6614 C   0  0  0  1  0  0  0  0  0  0  0  0
   27.0810    1.0063  -62.4395 N   0  0  0  1  0  0  0  0  0  0  0  0
   28.3158   -0.0766  -63.9004 N   0  0  0  1  0  0  0  0  0  0  0  0
   28.2164    0.2092  -62.6490 N   0  0  0  1  0  0  0  0  0  0  0  0
   25.9872    2.7255  -57.2872 O   0  0  0  1  0  0  0  0  0  0  0  0
   24.0076    2.4764  -65.7837 N   0  0  0  1  0  0  0  0  0  0  0  0
   25.7483    4.1123  -57.0002 C   0  0  0  1  0  0  0  0  0  0  0  0
   23.1538    5.1345  -63.7577 N   0  0  0  1  0  0  0  0  0  0  0  0
   23.7890    4.0145  -63.8911 C   0  0  0  1  0  0  0  0  0  0  0  0
   22.7698    7.2597  -62.7634 C   0  0  0  1  0  0  0  0  0  0  0  0
   23.0770    8.1967  -61.7953 C   0  0  0  1  0  0  0  0  0  0  0  0
   24.0265    8.0155  -60.8723 N   0  0  0  1  0  0  0  0  0  0  0  0
   24.7036    6.8590  -60.9066 C   0  0  0  1  0  0  0  0  0  0  0  0
   24.4588    5.8651  -61.8381 C   0  0  0  1  0  0  0  0  0  0  0  0
   27.4788    0.0012  -66.6491 H   0  0  0  1  0  0  0  0  0  0  0  0
   26.5379    3.4846  -61.7177 H   0  0  0  1  0  0  0  0  0  0  0  0
   26.4133    0.3740  -58.0008 H   0  0  0  1  0  0  0  0  0  0  0  0
   26.8654   -0.4319  -60.2398 H   0  0  0  1  0  0  0  0  0  0  0  0
   26.0849    4.2917  -59.4751 H   0  0  0  1  0  0  0  0  0  0  0  0
   22.4886    2.3763  -64.3784 H   0  0  0  1  0  0  0  0  0  0  0  0
   22.6118    4.3814  -66.5735 H   0  0  0  1  0  0  0  0  0  0  0  0
   21.2040    3.6736  -65.8177 H   0  0  0  1  0  0  0  0  0  0  0  0
   21.0555    5.3645  -64.2916 H   0  0  0  1  0  0  0  0  0  0  0  0
   22.1460    6.2396  -65.3400 H   0  0  0  1  0  0  0  0  0  0  0  0
   23.8310    2.5273  -66.7464 H   0  0  0  1  0  0  0  0  0  0  0  0
   25.6161    4.2413  -55.9463 H   0  0  0  1  0  0  0  0  0  0  0  0
   24.8660    4.4354  -57.5122 H   0  0  0  1  0  0  0  0  0  0  0  0
   26.5847    4.6934  -57.3283 H   0  0  0  1  0  0  0  0  0  0  0  0
   23.8401    3.5218  -62.9427 H   0  0  0  1  0  0  0  0  0  0  0  0
   24.7795    4.2097  -64.2458 H   0  0  0  1  0  0  0  0  0  0  0  0
   22.0235    7.4462  -63.4633 H   0  0  0  1  0  0  0  0  0  0  0  0
   22.5421    9.0885  -61.7844 H   0  0  0  1  0  0  0  0  0  0  0  0
   25.4491    6.7009  -60.1989 H   0  0  0  1  0  0  0  0  0  0  0  0
   25.0066    4.9811  -61.8262 H   0  0  0  1  0  0  0  0  0  0  0  0
  1  3  4  0  0  0  0
  1 14  4  0  0  0  0
  1 21  1  0  0  0  0
  2 14  4  0  0  0  0
  2 15  4  0  0  0  0
  2 30  1  0  0  0  0
  3 16  4  0  0  0  0
  4  5  4  0  0  0  0
  4  7  4  0  0  0  0
  4 17  1  0  0  0  0
  5  9  4  0  0  0  0
  5 31  1  0  0  0  0
  6  7  4  0  0  0  0
  6  8  4  0  0  0  0
  6 32  1  0  0  0  0
  7 33  1  0  0  0  0
  8  9  4  0  0  0  0
  8 20  1  0  0  0  0
  9 34  1  0  0  0  0
 10 11  1  0  0  0  0
 10 21  1  0  0  0  0
 10 24  1  0  0  0  0
 10 35  1  0  0  0  0
 11 12  1  0  0  0  0
 11 36  1  0  0  0  0
 11 37  1  0  0  0  0
 12 23  1  0  0  0  0
 12 38  1  0  0  0  0
 12 39  1  0  0  0  0
 13 23  1  0  0  0  0
 13 25  4  0  0  0  0
 13 29  4  0  0  0  0
 15 16  4  0  0  0  0
 15 18  4  0  0  0  0
 16 17  4  0  0  0  0
 17 19  4  0  0  0  0
 18 19  4  0  0  0  0
 20 22  1  0  0  0  0
 21 40  1  0  0  0  0
 22 41  1  0  0  0  0
 22 42  1  0  0  0  0
 22 43  1  0  0  0  0
 23 24  1  0  0  0  0
 24 44  1  0  0  0  0
 24 45  1  0  0  0  0
 25 26  4  0  0  0  0
 25 46  1  0  0  0  0
 26 27  4  0  0  0  0
 26 47  1  0  0  0  0
 27 28  4  0  0  0  0
 28 29  4  0  0  0  0
 28 48  1  0  0  0  0
 29 49  1  0  0  0  0
M  END
> <ConfClashScore>
0 

> <ConfOneFourInteractionScore>
-0.987833 

> <ConfScore>
0.0315068 

> <ConfScorePBest>
0.00335333 

> <ConfTolerance>
0.467198 

> <HETNAM>
     OWQ A 303  OWQ                                                       

> <pdb_OW>
Q_303 -16.5129 3.80749 7.62812 0.15963 1.39178 -0.28144 -3.20151 0 0 0 -1.30514 0 0 0 0 0 0 0 0 -8.31393

$$$$
6yky_lig_1.pdb
 OpenBabel04162415593D

 49 53  0  0  0  0  0  0  0  0999 V2000
   25.1048    1.8136  -65.3760 C   0  0  0  1  0  0  0  0  0  0  0  0
   26.9167    0.5034  -65.9326 C   0  0  0  1  0  0  0  0  0  0  0  0
   25.4179    1.8284  -64.0983 N   0  0  0  1  0  0  0  0  0  0  0  0
   26.6877    1.3785  -61.1215 C   0  0  0  1  0  0  0  0  0  0  0  0
   26.7233    0.4046  -60.1416 C   0  0  0  1  0  0  0  0  0  0  0  0
   25.7404    2.9248  -59.5535 C   0  0  0  1  0  0  0  0  0  0  0  0
   26.1930    2.6397  -60.8279 C   0  0  0  1  0  0  0  0  0  0  0  0
   25.7761    1.9481  -58.5704 C   0  0  0  1  0  0  0  0  0  0  0  0
   26.2694    0.6907  -58.8635 C   0  0  0  1  0  0  0  0  0  0  0  0
   23.1493    3.1952  -64.9000 C   0  0  0  1  0  0  0  0  0  0  0  0
   21.9913    2.3158  -64.4023 C   0  0  0  1  0  0  0  0  0  0  0  0
   20.9728    3.3713  -63.9449 C   0  0  0  1  0  0  0  0  0  0  0  0
   21.1849    5.9593  -63.9730 C   0  0  0  1  0  0  0  0  0  0  0  0
   25.8297    1.1707  -66.2748 N   0  0  0  1  0  0  0  0  0  0  0  0
   27.2965    0.4857  -64.5857 C   0  0  0  1  0  0  0  0  0  0  0  0
   26.4936    1.1852  -63.6614 C   0  0  0  1  0  0  0  0  0  0  0  0
   27.0810    1.0061  -62.4395 N   0  0  0  1  0  0  0  0  0  0  0  0
   28.3159   -0.0766  -63.9004 N   0  0  0  1  0  0  0  0  0  0  0  0
   28.2164    0.2092  -62.6490 N   0  0  0  1  0  0  0  0  0  0  0  0
   25.3572    2.1082  -57.2926 O   0  0  0  1  0  0  0  0  0  0  0  0
   23.9906    2.4741  -65.8608 N   0  0  0  1  0  0  0  0  0  0  0  0
   25.0538    3.4449  -56.8641 C   0  0  0  1  0  0  0  0  0  0  0  0
   21.4987    4.6726  -64.4558 N   0  0  0  1  0  0  0  0  0  0  0  0
   22.4116    4.3431  -65.5661 C   0  0  0  1  0  0  0  0  0  0  0  0
   20.1978    6.1333  -63.0207 C   0  0  0  1  0  0  0  0  0  0  0  0
   19.9250    7.4116  -62.5721 C   0  0  0  1  0  0  0  0  0  0  0  0
   20.5661    8.4979  -63.0139 N   0  0  0  1  0  0  0  0  0  0  0  0
   21.5179    8.3150  -63.9403 C   0  0  0  1  0  0  0  0  0  0  0  0
   21.8576    7.0707  -64.4419 C   0  0  0  1  0  0  0  0  0  0  0  0
   27.4789    0.0013  -66.6492 H   0  0  0  1  0  0  0  0  0  0  0  0
   27.0908   -0.5428  -60.3630 H   0  0  0  1  0  0  0  0  0  0  0  0
   25.3729    3.8722  -59.3321 H   0  0  0  1  0  0  0  0  0  0  0  0
   26.1624    3.3713  -61.5665 H   0  0  0  1  0  0  0  0  0  0  0  0
   26.3000   -0.0410  -58.1250 H   0  0  0  1  0  0  0  0  0  0  0  0
   23.7522    3.5408  -64.0864 H   0  0  0  1  0  0  0  0  0  0  0  0
   22.2975    1.6914  -63.5891 H   0  0  0  1  0  0  0  0  0  0  0  0
   21.5964    1.7085  -65.1898 H   0  0  0  1  0  0  0  0  0  0  0  0
   20.9041    3.3880  -62.8772 H   0  0  0  1  0  0  0  0  0  0  0  0
   20.0086    3.1671  -64.3617 H   0  0  0  1  0  0  0  0  0  0  0  0
   23.7702    2.4608  -66.8157 H   0  0  0  1  0  0  0  0  0  0  0  0
   24.6319    3.4178  -55.8812 H   0  0  0  1  0  0  0  0  0  0  0  0
   24.3521    3.8855  -57.5412 H   0  0  0  1  0  0  0  0  0  0  0  0
   25.9513    4.0273  -56.8508 H   0  0  0  1  0  0  0  0  0  0  0  0
   23.0631    5.1562  -65.8097 H   0  0  0  1  0  0  0  0  0  0  0  0
   21.8856    4.0315  -66.4441 H   0  0  0  1  0  0  0  0  0  0  0  0
   19.6704    5.3176  -62.6492 H   0  0  0  1  0  0  0  0  0  0  0  0
   19.1828    7.5346  -61.8541 H   0  0  0  1  0  0  0  0  0  0  0  0
   22.0254    9.1486  -64.2993 H   0  0  0  1  0  0  0  0  0  0  0  0
   22.6054    6.9744  -65.1583 H   0  0  0  1  0  0  0  0  0  0  0  0
  1  3  4  0  0  0  0
  1 14  4  0  0  0  0
  1 21  1  0  0  0  0
  2 14  4  0  0  0  0
  2 15  4  0  0  0  0
  2 30  1  0  0  0  0
  3 16  4  0  0  0  0
  4  5  4  0  0  0  0
  4  7  4  0  0  0  0
  4 17  1  0  0  0  0
  5  9  4  0  0  0  0
  5 31  1  0  0  0  0
  6  7  4  0  0  0  0
  6  8  4  0  0  0  0
  6 32  1  0  0  0  0
  7 33  1  0  0  0  0
  8  9  4  0  0  0  0
  8 20  1  0  0  0  0
  9 34  1  0  0  0  0
 10 11  1  0  0  0  0
 10 21  1  0  0  0  0
 10 24  1  0  0  0  0
 10 35  1  0  0  0  0
 11 12  1  0  0  0  0
 11 36  1  0  0  0  0
 11 37  1  0  0  0  0
 12 23  1  0  0  0  0
 12 38  1  0  0  0  0
 12 39  1  0  0  0  0
 13 23  1  0  0  0  0
 13 25  4  0  0  0  0
 13 29  4  0  0  0  0
 15 16  4  0  0  0  0
 15 18  4  0  0  0  0
 16 17  4  0  0  0  0
 17 19  4  0  0  0  0
 18 19  4  0  0  0  0
 20 22  1  0  0  0  0
 21 40  1  0  0  0  0
 22 41  1  0  0  0  0
 22 42  1  0  0  0  0
 22 43  1  0  0  0  0
 23 24  1  0  0  0  0
 24 44  1  0  0  0  0
 24 45  1  0  0  0  0
 25 26  4  0  0  0  0
 25 46  1  0  0  0  0
 26 27  4  0  0  0  0
 26 47  1  0  0  0  0
 27 28  4  0  0  0  0
 28 29  4  0  0  0  0
 28 48  1  0  0  0  0
 29 49  1  0  0  0  0
M  END
> <ConfClashScore>
0 

> <ConfOneFourInteractionScore>
-0.986948 

> <ConfScore>
0.0332411 

> <ConfScorePBest>
0.00334 

> <ConfTolerance>
0.406162 

> <HETNAM>
     OWQ A 303  OWQ                                                       

> <pdb_OW>
Q_303 -16.5129 3.80749 7.62812 0.15963 1.39178 -0.28144 -3.20151 0 0 0 -1.30514 0 0 0 0 0 0 0 0 -8.31393

$$$$
6yky_lig_1.pdb
 OpenBabel04162415593D

 49 53  0  0  0  0  0  0  0  0999 V2000
   25.1047    1.8133  -65.3759 C   0  0  0  1  0  0  0  0  0  0  0  0
   26.9167    0.5034  -65.9326 C   0  0  0  1  0  0  0  0  0  0  0  0
   25.4177    1.8281  -64.0981 N   0  0  0  1  0  0  0  0  0  0  0  0
   26.7668    1.4470  -61.1214 C   0  0  0  1  0  0  0  0  0  0  0  0
   27.3976    2.5862  -60.6582 C   0  0  0  1  0  0  0  0  0  0  0  0
   25.7321    1.1464  -58.9798 C   0  0  0  1  0  0  0  0  0  0  0  0
   25.9350    0.7245  -60.2803 C   0  0  0  1  0  0  0  0  0  0  0  0
   26.3647    2.2890  -58.5151 C   0  0  0  1  0  0  0  0  0  0  0  0
   27.1941    3.0092  -59.3540 C   0  0  0  1  0  0  0  0  0  0  0  0
   23.5657    2.5551  -67.1511 C   0  0  0  1  0  0  0  0  0  0  0  0
   22.1015    3.0258  -67.2963 C   0  0  0  1  0  0  0  0  0  0  0  0
   21.4571    2.1817  -68.3667 C   0  0  0  1  0  0  0  0  0  0  0  0
   22.2664   -0.0813  -69.3174 C   0  0  0  1  0  0  0  0  0  0  0  0
   25.8296    1.1706  -66.2747 N   0  0  0  1  0  0  0  0  0  0  0  0
   27.2965    0.4857  -64.5856 C   0  0  0  1  0  0  0  0  0  0  0  0
   26.4935    1.1851  -63.6613 C   0  0  0  1  0  0  0  0  0  0  0  0
   27.0809    1.0060  -62.4395 N   0  0  0  1  0  0  0  0  0  0  0  0
   28.3159   -0.0766  -63.9004 N   0  0  0  1  0  0  0  0  0  0  0  0
   28.2164    0.2092  -62.6490 N   0  0  0  1  0  0  0  0  0  0  0  0
   26.1281    2.6450  -57.2302 O   0  0  0  1  0  0  0  0  0  0  0  0
   23.9680    2.5090  -65.7451 N   0  0  0  1  0  0  0  0  0  0  0  0
   26.6830    3.8914  -56.7817 C   0  0  0  1  0  0  0  0  0  0  0  0
   22.4725    1.0242  -68.4877 N   0  0  0  1  0  0  0  0  0  0  0  0
   23.5305    1.1651  -67.7552 C   0  0  0  1  0  0  0  0  0  0  0  0
   21.7602   -1.2619  -68.8060 C   0  0  0  1  0  0  0  0  0  0  0  0
   21.5684   -2.3291  -69.6625 C   0  0  0  1  0  0  0  0  0  0  0  0
   21.8505   -2.2835  -70.9682 N   0  0  0  1  0  0  0  0  0  0  0  0
   22.3448   -1.1341  -71.4497 C   0  0  0  1  0  0  0  0  0  0  0  0
   22.5646   -0.0159  -70.6645 C   0  0  0  1  0  0  0  0  0  0  0  0
   27.4789    0.0014  -66.6492 H   0  0  0  1  0  0  0  0  0  0  0  0
   28.0248    3.1259  -61.2881 H   0  0  0  1  0  0  0  0  0  0  0  0
   25.1048    0.6067  -58.3499 H   0  0  0  1  0  0  0  0  0  0  0  0
   25.4635   -0.1350  -60.6277 H   0  0  0  1  0  0  0  0  0  0  0  0
   27.6655    3.8687  -59.0066 H   0  0  0  1  0  0  0  0  0  0  0  0
   24.2317    3.1941  -67.6924 H   0  0  0  1  0  0  0  0  0  0  0  0
   21.5832    2.8976  -66.3690 H   0  0  0  1  0  0  0  0  0  0  0  0
   22.0760    4.0572  -67.5800 H   0  0  0  1  0  0  0  0  0  0  0  0
   21.3643    2.7194  -69.2871 H   0  0  0  1  0  0  0  0  0  0  0  0
   20.4945    1.8283  -68.0608 H   0  0  0  1  0  0  0  0  0  0  0  0
   23.4328    2.9704  -65.0662 H   0  0  0  1  0  0  0  0  0  0  0  0
   26.4021    4.0618  -55.7635 H   0  0  0  1  0  0  0  0  0  0  0  0
   26.3108    4.6875  -57.3922 H   0  0  0  1  0  0  0  0  0  0  0  0
   27.7499    3.8536  -56.8556 H   0  0  0  1  0  0  0  0  0  0  0  0
   23.5163    0.4384  -66.9700 H   0  0  0  1  0  0  0  0  0  0  0  0
   24.4012    1.0202  -68.3602 H   0  0  0  1  0  0  0  0  0  0  0  0
   21.5281   -1.3450  -67.7956 H   0  0  0  1  0  0  0  0  0  0  0  0
   21.1849   -3.2131  -69.2712 H   0  0  0  1  0  0  0  0  0  0  0  0
   22.5742   -1.0802  -72.4627 H   0  0  0  1  0  0  0  0  0  0  0  0
   22.9471    0.8571  -71.0808 H   0  0  0  1  0  0  0  0  0  0  0  0
  1  3  4  0  0  0  0
  1 14  4  0  0  0  0
  1 21  1  0  0  0  0
  2 14  4  0  0  0  0
  2 15  4  0  0  0  0
  2 30  1  0  0  0  0
  3 16  4  0  0  0  0
  4  5  4  0  0  0  0
  4  7  4  0  0  0  0
  4 17  1  0  0  0  0
  5  9  4  0  0  0  0
  5 31  1  0  0  0  0
  6  7  4  0  0  0  0
  6  8  4  0  0  0  0
  6 32  1  0  0  0  0
  7 33  1  0  0  0  0
  8  9  4  0  0  0  0
  8 20  1  0  0  0  0
  9 34  1  0  0  0  0
 10 11  1  0  0  0  0
 10 21  1  0  0  0  0
 10 24  1  0  0  0  0
 10 35  1  0  0  0  0
 11 12  1  0  0  0  0
 11 36  1  0  0  0  0
 11 37  1  0  0  0  0
 12 23  1  0  0  0  0
 12 38  1  0  0  0  0
 12 39  1  0  0  0  0
 13 23  1  0  0  0  0
 13 25  4  0  0  0  0
 13 29  4  0  0  0  0
 15 16  4  0  0  0  0
 15 18  4  0  0  0  0
 16 17  4  0  0  0  0
 17 19  4  0  0  0  0
 18 19  4  0  0  0  0
 20 22  1  0  0  0  0
 21 40  1  0  0  0  0
 22 41  1  0  0  0  0
 22 42  1  0  0  0  0
 22 43  1  0  0  0  0
 23 24  1  0  0  0  0
 24 44  1  0  0  0  0
 24 45  1  0  0  0  0
 25 26  4  0  0  0  0
 25 46  1  0  0  0  0
 26 27  4  0  0  0  0
 26 47  1  0  0  0  0
 27 28  4  0  0  0  0
 28 29  4  0  0  0  0
 28 48  1  0  0  0  0
 29 49  1  0  0  0  0
M  END
> <ConfClashScore>
0 

> <ConfOneFourInteractionScore>
-0.99264 

> <ConfScore>
0.0333337 

> <ConfScorePBest>
0.00332667 

> <ConfTolerance>
0.527265 

> <HETNAM>
     OWQ A 303  OWQ                                                       

> <pdb_OW>
Q_303 -16.5129 3.80749 7.62812 0.15963 1.39178 -0.28144 -3.20151 0 0 0 -1.30514 0 0 0 0 0 0 0 0 -8.31393

$$$$
6yky_lig_1.pdb
 OpenBabel04162415593D

 49 53  0  0  0  0  0  0  0  0999 V2000
   25.1048    1.8136  -65.3761 C   0  0  0  1  0  0  0  0  0  0  0  0
   26.9167    0.5034  -65.9326 C   0  0  0  1  0  0  0  0  0  0  0  0
   25.4178    1.8284  -64.0983 N   0  0  0  1  0  0  0  0  0  0  0  0
   26.7669    1.4474  -61.1215 C   0  0  0  1  0  0  0  0  0  0  0  0
   26.5129    2.7845  -60.8816 C   0  0  0  1  0  0  0  0  0  0  0  0
   26.5895    0.9902  -58.7749 C   0  0  0  1  0  0  0  0  0  0  0  0
   26.8079    0.5493  -60.0665 C   0  0  0  1  0  0  0  0  0  0  0  0
   26.3348    2.3314  -58.5340 C   0  0  0  1  0  0  0  0  0  0  0  0
   26.2939    3.2267  -59.5862 C   0  0  0  1  0  0  0  0  0  0  0  0
   23.1047    3.1854  -64.8894 C   0  0  0  1  0  0  0  0  0  0  0  0
   22.0811    3.9516  -65.6749 C   0  0  0  1  0  0  0  0  0  0  0  0
   22.8752    5.2309  -66.0604 C   0  0  0  1  0  0  0  0  0  0  0  0
   24.4347    6.5588  -64.6663 C   0  0  0  1  0  0  0  0  0  0  0  0
   25.8297    1.1708  -66.2748 N   0  0  0  1  0  0  0  0  0  0  0  0
   27.2965    0.4858  -64.5857 C   0  0  0  1  0  0  0  0  0  0  0  0
   26.4936    1.1852  -63.6614 C   0  0  0  1  0  0  0  0  0  0  0  0
   27.0810    1.0062  -62.4395 N   0  0  0  1  0  0  0  0  0  0  0  0
   28.3159   -0.0766  -63.9005 N   0  0  0  1  0  0  0  0  0  0  0  0
   28.2164    0.2093  -62.6490 N   0  0  0  1  0  0  0  0  0  0  0  0
   26.1115    2.8790  -57.3158 O   0  0  0  1  0  0  0  0  0  0  0  0
   24.0035    2.4788  -65.7854 N   0  0  0  1  0  0  0  0  0  0  0  0
   26.2474    2.0180  -56.1744 C   0  0  0  1  0  0  0  0  0  0  0  0
   23.7527    5.3860  -64.9297 N   0  0  0  1  0  0  0  0  0  0  0  0
   23.8613    4.2077  -64.0899 C   0  0  0  1  0  0  0  0  0  0  0  0
   25.3733    6.5564  -63.6512 C   0  0  0  1  0  0  0  0  0  0  0  0
   26.0640    7.7226  -63.3818 C   0  0  0  1  0  0  0  0  0  0  0  0
   25.8708    8.8626  -64.0520 N   0  0  0  1  0  0  0  0  0  0  0  0
   24.9546    8.8519  -65.0308 C   0  0  0  1  0  0  0  0  0  0  0  0
   24.2208    7.7284  -65.3694 C   0  0  0  1  0  0  0  0  0  0  0  0
   27.4790    0.0013  -66.6492 H   0  0  0  1  0  0  0  0  0  0  0  0
   26.4862    3.4589  -61.6728 H   0  0  0  1  0  0  0  0  0  0  0  0
   26.6163    0.3158  -57.9836 H   0  0  0  1  0  0  0  0  0  0  0  0
   27.0030   -0.4563  -60.2466 H   0  0  0  1  0  0  0  0  0  0  0  0
   26.0988    4.2322  -59.4061 H   0  0  0  1  0  0  0  0  0  0  0  0
   22.6254    2.4844  -64.2384 H   0  0  0  1  0  0  0  0  0  0  0  0
   21.2266    4.1883  -65.0760 H   0  0  0  1  0  0  0  0  0  0  0  0
   21.7695    3.4093  -66.5431 H   0  0  0  1  0  0  0  0  0  0  0  0
   22.2258    6.0745  -66.1677 H   0  0  0  1  0  0  0  0  0  0  0  0
   23.4278    5.0882  -66.9655 H   0  0  0  1  0  0  0  0  0  0  0  0
   23.7984    2.4853  -66.7437 H   0  0  0  1  0  0  0  0  0  0  0  0
   27.2758    1.7506  -56.0493 H   0  0  0  1  0  0  0  0  0  0  0  0
   25.6647    1.1332  -56.3239 H   0  0  0  1  0  0  0  0  0  0  0  0
   25.9031    2.5289  -55.2996 H   0  0  0  1  0  0  0  0  0  0  0  0
   24.8827    3.9183  -63.9560 H   0  0  0  1  0  0  0  0  0  0  0  0
   23.4073    4.3680  -63.1344 H   0  0  0  1  0  0  0  0  0  0  0  0
   25.5562    5.6932  -63.1007 H   0  0  0  1  0  0  0  0  0  0  0  0
   26.7703    7.7126  -62.6185 H   0  0  0  1  0  0  0  0  0  0  0  0
   24.7872    9.7305  -65.5613 H   0  0  0  1  0  0  0  0  0  0  0  0
   23.5219    7.7640  -66.1386 H   0  0  0  1  0  0  0  0  0  0  0  0
  1  3  4  0  0  0  0
  1 14  4  0  0  0  0
  1 21  1  0  0  0  0
  2 14  4  0  0  0  0
  2 15  4  0  0  0  0
  2 30  1  0  0  0  0
  3 16  4  0  0  0  0
  4  5  4  0  0  0  0
  4  7  4  0  0  0  0
  4 17  1  0  0  0  0
  5  9  4  0  0  0  0
  5 31  1  0  0  0  0
  6  7  4  0  0  0  0
  6  8  4  0  0  0  0
  6 32  1  0  0  0  0
  7 33  1  0  0  0  0
  8  9  4  0  0  0  0
  8 20  1  0  0  0  0
  9 34  1  0  0  0  0
 10 11  1  0  0  0  0
 10 21  1  0  0  0  0
 10 24  1  0  0  0  0
 10 35  1  0  0  0  0
 11 12  1  0  0  0  0
 11 36  1  0  0  0  0
 11 37  1  0  0  0  0
 12 23  1  0  0  0  0
 12 38  1  0  0  0  0
 12 39  1  0  0  0  0
 13 23  1  0  0  0  0
 13 25  4  0  0  0  0
 13 29  4  0  0  0  0
 15 16  4  0  0  0  0
 15 18  4  0  0  0  0
 16 17  4  0  0  0  0
 17 19  4  0  0  0  0
 18 19  4  0  0  0  0
 20 22  1  0  0  0  0
 21 40  1  0  0  0  0
 22 41  1  0  0  0  0
 22 42  1  0  0  0  0
 22 43  1  0  0  0  0
 23 24  1  0  0  0  0
 24 44  1  0  0  0  0
 24 45  1  0  0  0  0
 25 26  4  0  0  0  0
 25 46  1  0  0  0  0
 26 27  4  0  0  0  0
 26 47  1  0  0  0  0
 27 28  4  0  0  0  0
 28 29  4  0  0  0  0
 28 48  1  0  0  0  0
 29 49  1  0  0  0  0
M  END
> <ConfClashScore>
0 

> <ConfOneFourInteractionScore>
-0.987833 

> <ConfScore>
0.0334736 

> <ConfScorePBest>
0.00331334 

> <ConfTolerance>
0.693476 

> <HETNAM>
     OWQ A 303  OWQ                                                       

> <pdb_OW>
Q_303 -16.5129 3.80749 7.62812 0.15963 1.39178 -0.28144 -3.20151 0 0 0 -1.30514 0 0 0 0 0 0 0 0 -8.31393

$$$$
6yky_lig_1.pdb
 OpenBabel04162415593D

 49 53  0  0  0  0  0  0  0  0999 V2000
   25.1047    1.8135  -65.3760 C   0  0  0  1  0  0  0  0  0  0  0  0
   26.9167    0.5034  -65.9326 C   0  0  0  1  0  0  0  0  0  0  0  0
   25.4178    1.8283  -64.0982 N   0  0  0  1  0  0  0  0  0  0  0  0
   26.7285    1.4699  -61.1390 C   0  0  0  1  0  0  0  0  0  0  0  0
   25.4376    1.3077  -60.6728 C   0  0  0  1  0  0  0  0  0  0  0  0
   27.2936    2.6926  -59.1559 C   0  0  0  1  0  0  0  0  0  0  0  0
   27.6573    2.1656  -60.3808 C   0  0  0  1  0  0  0  0  0  0  0  0
   25.9989    2.5301  -58.6881 C   0  0  0  1  0  0  0  0  0  0  0  0
   25.0731    1.8363  -59.4443 C   0  0  0  1  0  0  0  0  0  0  0  0
   23.5508    2.5154  -67.1621 C   0  0  0  1  0  0  0  0  0  0  0  0
   22.4032    3.5345  -67.3396 C   0  0  0  1  0  0  0  0  0  0  0  0
   21.3844    2.9147  -68.2625 C   0  0  0  1  0  0  0  0  0  0  0  0
   21.0984    0.4052  -68.9086 C   0  0  0  1  0  0  0  0  0  0  0  0
   25.8297    1.1707  -66.2748 N   0  0  0  1  0  0  0  0  0  0  0  0
   27.2965    0.4857  -64.5857 C   0  0  0  1  0  0  0  0  0  0  0  0
   26.4936    1.1851  -63.6614 C   0  0  0  1  0  0  0  0  0  0  0  0
   27.0809    1.0061  -62.4394 N   0  0  0  1  0  0  0  0  0  0  0  0
   28.3159   -0.0766  -63.9004 N   0  0  0  1  0  0  0  0  0  0  0  0
   28.2164    0.2092  -62.6490 N   0  0  0  1  0  0  0  0  0  0  0  0
   25.5740    3.1235  -57.5475 O   0  0  0  1  0  0  0  0  0  0  0  0
   24.0074    2.4762  -65.7838 N   0  0  0  1  0  0  0  0  0  0  0  0
   24.1749    3.0255  -57.2387 C   0  0  0  1  0  0  0  0  0  0  0  0
   21.8204    1.4334  -68.2391 N   0  0  0  1  0  0  0  0  0  0  0  0
   22.8983    1.2060  -67.5591 C   0  0  0  1  0  0  0  0  0  0  0  0
   19.8270    0.5877  -69.4204 C   0  0  0  1  0  0  0  0  0  0  0  0
   19.2089   -0.4711  -70.0579 C   0  0  0  1  0  0  0  0  0  0  0  0
   19.7759   -1.6724  -70.2054 N   0  0  0  1  0  0  0  0  0  0  0  0
   21.0071   -1.8365  -69.7007 C   0  0  0  1  0  0  0  0  0  0  0  0
   21.7000   -0.8299  -69.0511 C   0  0  0  1  0  0  0  0  0  0  0  0
   27.4790    0.0014  -66.6491 H   0  0  0  1  0  0  0  0  0  0  0  0
   24.7398    0.7892  -61.2435 H   0  0  0  1  0  0  0  0  0  0  0  0
   27.9915    3.2112  -58.5852 H   0  0  0  1  0  0  0  0  0  0  0  0
   28.6275    2.2911  -60.7336 H   0  0  0  1  0  0  0  0  0  0  0  0
   24.1028    1.7109  -59.0916 H   0  0  0  1  0  0  0  0  0  0  0  0
   24.3745    2.7464  -67.8048 H   0  0  0  1  0  0  0  0  0  0  0  0
   21.9550    3.7482  -66.3919 H   0  0  0  1  0  0  0  0  0  0  0  0
   22.7814    4.4391  -67.7681 H   0  0  0  1  0  0  0  0  0  0  0  0
   20.3899    3.0365  -67.8869 H   0  0  0  1  0  0  0  0  0  0  0  0
   21.4468    3.3262  -69.2483 H   0  0  0  1  0  0  0  0  0  0  0  0
   23.4852    2.9611  -65.1110 H   0  0  0  1  0  0  0  0  0  0  0  0
   23.9519    2.0346  -56.9023 H   0  0  0  1  0  0  0  0  0  0  0  0
   23.6004    3.2421  -58.1151 H   0  0  0  1  0  0  0  0  0  0  0  0
   23.9298    3.7269  -56.4687 H   0  0  0  1  0  0  0  0  0  0  0  0
   23.5802    0.6380  -68.1568 H   0  0  0  1  0  0  0  0  0  0  0  0
   22.6500    0.6529  -66.6774 H   0  0  0  1  0  0  0  0  0  0  0  0
   19.3450    1.5045  -69.3272 H   0  0  0  1  0  0  0  0  0  0  0  0
   18.2536   -0.3259  -70.4425 H   0  0  0  1  0  0  0  0  0  0  0  0
   21.4635   -2.7653  -69.8022 H   0  0  0  1  0  0  0  0  0  0  0  0
   22.6554   -1.0002  -68.6774 H   0  0  0  1  0  0  0  0  0  0  0  0
  1  3  4  0  0  0  0
  1 14  4  0  0  0  0
  1 21  1  0  0  0  0
  2 14  4  0  0  0  0
  2 15  4  0  0  0  0
  2 30  1  0  0  0  0
  3 16  4  0  0  0  0
  4  5  4  0  0  0  0
  4  7  4  0  0  0  0
  4 17  1  0  0  0  0
  5  9  4  0  0  0  0
  5 31  1  0  0  0  0
  6  7  4  0  0  0  0
  6  8  4  0  0  0  0
  6 32  1  0  0  0  0
  7 33  1  0  0  0  0
  8  9  4  0  0  0  0
  8 20  1  0  0  0  0
  9 34  1  0  0  0  0
 10 11  1  0  0  0  0
 10 21  1  0  0  0  0
 10 24  1  0  0  0  0
 10 35  1  0  0  0  0
 11 12  1  0  0  0  0
 11 36  1  0  0  0  0
 11 37  1  0  0  0  0
 12 23  1  0  0  0  0
 12 38  1  0  0  0  0
 12 39  1  0  0  0  0
 13 23  1  0  0  0  0
 13 25  4  0  0  0  0
 13 29  4  0  0  0  0
 15 16  4  0  0  0  0
 15 18  4  0  0  0  0
 16 17  4  0  0  0  0
 17 19  4  0  0  0  0
 18 19  4  0  0  0  0
 20 22  1  0  0  0  0
 21 40  1  0  0  0  0
 22 41  1  0  0  0  0
 22 42  1  0  0  0  0
 22 43  1  0  0  0  0
 23 24  1  0  0  0  0
 24 44  1  0  0  0  0
 24 45  1  0  0  0  0
 25 26  4  0  0  0  0
 25 46  1  0  0  0  0
 26 27  4  0  0  0  0
 26 47  1  0  0  0  0
 27 28  4  0  0  0  0
 28 29  4  0  0  0  0
 28 48  1  0  0  0  0
 29 49  1  0  0  0  0
M  END
> <ConfClashScore>
0 

> <ConfOneFourInteractionScore>
-0.984874 

> <ConfScore>
0.0342348 

> <ConfScorePBest>
0.00330001 

> <ConfTolerance>
0.548631 

> <HETNAM>
     OWQ A 303  OWQ                                                       

> <pdb_OW>
Q_303 -16.5129 3.80749 7.62812 0.15963 1.39178 -0.28144 -3.20151 0 0 0 -1.30514 0 0 0 0 0 0 0 0 -8.31393

$$$$
6yky_lig_1.pdb
 OpenBabel04162415593D

 49 53  0  0  0  0  0  0  0  0999 V2000
   25.1047    1.8135  -65.3760 C   0  0  0  1  0  0  0  0  0  0  0  0
   26.9167    0.5034  -65.9326 C   0  0  0  1  0  0  0  0  0  0  0  0
   25.4178    1.8282  -64.0981 N   0  0  0  1  0  0  0  0  0  0  0  0
   26.7669    1.4473  -61.1214 C   0  0  0  1  0  0  0  0  0  0  0  0
   25.5816    2.1154  -60.8794 C   0  0  0  1  0  0  0  0  0  0  0  0
   27.4288    1.7912  -58.8431 C   0  0  0  1  0  0  0  0  0  0  0  0
   27.6932    1.2873  -60.1026 C   0  0  0  1  0  0  0  0  0  0  0  0
   26.2399    2.4614  -58.6001 C   0  0  0  1  0  0  0  0  0  0  0  0
   25.3165    2.6209  -59.6161 C   0  0  0  1  0  0  0  0  0  0  0  0
   23.6111    2.7200  -67.1697 C   0  0  0  1  0  0  0  0  0  0  0  0
   22.2327    3.3685  -67.2311 C   0  0  0  1  0  0  0  0  0  0  0  0
   21.2605    2.1949  -67.0545 C   0  0  0  1  0  0  0  0  0  0  0  0
   21.4933   -0.2496  -67.7177 C   0  0  0  1  0  0  0  0  0  0  0  0
   25.8297    1.1707  -66.2747 N   0  0  0  1  0  0  0  0  0  0  0  0
   27.2965    0.4857  -64.5857 C   0  0  0  1  0  0  0  0  0  0  0  0
   26.4937    1.1851  -63.6614 C   0  0  0  1  0  0  0  0  0  0  0  0
   27.0809    1.0061  -62.4394 N   0  0  0  1  0  0  0  0  0  0  0  0
   28.3159   -0.0766  -63.9004 N   0  0  0  1  0  0  0  0  0  0  0  0
   28.2164    0.2093  -62.6490 N   0  0  0  1  0  0  0  0  0  0  0  0
   26.0445    2.9351  -57.3466 O   0  0  0  1  0  0  0  0  0  0  0  0
   24.0135    2.4725  -65.7814 N   0  0  0  1  0  0  0  0  0  0  0  0
   27.1865    2.9806  -56.4770 C   0  0  0  1  0  0  0  0  0  0  0  0
   22.0264    1.0472  -67.5728 N   0  0  0  1  0  0  0  0  0  0  0  0
   23.4163    1.4086  -67.9239 C   0  0  0  1  0  0  0  0  0  0  0  0
   21.0699   -0.6470  -68.9724 C   0  0  0  1  0  0  0  0  0  0  0  0
   20.5492   -1.9176  -69.1267 C   0  0  0  1  0  0  0  0  0  0  0  0
   20.4288   -2.7896  -68.1209 N   0  0  0  1  0  0  0  0  0  0  0  0
   20.8391   -2.3896  -66.9090 C   0  0  0  1  0  0  0  0  0  0  0  0
   21.3757   -1.1373  -66.6659 C   0  0  0  1  0  0  0  0  0  0  0  0
   27.4789    0.0014  -66.6491 H   0  0  0  1  0  0  0  0  0  0  0  0
   24.8885    2.2389  -61.6449 H   0  0  0  1  0  0  0  0  0  0  0  0
   28.1218    1.6676  -58.0776 H   0  0  0  1  0  0  0  0  0  0  0  0
   28.5869    0.7879  -60.2859 H   0  0  0  1  0  0  0  0  0  0  0  0
   24.4228    3.1201  -59.4330 H   0  0  0  1  0  0  0  0  0  0  0  0
   24.3446    3.3331  -67.6503 H   0  0  0  1  0  0  0  0  0  0  0  0
   22.0807    3.8492  -68.1749 H   0  0  0  1  0  0  0  0  0  0  0  0
   22.1134    4.0827  -66.4432 H   0  0  0  1  0  0  0  0  0  0  0  0
   21.0098    2.0555  -66.0236 H   0  0  0  1  0  0  0  0  0  0  0  0
   20.3664    2.3480  -67.6218 H   0  0  0  1  0  0  0  0  0  0  0  0
   23.4249    2.8247  -65.0815 H   0  0  0  1  0  0  0  0  0  0  0  0
   28.0266    3.3735  -57.0108 H   0  0  0  1  0  0  0  0  0  0  0  0
   27.4127    1.9928  -56.1336 H   0  0  0  1  0  0  0  0  0  0  0  0
   26.9713    3.6096  -55.6386 H   0  0  0  1  0  0  0  0  0  0  0  0
   23.5256    1.5485  -68.9790 H   0  0  0  1  0  0  0  0  0  0  0  0
   24.1069    0.6628  -67.5891 H   0  0  0  1  0  0  0  0  0  0  0  0
   21.1419   -0.0016  -69.7848 H   0  0  0  1  0  0  0  0  0  0  0  0
   20.2351   -2.2105  -70.0738 H   0  0  0  1  0  0  0  0  0  0  0  0
   20.7500   -3.0526  -66.1127 H   0  0  0  1  0  0  0  0  0  0  0  0
   21.6844   -0.8696  -65.7096 H   0  0  0  1  0  0  0  0  0  0  0  0
  1  3  4  0  0  0  0
  1 14  4  0  0  0  0
  1 21  1  0  0  0  0
  2 14  4  0  0  0  0
  2 15  4  0  0  0  0
  2 30  1  0  0  0  0
  3 16  4  0  0  0  0
  4  5  4  0  0  0  0
  4  7  4  0  0  0  0
  4 17  1  0  0  0  0
  5  9  4  0  0  0  0
  5 31  1  0  0  0  0
  6  7  4  0  0  0  0
  6  8  4  0  0  0  0
  6 32  1  0  0  0  0
  7 33  1  0  0  0  0
  8  9  4  0  0  0  0
  8 20  1  0  0  0  0
  9 34  1  0  0  0  0
 10 11  1  0  0  0  0
 10 21  1  0  0  0  0
 10 24  1  0  0  0  0
 10 35  1  0  0  0  0
 11 12  1  0  0  0  0
 11 36  1  0  0  0  0
 11 37  1  0  0  0  0
 12 23  1  0  0  0  0
 12 38  1  0  0  0  0
 12 39  1  0  0  0  0
 13 23  1  0  0  0  0
 13 25  4  0  0  0  0
 13 29  4  0  0  0  0
 15 16  4  0  0  0  0
 15 18  4  0  0  0  0
 16 17  4  0  0  0  0
 17 19  4  0  0  0  0
 18 19  4  0  0  0  0
 20 22  1  0  0  0  0
 21 40  1  0  0  0  0
 22 41  1  0  0  0  0
 22 42  1  0  0  0  0
 22 43  1  0  0  0  0
 23 24  1  0  0  0  0
 24 44  1  0  0  0  0
 24 45  1  0  0  0  0
 25 26  4  0  0  0  0
 25 46  1  0  0  0  0
 26 27  4  0  0  0  0
 26 47  1  0  0  0  0
 27 28  4  0  0  0  0
 28 29  4  0  0  0  0
 28 48  1  0  0  0  0
 29 49  1  0  0  0  0
M  END
> <ConfClashScore>
0 

> <ConfOneFourInteractionScore>
-0.987833 

> <ConfScore>
0.0343405 

> <ConfScorePBest>
0.00328668 

> <ConfTolerance>
0.739453 

> <HETNAM>
     OWQ A 303  OWQ                                                       

> <pdb_OW>
Q_303 -16.5129 3.80749 7.62812 0.15963 1.39178 -0.28144 -3.20151 0 0 0 -1.30514 0 0 0 0 0 0 0 0 -8.31393

$$$$
6yky_lig_1.pdb
 OpenBabel04162415593D

 49 53  0  0  0  0  0  0  0  0999 V2000
   25.1048    1.8135  -65.3760 C   0  0  0  1  0  0  0  0  0  0  0  0
   26.9167    0.5034  -65.9326 C   0  0  0  1  0  0  0  0  0  0  0  0
   25.4178    1.8283  -64.0982 N   0  0  0  1  0  0  0  0  0  0  0  0
   26.7286    1.4699  -61.1391 C   0  0  0  1  0  0  0  0  0  0  0  0
   25.4833    2.0266  -60.9169 C   0  0  0  1  0  0  0  0  0  0  0  0
   27.3597    1.9752  -58.8822 C   0  0  0  1  0  0  0  0  0  0  0  0
   27.6692    1.4465  -60.1212 C   0  0  0  1  0  0  0  0  0  0  0  0
   26.1108    2.5336  -58.6592 C   0  0  0  1  0  0  0  0  0  0  0  0
   25.1731    2.5569  -59.6742 C   0  0  0  1  0  0  0  0  0  0  0  0
   23.0783    3.1445  -64.8849 C   0  0  0  1  0  0  0  0  0  0  0  0
   23.7943    4.1990  -63.9963 C   0  0  0  1  0  0  0  0  0  0  0  0
   22.9905    4.3231  -62.6850 C   0  0  0  1  0  0  0  0  0  0  0  0
   21.1521    2.8089  -61.7754 C   0  0  0  1  0  0  0  0  0  0  0  0
   25.8297    1.1707  -66.2748 N   0  0  0  1  0  0  0  0  0  0  0  0
   27.2965    0.4858  -64.5857 C   0  0  0  1  0  0  0  0  0  0  0  0
   26.4936    1.1852  -63.6614 C   0  0  0  1  0  0  0  0  0  0  0  0
   27.0809    1.0062  -62.4396 N   0  0  0  1  0  0  0  0  0  0  0  0
   28.3159   -0.0766  -63.9004 N   0  0  0  1  0  0  0  0  0  0  0  0
   28.2164    0.2092  -62.6490 N   0  0  0  1  0  0  0  0  0  0  0  0
   25.7741    2.9702  -57.4222 O   0  0  0  1  0  0  0  0  0  0  0  0
   24.0034    2.4787  -65.7853 N   0  0  0  1  0  0  0  0  0  0  0  0
   24.4620    3.5308  -57.2588 C   0  0  0  1  0  0  0  0  0  0  0  0
   22.1619    3.0845  -62.6886 N   0  0  0  1  0  0  0  0  0  0  0  0
   22.5579    2.1924  -63.7906 C   0  0  0  1  0  0  0  0  0  0  0  0
   19.8243    3.1196  -62.0033 C   0  0  0  1  0  0  0  0  0  0  0  0
   18.8914    2.8016  -61.0346 C   0  0  0  1  0  0  0  0  0  0  0  0
   19.2054    2.2081  -59.8789 N   0  0  0  1  0  0  0  0  0  0  0  0
   20.4969    1.9165  -59.6693 C   0  0  0  1  0  0  0  0  0  0  0  0
   21.4953    2.1959  -60.5862 C   0  0  0  1  0  0  0  0  0  0  0  0
   27.4790    0.0014  -66.6492 H   0  0  0  1  0  0  0  0  0  0  0  0
   24.7790    2.0477  -61.6818 H   0  0  0  1  0  0  0  0  0  0  0  0
   28.0640    1.9540  -58.1172 H   0  0  0  1  0  0  0  0  0  0  0  0
   28.6077    1.0312  -60.2897 H   0  0  0  1  0  0  0  0  0  0  0  0
   24.2346    2.9722  -59.5057 H   0  0  0  1  0  0  0  0  0  0  0  0
   22.2788    3.5767  -65.4496 H   0  0  0  1  0  0  0  0  0  0  0  0
   24.7931    3.8795  -63.7836 H   0  0  0  1  0  0  0  0  0  0  0  0
   23.8207    5.1430  -64.4992 H   0  0  0  1  0  0  0  0  0  0  0  0
   22.3753    5.1985  -62.6913 H   0  0  0  1  0  0  0  0  0  0  0  0
   23.6405    4.3496  -61.8354 H   0  0  0  1  0  0  0  0  0  0  0  0
   23.8171    2.5144  -66.7467 H   0  0  0  1  0  0  0  0  0  0  0  0
   23.7269    2.7655  -57.3966 H   0  0  0  1  0  0  0  0  0  0  0  0
   24.3119    4.3037  -57.9833 H   0  0  0  1  0  0  0  0  0  0  0  0
   24.3696    3.9406  -56.2748 H   0  0  0  1  0  0  0  0  0  0  0  0
   23.3287    1.5204  -63.4756 H   0  0  0  1  0  0  0  0  0  0  0  0
   21.7180    1.6319  -64.1446 H   0  0  0  1  0  0  0  0  0  0  0  0
   19.5330    3.5839  -62.8872 H   0  0  0  1  0  0  0  0  0  0  0  0
   17.8943    3.0360  -61.2140 H   0  0  0  1  0  0  0  0  0  0  0  0
   20.7616    1.4578  -58.7742 H   0  0  0  1  0  0  0  0  0  0  0  0
   22.4850    1.9492  -60.3835 H   0  0  0  1  0  0  0  0  0  0  0  0
  1  3  4  0  0  0  0
  1 14  4  0  0  0  0
  1 21  1  0  0  0  0
  2 14  4  0  0  0  0
  2 15  4  0  0  0  0
  2 30  1  0  0  0  0
  3 16  4  0  0  0  0
  4  5  4  0  0  0  0
  4  7  4  0  0  0  0
  4 17  1  0  0  0  0
  5  9  4  0  0  0  0
  5 31  1  0  0  0  0
  6  7  4  0  0  0  0
  6  8  4  0  0  0  0
  6 32  1  0  0  0  0
  7 33  1  0  0  0  0
  8  9  4  0  0  0  0
  8 20  1  0  0  0  0
  9 34  1  0  0  0  0
 10 11  1  0  0  0  0
 10 21  1  0  0  0  0
 10 24  1  0  0  0  0
 10 35  1  0  0  0  0
 11 12  1  0  0  0  0
 11 36  1  0  0  0  0
 11 37  1  0  0  0  0
 12 23  1  0  0  0  0
 12 38  1  0  0  0  0
 12 39  1  0  0  0  0
 13 23  1  0  0  0  0
 13 25  4  0  0  0  0
 13 29  4  0  0  0  0
 15 16  4  0  0  0  0
 15 18  4  0  0  0  0
 16 17  4  0  0  0  0
 17 19  4  0  0  0  0
 18 19  4  0  0  0  0
 20 22  1  0  0  0  0
 21 40  1  0  0  0  0
 22 41  1  0  0  0  0
 22 42  1  0  0  0  0
 22 43  1  0  0  0  0
 23 24  1  0  0  0  0
 24 44  1  0  0  0  0
 24 45  1  0  0  0  0
 25 26  4  0  0  0  0
 25 46  1  0  0  0  0
 26 27  4  0  0  0  0
 26 47  1  0  0  0  0
 27 28  4  0  0  0  0
 28 29  4  0  0  0  0
 28 48  1  0  0  0  0
 29 49  1  0  0  0  0
M  END
> <ConfClashScore>
0 

> <ConfOneFourInteractionScore>
-0.983503 

> <ConfScore>
0.0346457 

> <ConfScorePBest>
0.00327336 

> <ConfTolerance>
0.447225 

> <HETNAM>
     OWQ A 303  OWQ                                                       

> <pdb_OW>
Q_303 -16.5129 3.80749 7.62812 0.15963 1.39178 -0.28144 -3.20151 0 0 0 -1.30514 0 0 0 0 0 0 0 0 -8.31393

$$$$
6yky_lig_1.pdb
 OpenBabel04162415593D

 49 53  0  0  0  0  0  0  0  0999 V2000
   25.1048    1.8135  -65.3760 C   0  0  0  1  0  0  0  0  0  0  0  0
   26.9167    0.5034  -65.9326 C   0  0  0  1  0  0  0  0  0  0  0  0
   25.4178    1.8284  -64.0982 N   0  0  0  1  0  0  0  0  0  0  0  0
   26.7287    1.4698  -61.1391 C   0  0  0  1  0  0  0  0  0  0  0  0
   27.1604    0.7298  -60.0546 C   0  0  0  1  0  0  0  0  0  0  0  0
   25.5178    2.9241  -59.6673 C   0  0  0  1  0  0  0  0  0  0  0  0
   25.9039    2.5671  -60.9455 C   0  0  0  1  0  0  0  0  0  0  0  0
   25.9507    2.1819  -58.5795 C   0  0  0  1  0  0  0  0  0  0  0  0
   26.7730    1.0879  -58.7729 C   0  0  0  1  0  0  0  0  0  0  0  0
   23.0328    3.1678  -65.0547 C   0  0  0  1  0  0  0  0  0  0  0  0
   21.6561    2.6548  -65.3603 C   0  0  0  1  0  0  0  0  0  0  0  0
   21.3207    3.4192  -66.6714 C   0  0  0  1  0  0  0  0  0  0  0  0
   21.7755    5.8093  -67.2542 C   0  0  0  1  0  0  0  0  0  0  0  0
   25.8296    1.1708  -66.2747 N   0  0  0  1  0  0  0  0  0  0  0  0
   27.2965    0.4857  -64.5857 C   0  0  0  1  0  0  0  0  0  0  0  0
   26.4936    1.1852  -63.6614 C   0  0  0  1  0  0  0  0  0  0  0  0
   27.0809    1.0062  -62.4395 N   0  0  0  1  0  0  0  0  0  0  0  0
   28.3159   -0.0766  -63.9004 N   0  0  0  1  0  0  0  0  0  0  0  0
   28.2164    0.2093  -62.6490 N   0  0  0  1  0  0  0  0  0  0  0  0
   25.6351    2.4315  -57.2865 O   0  0  0  1  0  0  0  0  0  0  0  0
   24.0271    2.4524  -65.8449 N   0  0  0  1  0  0  0  0  0  0  0  0
   24.6746    3.4687  -57.0338 C   0  0  0  1  0  0  0  0  0  0  0  0
   22.0278    4.6587  -66.4802 N   0  0  0  1  0  0  0  0  0  0  0  0
   23.0218    4.6241  -65.4236 C   0  0  0  1  0  0  0  0  0  0  0  0
   20.9426    5.8077  -68.3578 C   0  0  0  1  0  0  0  0  0  0  0  0
   20.7550    6.9885  -69.0508 C   0  0  0  1  0  0  0  0  0  0  0  0
   21.3415    8.1406  -68.7118 N   0  0  0  1  0  0  0  0  0  0  0  0
   22.1499    8.1267  -67.6423 C   0  0  0  1  0  0  0  0  0  0  0  0
   22.3909    6.9908  -66.8894 C   0  0  0  1  0  0  0  0  0  0  0  0
   27.4789    0.0013  -66.6492 H   0  0  0  1  0  0  0  0  0  0  0  0
   27.7759   -0.0958  -60.2004 H   0  0  0  1  0  0  0  0  0  0  0  0
   24.9022    3.7498  -59.5217 H   0  0  0  1  0  0  0  0  0  0  0  0
   25.5758    3.1216  -61.7619 H   0  0  0  1  0  0  0  0  0  0  0  0
   27.1011    0.5335  -57.9564 H   0  0  0  1  0  0  0  0  0  0  0  0
   23.2511    3.0494  -64.0139 H   0  0  0  1  0  0  0  0  0  0  0  0
   20.9666    2.8985  -64.5793 H   0  0  0  1  0  0  0  0  0  0  0  0
   21.6599    1.5961  -65.5160 H   0  0  0  1  0  0  0  0  0  0  0  0
   21.6813    2.8942  -67.5312 H   0  0  0  1  0  0  0  0  0  0  0  0
   20.2677    3.5827  -66.7682 H   0  0  0  1  0  0  0  0  0  0  0  0
   23.8928    2.4381  -66.8155 H   0  0  0  1  0  0  0  0  0  0  0  0
   24.9034    4.3222  -57.6373 H   0  0  0  1  0  0  0  0  0  0  0  0
   24.7101    3.7433  -56.0002 H   0  0  0  1  0  0  0  0  0  0  0  0
   23.6946    3.1137  -57.2756 H   0  0  0  1  0  0  0  0  0  0  0  0
   22.7291    5.2332  -64.5940 H   0  0  0  1  0  0  0  0  0  0  0  0
   23.9793    4.9422  -65.7800 H   0  0  0  1  0  0  0  0  0  0  0  0
   20.4662    4.9342  -68.6608 H   0  0  0  1  0  0  0  0  0  0  0  0
   20.1252    6.9802  -69.8784 H   0  0  0  1  0  0  0  0  0  0  0  0
   22.6185    9.0127  -67.3651 H   0  0  0  1  0  0  0  0  0  0  0  0
   23.0236    7.0261  -66.0647 H   0  0  0  1  0  0  0  0  0  0  0  0
  1  3  4  0  0  0  0
  1 14  4  0  0  0  0
  1 21  1  0  0  0  0
  2 14  4  0  0  0  0
  2 15  4  0  0  0  0
  2 30  1  0  0  0  0
  3 16  4  0  0  0  0
  4  5  4  0  0  0  0
  4  7  4  0  0  0  0
  4 17  1  0  0  0  0
  5  9  4  0  0  0  0
  5 31  1  0  0  0  0
  6  7  4  0  0  0  0
  6  8  4  0  0  0  0
  6 32  1  0  0  0  0
  7 33  1  0  0  0  0
  8  9  4  0  0  0  0
  8 20  1  0  0  0  0
  9 34  1  0  0  0  0
 10 11  1  0  0  0  0
 10 21  1  0  0  0  0
 10 24  1  0  0  0  0
 10 35  1  0  0  0  0
 11 12  1  0  0  0  0
 11 36  1  0  0  0  0
 11 37  1  0  0  0  0
 12 23  1  0  0  0  0
 12 38  1  0  0  0  0
 12 39  1  0  0  0  0
 13 23  1  0  0  0  0
 13 25  4  0  0  0  0
 13 29  4  0  0  0  0
 15 16  4  0  0  0  0
 15 18  4  0  0  0  0
 16 17  4  0  0  0  0
 17 19  4  0  0  0  0
 18 19  4  0  0  0  0
 20 22  1  0  0  0  0
 21 40  1  0  0  0  0
 22 41  1  0  0  0  0
 22 42  1  0  0  0  0
 22 43  1  0  0  0  0
 23 24  1  0  0  0  0
 24 44  1  0  0  0  0
 24 45  1  0  0  0  0
 25 26  4  0  0  0  0
 25 46  1  0  0  0  0
 26 27  4  0  0  0  0
 26 47  1  0  0  0  0
 27 28  4  0  0  0  0
 28 29  4  0  0  0  0
 28 48  1  0  0  0  0
 29 49  1  0  0  0  0
M  END
> <ConfClashScore>
0 

> <ConfOneFourInteractionScore>
-0.986948 

> <ConfScore>
0.0349687 

> <ConfScorePBest>
0.00326003 

> <ConfTolerance>
0.821491 

> <HETNAM>
     OWQ A 303  OWQ                                                       

> <pdb_OW>
Q_303 -16.5129 3.80749 7.62812 0.15963 1.39178 -0.28144 -3.20151 0 0 0 -1.30514 0 0 0 0 0 0 0 0 -8.31393

$$$$
6yky_lig_1.pdb
 OpenBabel04162415593D

 49 53  0  0  0  0  0  0  0  0999 V2000
   25.1048    1.8136  -65.3760 C   0  0  0  1  0  0  0  0  0  0  0  0
   26.9167    0.5034  -65.9326 C   0  0  0  1  0  0  0  0  0  0  0  0
   25.4179    1.8285  -64.0983 N   0  0  0  1  0  0  0  0  0  0  0  0
   26.7287    1.4700  -61.1390 C   0  0  0  1  0  0  0  0  0  0  0  0
   25.7292    0.7939  -60.4652 C   0  0  0  1  0  0  0  0  0  0  0  0
   26.8471    3.0727  -59.3602 C   0  0  0  1  0  0  0  0  0  0  0  0
   27.2867    2.6126  -60.5871 C   0  0  0  1  0  0  0  0  0  0  0  0
   25.8447    2.3947  -58.6841 C   0  0  0  1  0  0  0  0  0  0  0  0
   25.2885    1.2555  -59.2347 C   0  0  0  1  0  0  0  0  0  0  0  0
   23.7270    2.7303  -67.1963 C   0  0  0  1  0  0  0  0  0  0  0  0
   22.2606    3.1835  -67.4381 C   0  0  0  1  0  0  0  0  0  0  0  0
   21.8705    2.7492  -68.8665 C   0  0  0  1  0  0  0  0  0  0  0  0
   23.0708    1.1490  -70.4422 C   0  0  0  1  0  0  0  0  0  0  0  0
   25.8296    1.1707  -66.2747 N   0  0  0  1  0  0  0  0  0  0  0  0
   27.2965    0.4857  -64.5857 C   0  0  0  1  0  0  0  0  0  0  0  0
   26.4937    1.1852  -63.6614 C   0  0  0  1  0  0  0  0  0  0  0  0
   27.0810    1.0061  -62.4395 N   0  0  0  1  0  0  0  0  0  0  0  0
   28.3158   -0.0766  -63.9004 N   0  0  0  1  0  0  0  0  0  0  0  0
   28.2164    0.2092  -62.6490 N   0  0  0  1  0  0  0  0  0  0  0  0
   25.4559    2.9005  -57.4896 O   0  0  0  1  0  0  0  0  0  0  0  0
   23.9921    2.4858  -65.7895 N   0  0  0  1  0  0  0  0  0  0  0  0
   24.4075    2.2084  -56.7938 C   0  0  0  1  0  0  0  0  0  0  0  0
   22.9074    1.7306  -69.1952 N   0  0  0  1  0  0  0  0  0  0  0  0
   23.7347    1.4257  -68.0164 C   0  0  0  1  0  0  0  0  0  0  0  0
   22.4084   -0.0362  -70.7035 C   0  0  0  1  0  0  0  0  0  0  0  0
   22.5610   -0.6230  -71.9453 C   0  0  0  1  0  0  0  0  0  0  0  0
   23.3222   -0.1053  -72.9143 N   0  0  0  1  0  0  0  0  0  0  0  0
   23.9621    1.0417  -72.6457 C   0  0  0  1  0  0  0  0  0  0  0  0
   23.8628    1.6984  -71.4315 C   0  0  0  1  0  0  0  0  0  0  0  0
   27.4789    0.0013  -66.6492 H   0  0  0  1  0  0  0  0  0  0  0  0
   25.3079   -0.0611  -60.8812 H   0  0  0  1  0  0  0  0  0  0  0  0
   27.2684    3.9277  -58.9442 H   0  0  0  1  0  0  0  0  0  0  0  0
   28.0359    3.1235  -61.0962 H   0  0  0  1  0  0  0  0  0  0  0  0
   24.5393    0.7444  -58.7257 H   0  0  0  1  0  0  0  0  0  0  0  0
   24.4311    3.4420  -67.5740 H   0  0  0  1  0  0  0  0  0  0  0  0
   22.1874    4.2471  -67.3469 H   0  0  0  1  0  0  0  0  0  0  0  0
   21.6124    2.7184  -66.7251 H   0  0  0  1  0  0  0  0  0  0  0  0
   21.9125    3.5751  -69.5455 H   0  0  0  1  0  0  0  0  0  0  0  0
   20.8900    2.3211  -68.8850 H   0  0  0  1  0  0  0  0  0  0  0  0
   23.3551    2.8120  -65.1199 H   0  0  0  1  0  0  0  0  0  0  0  0
   24.6125    1.1582  -56.7923 H   0  0  0  1  0  0  0  0  0  0  0  0
   23.4742    2.3886  -57.2851 H   0  0  0  1  0  0  0  0  0  0  0  0
   24.3547    2.5625  -55.7854 H   0  0  0  1  0  0  0  0  0  0  0  0
   24.7311    1.1684  -68.3094 H   0  0  0  1  0  0  0  0  0  0  0  0
   23.3093    0.6217  -67.4530 H   0  0  0  1  0  0  0  0  0  0  0  0
   21.8067   -0.4776  -69.9793 H   0  0  0  1  0  0  0  0  0  0  0  0
   22.0577   -1.5130  -72.1357 H   0  0  0  1  0  0  0  0  0  0  0  0
   24.5624    1.4582  -73.3857 H   0  0  0  1  0  0  0  0  0  0  0  0
   24.3747    2.5886  -71.2670 H   0  0  0  1  0  0  0  0  0  0  0  0
  1  3  4  0  0  0  0
  1 14  4  0  0  0  0
  1 21  1  0  0  0  0
  2 14  4  0  0  0  0
  2 15  4  0  0  0  0
  2 30  1  0  0  0  0
  3 16  4  0  0  0  0
  4  5  4  0  0  0  0
  4  7  4  0  0  0  0
  4 17  1  0  0  0  0
  5  9  4  0  0  0  0
  5 31  1  0  0  0  0
  6  7  4  0  0  0  0
  6  8  4  0  0  0  0
  6 32  1  0  0  0  0
  7 33  1  0  0  0  0
  8  9  4  0  0  0  0
  8 20  1  0  0  0  0
  9 34  1  0  0  0  0
 10 11  1  0  0  0  0
 10 21  1  0  0  0  0
 10 24  1  0  0  0  0
 10 35  1  0  0  0  0
 11 12  1  0  0  0  0
 11 36  1  0  0  0  0
 11 37  1  0  0  0  0
 12 23  1  0  0  0  0
 12 38  1  0  0  0  0
 12 39  1  0  0  0  0
 13 23  1  0  0  0  0
 13 25  4  0  0  0  0
 13 29  4  0  0  0  0
 15 16  4  0  0  0  0
 15 18  4  0  0  0  0
 16 17  4  0  0  0  0
 17 19  4  0  0  0  0
 18 19  4  0  0  0  0
 20 22  1  0  0  0  0
 21 40  1  0  0  0  0
 22 41  1  0  0  0  0
 22 42  1  0  0  0  0
 22 43  1  0  0  0  0
 23 24  1  0  0  0  0
 24 44  1  0  0  0  0
 24 45  1  0  0  0  0
 25 26  4  0  0  0  0
 25 46  1  0  0  0  0
 26 27  4  0  0  0  0
 26 47  1  0  0  0  0
 27 28  4  0  0  0  0
 28 29  4  0  0  0  0
 28 48  1  0  0  0  0
 29 49  1  0  0  0  0
M  END
> <ConfClashScore>
0 

> <ConfOneFourInteractionScore>
-0.987833 

> <ConfScore>
0.0350763 

> <ConfScorePBest>
0.0032467 

> <ConfTolerance>
0.399948 

> <HETNAM>
     OWQ A 303  OWQ                                                       

> <pdb_OW>
Q_303 -16.5129 3.80749 7.62812 0.15963 1.39178 -0.28144 -3.20151 0 0 0 -1.30514 0 0 0 0 0 0 0 0 -8.31393

$$$$
6yky_lig_1.pdb
 OpenBabel04162415593D

 49 53  0  0  0  0  0  0  0  0999 V2000
   25.1048    1.8135  -65.3759 C   0  0  0  1  0  0  0  0  0  0  0  0
   26.9167    0.5034  -65.9326 C   0  0  0  1  0  0  0  0  0  0  0  0
   25.4178    1.8284  -64.0982 N   0  0  0  1  0  0  0  0  0  0  0  0
   26.7519    1.5716  -61.1737 C   0  0  0  1  0  0  0  0  0  0  0  0
   27.5701    2.5332  -60.6116 C   0  0  0  1  0  0  0  0  0  0  0  0
   25.3900    1.5738  -59.2007 C   0  0  0  1  0  0  0  0  0  0  0  0
   25.6617    1.0892  -60.4662 C   0  0  0  1  0  0  0  0  0  0  0  0
   26.2106    2.5384  -58.6367 C   0  0  0  1  0  0  0  0  0  0  0  0
   27.2974    3.0192  -59.3423 C   0  0  0  1  0  0  0  0  0  0  0  0
   23.6128    2.5449  -67.1901 C   0  0  0  1  0  0  0  0  0  0  0  0
   23.1756    3.9335  -67.5538 C   0  0  0  1  0  0  0  0  0  0  0  0
   21.7069    3.9431  -67.0450 C   0  0  0  1  0  0  0  0  0  0  0  0
   20.0051    2.1563  -67.2195 C   0  0  0  1  0  0  0  0  0  0  0  0
   25.8296    1.1707  -66.2747 N   0  0  0  1  0  0  0  0  0  0  0  0
   27.2965    0.4858  -64.5857 C   0  0  0  1  0  0  0  0  0  0  0  0
   26.4937    1.1852  -63.6614 C   0  0  0  1  0  0  0  0  0  0  0  0
   27.0810    1.0062  -62.4395 N   0  0  0  1  0  0  0  0  0  0  0  0
   28.3159   -0.0766  -63.9004 N   0  0  0  1  0  0  0  0  0  0  0  0
   28.2164    0.2092  -62.6490 N   0  0  0  1  0  0  0  0  0  0  0  0
   25.8942    2.9647  -57.3986 O   0  0  0  1  0  0  0  0  0  0  0  0
   23.9920    2.4856  -65.7895 N   0  0  0  1  0  0  0  0  0  0  0  0
   26.8118    3.9275  -56.8296 C   0  0  0  1  0  0  0  0  0  0  0  0
   21.3188    2.5700  -67.2363 N   0  0  0  1  0  0  0  0  0  0  0  0
   22.4277    1.6582  -67.4482 C   0  0  0  1  0  0  0  0  0  0  0  0
   19.5507    0.9259  -67.6571 C   0  0  0  1  0  0  0  0  0  0  0  0
   18.1993    0.6488  -67.5749 C   0  0  0  1  0  0  0  0  0  0  0  0
   17.2999    1.5129  -67.0946 N   0  0  0  1  0  0  0  0  0  0  0  0
   17.7537    2.7035  -66.6779 C   0  0  0  1  0  0  0  0  0  0  0  0
   19.0897    3.0624  -66.7205 C   0  0  0  1  0  0  0  0  0  0  0  0
   27.4790    0.0013  -66.6492 H   0  0  0  1  0  0  0  0  0  0  0  0
   28.3902    2.8921  -61.1409 H   0  0  0  1  0  0  0  0  0  0  0  0
   24.5698    1.2149  -58.6715 H   0  0  0  1  0  0  0  0  0  0  0  0
   25.0484    0.3628  -60.8877 H   0  0  0  1  0  0  0  0  0  0  0  0
   27.9108    3.7456  -58.9209 H   0  0  0  1  0  0  0  0  0  0  0  0
   24.4410    2.2446  -67.7974 H   0  0  0  1  0  0  0  0  0  0  0  0
   23.7666    4.6721  -67.0537 H   0  0  0  1  0  0  0  0  0  0  0  0
   23.2234    4.0933  -68.6107 H   0  0  0  1  0  0  0  0  0  0  0  0
   21.0981    4.6041  -67.6257 H   0  0  0  1  0  0  0  0  0  0  0  0
   21.6541    4.2225  -66.0135 H   0  0  0  1  0  0  0  0  0  0  0  0
   23.4340    2.9401  -65.1242 H   0  0  0  1  0  0  0  0  0  0  0  0
   26.5190    4.9148  -57.1201 H   0  0  0  1  0  0  0  0  0  0  0  0
   27.8014    3.7300  -57.1854 H   0  0  0  1  0  0  0  0  0  0  0  0
   26.7936    3.8498  -55.7626 H   0  0  0  1  0  0  0  0  0  0  0  0
   22.4350    1.2809  -68.4494 H   0  0  0  1  0  0  0  0  0  0  0  0
   22.3961    0.8407  -66.7586 H   0  0  0  1  0  0  0  0  0  0  0  0
   20.2134    0.2223  -68.0409 H   0  0  0  1  0  0  0  0  0  0  0  0
   17.8652   -0.2795  -67.9036 H   0  0  0  1  0  0  0  0  0  0  0  0
   17.0686    3.3909  -66.3043 H   0  0  0  1  0  0  0  0  0  0  0  0
   19.3985    3.9965  -66.3835 H   0  0  0  1  0  0  0  0  0  0  0  0
  1  3  4  0  0  0  0
  1 14  4  0  0  0  0
  1 21  1  0  0  0  0
  2 14  4  0  0  0  0
  2 15  4  0  0  0  0
  2 30  1  0  0  0  0
  3 16  4  0  0  0  0
  4  5  4  0  0  0  0
  4  7  4  0  0  0  0
  4 17  1  0  0  0  0
  5  9  4  0  0  0  0
  5 31  1  0  0  0  0
  6  7  4  0  0  0  0
  6  8  4  0  0  0  0
  6 32  1  0  0  0  0
  7 33  1  0  0  0  0
  8  9  4  0  0  0  0
  8 20  1  0  0  0  0
  9 34  1  0  0  0  0
 10 11  1  0  0  0  0
 10 21  1  0  0  0  0
 10 24  1  0  0  0  0
 10 35  1  0  0  0  0
 11 12  1  0  0  0  0
 11 36  1  0  0  0  0
 11 37  1  0  0  0  0
 12 23  1  0  0  0  0
 12 38  1  0  0  0  0
 12 39  1  0  0  0  0
 13 23  1  0  0  0  0
 13 25  4  0  0  0  0
 13 29  4  0  0  0  0
 15 16  4  0  0  0  0
 15 18  4  0  0  0  0
 16 17  4  0  0  0  0
 17 19  4  0  0  0  0
 18 19  4  0  0  0  0
 20 22  1  0  0  0  0
 21 40  1  0  0  0  0
 22 41  1  0  0  0  0
 22 42  1  0  0  0  0
 22 43  1  0  0  0  0
 23 24  1  0  0  0  0
 24 44  1  0  0  0  0
 24 45  1  0  0  0  0
 25 26  4  0  0  0  0
 25 46  1  0  0  0  0
 26 27  4  0  0  0  0
 26 47  1  0  0  0  0
 27 28  4  0  0  0  0
 28 29  4  0  0  0  0
 28 48  1  0  0  0  0
 29 49  1  0  0  0  0
M  END
> <ConfClashScore>
0 

> <ConfOneFourInteractionScore>
-0.986948 

> <ConfScore>
0.0353931 

> <ConfScorePBest>
0.00323337 

> <ConfTolerance>
0.720546 

> <HETNAM>
     OWQ A 303  OWQ                                                       

> <pdb_OW>
Q_303 -16.5129 3.80749 7.62812 0.15963 1.39178 -0.28144 -3.20151 0 0 0 -1.30514 0 0 0 0 0 0 0 0 -8.31393

$$$$
6yky_lig_1.pdb
 OpenBabel04162415593D

 49 53  0  0  0  0  0  0  0  0999 V2000
   25.1049    1.8136  -65.3760 C   0  0  0  1  0  0  0  0  0  0  0  0
   26.9167    0.5034  -65.9326 C   0  0  0  1  0  0  0  0  0  0  0  0
   25.4179    1.8284  -64.0982 N   0  0  0  1  0  0  0  0  0  0  0  0
   26.7865    1.5431  -61.1529 C   0  0  0  1  0  0  0  0  0  0  0  0
   26.0162    2.6849  -61.0393 C   0  0  0  1  0  0  0  0  0  0  0  0
   27.1381    1.5416  -58.7814 C   0  0  0  1  0  0  0  0  0  0  0  0
   27.3506    0.9721  -60.0227 C   0  0  0  1  0  0  0  0  0  0  0  0
   26.3654    2.6868  -58.6674 C   0  0  0  1  0  0  0  0  0  0  0  0
   25.8031    3.2560  -59.7944 C   0  0  0  1  0  0  0  0  0  0  0  0
   23.1716    3.2844  -64.9085 C   0  0  0  1  0  0  0  0  0  0  0  0
   23.9857    4.3644  -64.2365 C   0  0  0  1  0  0  0  0  0  0  0  0
   23.1929    4.7092  -62.9916 C   0  0  0  1  0  0  0  0  0  0  0  0
   21.8643    3.1886  -61.4342 C   0  0  0  1  0  0  0  0  0  0  0  0
   25.8297    1.1707  -66.2748 N   0  0  0  1  0  0  0  0  0  0  0  0
   27.2965    0.4858  -64.5857 C   0  0  0  1  0  0  0  0  0  0  0  0
   26.4937    1.1852  -63.6614 C   0  0  0  1  0  0  0  0  0  0  0  0
   27.0810    1.0062  -62.4395 N   0  0  0  1  0  0  0  0  0  0  0  0
   28.3159   -0.0766  -63.9004 N   0  0  0  1  0  0  0  0  0  0  0  0
   28.2164    0.2092  -62.6490 N   0  0  0  1  0  0  0  0  0  0  0  0
   26.2323    3.1550  -57.4072 O   0  0  0  1  0  0  0  0  0  0  0  0
   24.0035    2.4789  -65.7853 N   0  0  0  1  0  0  0  0  0  0  0  0
   25.6254    4.4384  -57.1901 C   0  0  0  1  0  0  0  0  0  0  0  0
   22.5305    3.4349  -62.6575 N   0  0  0  1  0  0  0  0  0  0  0  0
   22.6428    2.4511  -63.7428 C   0  0  0  1  0  0  0  0  0  0  0  0
   20.4843    3.2320  -61.3620 C   0  0  0  1  0  0  0  0  0  0  0  0
   19.8740    2.9811  -60.1479 C   0  0  0  1  0  0  0  0  0  0  0  0
   20.5500    2.6994  -59.0299 N   0  0  0  1  0  0  0  0  0  0  0  0
   21.8876    2.6649  -59.1134 C   0  0  0  1  0  0  0  0  0  0  0  0
   22.5797    2.8997  -60.2886 C   0  0  0  1  0  0  0  0  0  0  0  0
   27.4789    0.0014  -66.6492 H   0  0  0  1  0  0  0  0  0  0  0  0
   25.5963    3.1155  -61.8878 H   0  0  0  1  0  0  0  0  0  0  0  0
   27.5579    1.1110  -57.9330 H   0  0  0  1  0  0  0  0  0  0  0  0
   27.9336    0.1151  -60.1087 H   0  0  0  1  0  0  0  0  0  0  0  0
   25.2201    4.1130  -59.7083 H   0  0  0  1  0  0  0  0  0  0  0  0
   22.3658    3.7083  -65.4706 H   0  0  0  1  0  0  0  0  0  0  0  0
   24.0816    5.2187  -64.8735 H   0  0  0  1  0  0  0  0  0  0  0  0
   24.9582    4.0006  -63.9780 H   0  0  0  1  0  0  0  0  0  0  0  0
   23.8390    5.0259  -62.1997 H   0  0  0  1  0  0  0  0  0  0  0  0
   22.4736    5.4750  -63.1937 H   0  0  0  1  0  0  0  0  0  0  0  0
   23.7504    2.4144  -66.7298 H   0  0  0  1  0  0  0  0  0  0  0  0
   24.6871    4.4811  -57.7027 H   0  0  0  1  0  0  0  0  0  0  0  0
   26.2708    5.2057  -57.5635 H   0  0  0  1  0  0  0  0  0  0  0  0
   25.4659    4.5845  -56.1422 H   0  0  0  1  0  0  0  0  0  0  0  0
   21.6893    2.0253  -63.9760 H   0  0  0  1  0  0  0  0  0  0  0  0
   23.3288    1.6714  -63.4853 H   0  0  0  1  0  0  0  0  0  0  0  0
   19.9161    3.4494  -62.2057 H   0  0  0  1  0  0  0  0  0  0  0  0
   18.8354    3.0131  -60.1018 H   0  0  0  1  0  0  0  0  0  0  0  0
   22.4315    2.4511  -58.2531 H   0  0  0  1  0  0  0  0  0  0  0  0
   23.6188    2.8596  -60.3087 H   0  0  0  1  0  0  0  0  0  0  0  0
  1  3  4  0  0  0  0
  1 14  4  0  0  0  0
  1 21  1  0  0  0  0
  2 14  4  0  0  0  0
  2 15  4  0  0  0  0
  2 30  1  0  0  0  0
  3 16  4  0  0  0  0
  4  5  4  0  0  0  0
  4  7  4  0  0  0  0
  4 17  1  0  0  0  0
  5  9  4  0  0  0  0
  5 31  1  0  0  0  0
  6  7  4  0  0  0  0
  6  8  4  0  0  0  0
  6 32  1  0  0  0  0
  7 33  1  0  0  0  0
  8  9  4  0  0  0  0
  8 20  1  0  0  0  0
  9 34  1  0  0  0  0
 10 11  1  0  0  0  0
 10 21  1  0  0  0  0
 10 24  1  0  0  0  0
 10 35  1  0  0  0  0
 11 12  1  0  0  0  0
 11 36  1  0  0  0  0
 11 37  1  0  0  0  0
 12 23  1  0  0  0  0
 12 38  1  0  0  0  0
 12 39  1  0  0  0  0
 13 23  1  0  0  0  0
 13 25  4  0  0  0  0
 13 29  4  0  0  0  0
 15 16  4  0  0  0  0
 15 18  4  0  0  0  0
 16 17  4  0  0  0  0
 17 19  4  0  0  0  0
 18 19  4  0  0  0  0
 20 22  1  0  0  0  0
 21 40  1  0  0  0  0
 22 41  1  0  0  0  0
 22 42  1  0  0  0  0
 22 43  1  0  0  0  0
 23 24  1  0  0  0  0
 24 44  1  0  0  0  0
 24 45  1  0  0  0  0
 25 26  4  0  0  0  0
 25 46  1  0  0  0  0
 26 27  4  0  0  0  0
 26 47  1  0  0  0  0
 27 28  4  0  0  0  0
 28 29  4  0  0  0  0
 28 48  1  0  0  0  0
 29 49  1  0  0  0  0
M  END
> <ConfClashScore>
0 

> <ConfOneFourInteractionScore>
-0.983503 

> <ConfScore>
0.0356608 

> <ConfScorePBest>
0.00322004 

> <ConfTolerance>
0.490049 

> <HETNAM>
     OWQ A 303  OWQ                                                       

> <pdb_OW>
Q_303 -16.5129 3.80749 7.62812 0.15963 1.39178 -0.28144 -3.20151 0 0 0 -1.30514 0 0 0 0 0 0 0 0 -8.31393

$$$$
6yky_lig_1.pdb
 OpenBabel04162415593D

 49 53  0  0  0  0  0  0  0  0999 V2000
   25.1047    1.8134  -65.3759 C   0  0  0  1  0  0  0  0  0  0  0  0
   26.9167    0.5034  -65.9326 C   0  0  0  1  0  0  0  0  0  0  0  0
   25.4178    1.8282  -64.0982 N   0  0  0  1  0  0  0  0  0  0  0  0
   26.6376    1.3733  -61.1360 C   0  0  0  1  0  0  0  0  0  0  0  0
   25.5946    0.6523  -60.5858 C   0  0  0  1  0  0  0  0  0  0  0  0
   26.6280    2.8392  -59.2392 C   0  0  0  1  0  0  0  0  0  0  0  0
   27.1533    2.4699  -60.4630 C   0  0  0  1  0  0  0  0  0  0  0  0
   25.5820    2.1162  -58.6871 C   0  0  0  1  0  0  0  0  0  0  0  0
   25.0679    1.0229  -59.3583 C   0  0  0  1  0  0  0  0  0  0  0  0
   23.4639    2.5043  -67.1412 C   0  0  0  1  0  0  0  0  0  0  0  0
   24.4909    3.0822  -68.1402 C   0  0  0  1  0  0  0  0  0  0  0  0
   23.7423    3.9805  -69.0923 C   0  0  0  1  0  0  0  0  0  0  0  0
   21.3869    5.0164  -68.7996 C   0  0  0  1  0  0  0  0  0  0  0  0
   25.8296    1.1706  -66.2747 N   0  0  0  1  0  0  0  0  0  0  0  0
   27.2965    0.4857  -64.5857 C   0  0  0  1  0  0  0  0  0  0  0  0
   26.4936    1.1850  -63.6614 C   0  0  0  1  0  0  0  0  0  0  0  0
   27.0809    1.0060  -62.4394 N   0  0  0  1  0  0  0  0  0  0  0  0
   28.3158   -0.0766  -63.9005 N   0  0  0  1  0  0  0  0  0  0  0  0
   28.2164    0.2092  -62.6490 N   0  0  0  1  0  0  0  0  0  0  0  0
   25.1261    2.4207  -57.4488 O   0  0  0  1  0  0  0  0  0  0  0  0
   24.0074    2.4760  -65.7836 N   0  0  0  1  0  0  0  0  0  0  0  0
   25.6970    3.5753  -56.8025 C   0  0  0  1  0  0  0  0  0  0  0  0
   22.4073    4.1696  -68.3393 N   0  0  0  1  0  0  0  0  0  0  0  0
   22.3093    3.4809  -67.2475 C   0  0  0  1  0  0  0  0  0  0  0  0
   20.4638    4.5037  -69.6922 C   0  0  0  1  0  0  0  0  0  0  0  0
   19.4524    5.3273  -70.1488 C   0  0  0  1  0  0  0  0  0  0  0  0
   19.3185    6.6033  -69.7744 N   0  0  0  1  0  0  0  0  0  0  0  0
   20.2230    7.0885  -68.9121 C   0  0  0  1  0  0  0  0  0  0  0  0
   21.2647    6.3335  -68.4020 C   0  0  0  1  0  0  0  0  0  0  0  0
   27.4789    0.0014  -66.6491 H   0  0  0  1  0  0  0  0  0  0  0  0
   25.2051   -0.1680  -61.0926 H   0  0  0  1  0  0  0  0  0  0  0  0
   27.0176    3.6595  -58.7323 H   0  0  0  1  0  0  0  0  0  0  0  0
   27.9354    3.0147  -60.8791 H   0  0  0  1  0  0  0  0  0  0  0  0
   24.2857    0.4780  -58.9423 H   0  0  0  1  0  0  0  0  0  0  0  0
   23.1621    1.5179  -67.4257 H   0  0  0  1  0  0  0  0  0  0  0  0
   24.9610    2.2877  -68.6812 H   0  0  0  1  0  0  0  0  0  0  0  0
   25.2340    3.6453  -67.6151 H   0  0  0  1  0  0  0  0  0  0  0  0
   24.2490    4.9125  -69.2322 H   0  0  0  1  0  0  0  0  0  0  0  0
   23.5937    3.5089  -70.0412 H   0  0  0  1  0  0  0  0  0  0  0  0
   23.5243    2.9908  -65.1039 H   0  0  0  1  0  0  0  0  0  0  0  0
   25.4278    4.4577  -57.3445 H   0  0  0  1  0  0  0  0  0  0  0  0
   26.7627    3.4813  -56.7813 H   0  0  0  1  0  0  0  0  0  0  0  0
   25.3246    3.6441  -55.8018 H   0  0  0  1  0  0  0  0  0  0  0  0
   21.3869    2.9388  -67.2529 H   0  0  0  1  0  0  0  0  0  0  0  0
   22.3289    4.1442  -66.4081 H   0  0  0  1  0  0  0  0  0  0  0  0
   20.5293    3.5169  -70.0138 H   0  0  0  1  0  0  0  0  0  0  0  0
   18.7603    4.9341  -70.8181 H   0  0  0  1  0  0  0  0  0  0  0  0
   20.1376    8.0806  -68.6117 H   0  0  0  1  0  0  0  0  0  0  0  0
   21.9424    6.7499  -67.7321 H   0  0  0  1  0  0  0  0  0  0  0  0
  1  3  4  0  0  0  0
  1 14  4  0  0  0  0
  1 21  1  0  0  0  0
  2 14  4  0  0  0  0
  2 15  4  0  0  0  0
  2 30  1  0  0  0  0
  3 16  4  0  0  0  0
  4  5  4  0  0  0  0
  4  7  4  0  0  0  0
  4 17  1  0  0  0  0
  5  9  4  0  0  0  0
  5 31  1  0  0  0  0
  6  7  4  0  0  0  0
  6  8  4  0  0  0  0
  6 32  1  0  0  0  0
  7 33  1  0  0  0  0
  8  9  4  0  0  0  0
  8 20  1  0  0  0  0
  9 34  1  0  0  0  0
 10 11  1  0  0  0  0
 10 21  1  0  0  0  0
 10 24  1  0  0  0  0
 10 35  1  0  0  0  0
 11 12  1  0  0  0  0
 11 36  1  0  0  0  0
 11 37  1  0  0  0  0
 12 23  1  0  0  0  0
 12 38  1  0  0  0  0
 12 39  1  0  0  0  0
 13 23  1  0  0  0  0
 13 25  4  0  0  0  0
 13 29  4  0  0  0  0
 15 16  4  0  0  0  0
 15 18  4  0  0  0  0
 16 17  4  0  0  0  0
 17 19  4  0  0  0  0
 18 19  4  0  0  0  0
 20 22  1  0  0  0  0
 21 40  1  0  0  0  0
 22 41  1  0  0  0  0
 22 42  1  0  0  0  0
 22 43  1  0  0  0  0
 23 24  1  0  0  0  0
 24 44  1  0  0  0  0
 24 45  1  0  0  0  0
 25 26  4  0  0  0  0
 25 46  1  0  0  0  0
 26 27  4  0  0  0  0
 26 47  1  0  0  0  0
 27 28  4  0  0  0  0
 28 29  4  0  0  0  0
 28 48  1  0  0  0  0
 29 49  1  0  0  0  0
M  END
> <ConfClashScore>
0 

> <ConfOneFourInteractionScore>
-0.987833 

> <ConfScore>
0.0359143 

> <ConfScorePBest>
0.00320672 

> <ConfTolerance>
0.474715 

> <HETNAM>
     OWQ A 303  OWQ                                                       

> <pdb_OW>
Q_303 -16.5129 3.80749 7.62812 0.15963 1.39178 -0.28144 -3.20151 0 0 0 -1.30514 0 0 0 0 0 0 0 0 -8.31393

$$$$
6yky_lig_1.pdb
 OpenBabel04162415593D

 49 53  0  0  0  0  0  0  0  0999 V2000
   25.1048    1.8135  -65.3759 C   0  0  0  1  0  0  0  0  0  0  0  0
   26.9167    0.5034  -65.9326 C   0  0  0  1  0  0  0  0  0  0  0  0
   25.4178    1.8284  -64.0982 N   0  0  0  1  0  0  0  0  0  0  0  0
   26.7287    1.4699  -61.1390 C   0  0  0  1  0  0  0  0  0  0  0  0
   25.4416    1.2943  -60.6669 C   0  0  0  1  0  0  0  0  0  0  0  0
   27.2876    2.7054  -59.1621 C   0  0  0  1  0  0  0  0  0  0  0  0
   27.6524    2.1787  -60.3869 C   0  0  0  1  0  0  0  0  0  0  0  0
   25.9969    2.5293  -58.6884 C   0  0  0  1  0  0  0  0  0  0  0  0
   25.0760    1.8225  -59.4386 C   0  0  0  1  0  0  0  0  0  0  0  0
   23.0198    3.0403  -64.8802 C   0  0  0  1  0  0  0  0  0  0  0  0
   21.6799    3.2191  -65.5778 C   0  0  0  1  0  0  0  0  0  0  0  0
   20.9718    4.2982  -64.7563 C   0  0  0  1  0  0  0  0  0  0  0  0
   21.9214    6.2867  -63.4280 C   0  0  0  1  0  0  0  0  0  0  0  0
   25.8297    1.1707  -66.2747 N   0  0  0  1  0  0  0  0  0  0  0  0
   27.2965    0.4857  -64.5857 C   0  0  0  1  0  0  0  0  0  0  0  0
   26.4936    1.1851  -63.6614 C   0  0  0  1  0  0  0  0  0  0  0  0
   27.0809    1.0061  -62.4395 N   0  0  0  1  0  0  0  0  0  0  0  0
   28.3159   -0.0766  -63.9004 N   0  0  0  1  0  0  0  0  0  0  0  0
   28.2164    0.2093  -62.6490 N   0  0  0  1  0  0  0  0  0  0  0  0
   25.6979    3.0831  -57.4656 O   0  0  0  1  0  0  0  0  0  0  0  0
   24.0074    2.4762  -65.7837 N   0  0  0  1  0  0  0  0  0  0  0  0
   24.3171    2.9027  -57.0921 C   0  0  0  1  0  0  0  0  0  0  0  0
   22.0870    5.0711  -64.1872 N   0  0  0  1  0  0  0  0  0  0  0  0
   23.3901    4.4584  -64.4836 C   0  0  0  1  0  0  0  0  0  0  0  0
   23.0070    6.8945  -62.8250 C   0  0  0  1  0  0  0  0  0  0  0  0
   22.8041    8.0598  -62.1105 C   0  0  0  1  0  0  0  0  0  0  0  0
   21.6062    8.6346  -61.9667 N   0  0  0  1  0  0  0  0  0  0  0  0
   20.5618    8.0322  -62.5530 C   0  0  0  1  0  0  0  0  0  0  0  0
   20.6753    6.8660  -63.2895 C   0  0  0  1  0  0  0  0  0  0  0  0
   27.4789    0.0014  -66.6492 H   0  0  0  1  0  0  0  0  0  0  0  0
   24.7475    0.7658  -61.2331 H   0  0  0  1  0  0  0  0  0  0  0  0
   27.9818    3.2338  -58.5959 H   0  0  0  1  0  0  0  0  0  0  0  0
   28.6196    2.3143  -60.7441 H   0  0  0  1  0  0  0  0  0  0  0  0
   24.1087    1.6869  -59.0814 H   0  0  0  1  0  0  0  0  0  0  0  0
   22.9240    2.4128  -64.0188 H   0  0  0  1  0  0  0  0  0  0  0  0
   21.8183    3.5414  -66.5886 H   0  0  0  1  0  0  0  0  0  0  0  0
   21.1216    2.3064  -65.5672 H   0  0  0  1  0  0  0  0  0  0  0  0
   20.3737    3.8619  -63.9837 H   0  0  0  1  0  0  0  0  0  0  0  0
   20.3570    4.9135  -65.3795 H   0  0  0  1  0  0  0  0  0  0  0  0
   23.8660    2.5849  -66.7473 H   0  0  0  1  0  0  0  0  0  0  0  0
   23.7054    2.9132  -57.9699 H   0  0  0  1  0  0  0  0  0  0  0  0
   24.0177    3.6961  -56.4396 H   0  0  0  1  0  0  0  0  0  0  0  0
   24.2034    1.9648  -56.5896 H   0  0  0  1  0  0  0  0  0  0  0  0
   23.8797    4.9667  -65.2877 H   0  0  0  1  0  0  0  0  0  0  0  0
   24.0222    4.4632  -63.6204 H   0  0  0  1  0  0  0  0  0  0  0  0
   23.9583    6.4824  -62.9075 H   0  0  0  1  0  0  0  0  0  0  0  0
   23.6258    8.5127  -61.6617 H   0  0  0  1  0  0  0  0  0  0  0  0
   19.6205    8.4623  -62.4493 H   0  0  0  1  0  0  0  0  0  0  0  0
   19.8381    6.4342  -63.7303 H   0  0  0  1  0  0  0  0  0  0  0  0
  1  3  4  0  0  0  0
  1 14  4  0  0  0  0
  1 21  1  0  0  0  0
  2 14  4  0  0  0  0
  2 15  4  0  0  0  0
  2 30  1  0  0  0  0
  3 16  4  0  0  0  0
  4  5  4  0  0  0  0
  4  7  4  0  0  0  0
  4 17  1  0  0  0  0
  5  9  4  0  0  0  0
  5 31  1  0  0  0  0
  6  7  4  0  0  0  0
  6  8  4  0  0  0  0
  6 32  1  0  0  0  0
  7 33  1  0  0  0  0
  8  9  4  0  0  0  0
  8 20  1  0  0  0  0
  9 34  1  0  0  0  0
 10 11  1  0  0  0  0
 10 21  1  0  0  0  0
 10 24  1  0  0  0  0
 10 35  1  0  0  0  0
 11 12  1  0  0  0  0
 11 36  1  0  0  0  0
 11 37  1  0  0  0  0
 12 23  1  0  0  0  0
 12 38  1  0  0  0  0
 12 39  1  0  0  0  0
 13 23  1  0  0  0  0
 13 25  4  0  0  0  0
 13 29  4  0  0  0  0
 15 16  4  0  0  0  0
 15 18  4  0  0  0  0
 16 17  4  0  0  0  0
 17 19  4  0  0  0  0
 18 19  4  0  0  0  0
 20 22  1  0  0  0  0
 21 40  1  0  0  0  0
 22 41  1  0  0  0  0
 22 42  1  0  0  0  0
 22 43  1  0  0  0  0
 23 24  1  0  0  0  0
 24 44  1  0  0  0  0
 24 45  1  0  0  0  0
 25 26  4  0  0  0  0
 25 46  1  0  0  0  0
 26 27  4  0  0  0  0
 26 47  1  0  0  0  0
 27 28  4  0  0  0  0
 28 29  4  0  0  0  0
 28 48  1  0  0  0  0
 29 49  1  0  0  0  0
M  END
> <ConfClashScore>
0 

> <ConfOneFourInteractionScore>
-0.984874 

> <ConfScore>
0.0361157 

> <ConfScorePBest>
0.00319339 

> <ConfTolerance>
0.487498 

> <HETNAM>
     OWQ A 303  OWQ                                                       

> <pdb_OW>
Q_303 -16.5129 3.80749 7.62812 0.15963 1.39178 -0.28144 -3.20151 0 0 0 -1.30514 0 0 0 0 0 0 0 0 -8.31393

$$$$
6yky_lig_1.pdb
 OpenBabel04162415593D

 49 53  0  0  0  0  0  0  0  0999 V2000
   25.1047    1.8135  -65.3760 C   0  0  0  1  0  0  0  0  0  0  0  0
   26.9167    0.5034  -65.9326 C   0  0  0  1  0  0  0  0  0  0  0  0
   25.4177    1.8283  -64.0982 N   0  0  0  1  0  0  0  0  0  0  0  0
   26.6375    1.3733  -61.1361 C   0  0  0  1  0  0  0  0  0  0  0  0
   27.2680    0.8573  -60.0197 C   0  0  0  1  0  0  0  0  0  0  0  0
   25.0309    2.4616  -59.7283 C   0  0  0  1  0  0  0  0  0  0  0  0
   25.5157    2.1745  -60.9905 C   0  0  0  1  0  0  0  0  0  0  0  0
   25.6632    1.9441  -58.6085 C   0  0  0  1  0  0  0  0  0  0  0  0
   26.7817    1.1453  -58.7541 C   0  0  0  1  0  0  0  0  0  0  0  0
   23.0528    3.0945  -64.8806 C   0  0  0  1  0  0  0  0  0  0  0  0
   21.7672    2.2594  -64.7704 C   0  0  0  1  0  0  0  0  0  0  0  0
   20.7481    3.3149  -64.3143 C   0  0  0  1  0  0  0  0  0  0  0  0
   21.1306    5.8137  -63.8343 C   0  0  0  1  0  0  0  0  0  0  0  0
   25.8296    1.1707  -66.2747 N   0  0  0  1  0  0  0  0  0  0  0  0
   27.2965    0.4857  -64.5857 C   0  0  0  1  0  0  0  0  0  0  0  0
   26.4936    1.1852  -63.6614 C   0  0  0  1  0  0  0  0  0  0  0  0
   27.0808    1.0061  -62.4395 N   0  0  0  1  0  0  0  0  0  0  0  0
   28.3159   -0.0766  -63.9004 N   0  0  0  1  0  0  0  0  0  0  0  0
   28.2164    0.2092  -62.6490 N   0  0  0  1  0  0  0  0  0  0  0  0
   25.0958    2.2887  -57.4282 O   0  0  0  1  0  0  0  0  0  0  0  0
   24.0074    2.4762  -65.7838 N   0  0  0  1  0  0  0  0  0  0  0  0
   25.8089    1.9410  -56.2311 C   0  0  0  1  0  0  0  0  0  0  0  0
   21.4440    4.6273  -64.4718 N   0  0  0  1  0  0  0  0  0  0  0  0
   22.5317    4.4054  -65.4425 C   0  0  0  1  0  0  0  0  0  0  0  0
   20.1247    6.6585  -64.2659 C   0  0  0  1  0  0  0  0  0  0  0  0
   19.8842    7.8213  -63.5590 C   0  0  0  1  0  0  0  0  0  0  0  0
   20.5782    8.1785  -62.4741 N   0  0  0  1  0  0  0  0  0  0  0  0
   21.5534    7.3524  -62.0693 C   0  0  0  1  0  0  0  0  0  0  0  0
   21.8590    6.1671  -62.7152 C   0  0  0  1  0  0  0  0  0  0  0  0
   27.4789    0.0015  -66.6492 H   0  0  0  1  0  0  0  0  0  0  0  0
   28.1072    0.2529  -60.1293 H   0  0  0  1  0  0  0  0  0  0  0  0
   24.1917    3.0661  -59.6188 H   0  0  0  1  0  0  0  0  0  0  0  0
   25.0389    2.5595  -61.8307 H   0  0  0  1  0  0  0  0  0  0  0  0
   27.2586    0.7603  -57.9138 H   0  0  0  1  0  0  0  0  0  0  0  0
   23.5075    3.2359  -63.9225 H   0  0  0  1  0  0  0  0  0  0  0  0
   21.4946    1.8368  -65.7149 H   0  0  0  1  0  0  0  0  0  0  0  0
   21.8704    1.4786  -64.0462 H   0  0  0  1  0  0  0  0  0  0  0  0
   20.4756    3.1556  -63.2919 H   0  0  0  1  0  0  0  0  0  0  0  0
   19.8718    3.2794  -64.9273 H   0  0  0  1  0  0  0  0  0  0  0  0
   23.8424    2.5458  -66.7472 H   0  0  0  1  0  0  0  0  0  0  0  0
   26.1236    0.9198  -56.2866 H   0  0  0  1  0  0  0  0  0  0  0  0
   25.1681    2.0710  -55.3841 H   0  0  0  1  0  0  0  0  0  0  0  0
   26.6664    2.5731  -56.1306 H   0  0  0  1  0  0  0  0  0  0  0  0
   22.1669    4.3008  -66.4428 H   0  0  0  1  0  0  0  0  0  0  0  0
   23.2680    5.1811  -65.4101 H   0  0  0  1  0  0  0  0  0  0  0  0
   19.5597    6.4232  -65.1067 H   0  0  0  1  0  0  0  0  0  0  0  0
   19.1244    8.4505  -63.8880 H   0  0  0  1  0  0  0  0  0  0  0  0
   22.1073    7.6150  -61.2292 H   0  0  0  1  0  0  0  0  0  0  0  0
   22.6225    5.5542  -62.3645 H   0  0  0  1  0  0  0  0  0  0  0  0
  1  3  4  0  0  0  0
  1 14  4  0  0  0  0
  1 21  1  0  0  0  0
  2 14  4  0  0  0  0
  2 15  4  0  0  0  0
  2 30  1  0  0  0  0
  3 16  4  0  0  0  0
  4  5  4  0  0  0  0
  4  7  4  0  0  0  0
  4 17  1  0  0  0  0
  5  9  4  0  0  0  0
  5 31  1  0  0  0  0
  6  7  4  0  0  0  0
  6  8  4  0  0  0  0
  6 32  1  0  0  0  0
  7 33  1  0  0  0  0
  8  9  4  0  0  0  0
  8 20  1  0  0  0  0
  9 34  1  0  0  0  0
 10 11  1  0  0  0  0
 10 21  1  0  0  0  0
 10 24  1  0  0  0  0
 10 35  1  0  0  0  0
 11 12  1  0  0  0  0
 11 36  1  0  0  0  0
 11 37  1  0  0  0  0
 12 23  1  0  0  0  0
 12 38  1  0  0  0  0
 12 39  1  0  0  0  0
 13 23  1  0  0  0  0
 13 25  4  0  0  0  0
 13 29  4  0  0  0  0
 15 16  4  0  0  0  0
 15 18  4  0  0  0  0
 16 17  4  0  0  0  0
 17 19  4  0  0  0  0
 18 19  4  0  0  0  0
 20 22  1  0  0  0  0
 21 40  1  0  0  0  0
 22 41  1  0  0  0  0
 22 42  1  0  0  0  0
 22 43  1  0  0  0  0
 23 24  1  0  0  0  0
 24 44  1  0  0  0  0
 24 45  1  0  0  0  0
 25 26  4  0  0  0  0
 25 46  1  0  0  0  0
 26 27  4  0  0  0  0
 26 47  1  0  0  0  0
 27 28  4  0  0  0  0
 28 29  4  0  0  0  0
 28 48  1  0  0  0  0
 29 49  1  0  0  0  0
M  END
> <ConfClashScore>
0 

> <ConfOneFourInteractionScore>
-0.986948 

> <ConfScore>
0.0387608 

> <ConfScorePBest>
0.00318006 

> <ConfTolerance>
0.499132 

> <HETNAM>
     OWQ A 303  OWQ                                                       

> <pdb_OW>
Q_303 -16.5129 3.80749 7.62812 0.15963 1.39178 -0.28144 -3.20151 0 0 0 -1.30514 0 0 0 0 0 0 0 0 -8.31393

$$$$
6yky_lig_1.pdb
 OpenBabel04162415593D

 49 53  0  0  0  0  0  0  0  0999 V2000
   25.1048    1.8136  -65.3760 C   0  0  0  1  0  0  0  0  0  0  0  0
   26.9167    0.5034  -65.9326 C   0  0  0  1  0  0  0  0  0  0  0  0
   25.4179    1.8285  -64.0982 N   0  0  0  1  0  0  0  0  0  0  0  0
   26.6711    1.3257  -61.1128 C   0  0  0  1  0  0  0  0  0  0  0  0
   26.3020    2.6192  -60.7952 C   0  0  0  1  0  0  0  0  0  0  0  0
   26.4187    0.6873  -58.8159 C   0  0  0  1  0  0  0  0  0  0  0  0
   26.7322    0.3589  -60.1213 C   0  0  0  1  0  0  0  0  0  0  0  0
   26.0485    1.9846  -58.4971 C   0  0  0  1  0  0  0  0  0  0  0  0
   25.9876    2.9484  -59.4860 C   0  0  0  1  0  0  0  0  0  0  0  0
   23.1731    3.3093  -64.8639 C   0  0  0  1  0  0  0  0  0  0  0  0
   21.8435    2.5961  -64.4928 C   0  0  0  1  0  0  0  0  0  0  0  0
   20.7908    3.6908  -64.2194 C   0  0  0  1  0  0  0  0  0  0  0  0
   20.8822    6.2085  -64.7360 C   0  0  0  1  0  0  0  0  0  0  0  0
   25.8297    1.1708  -66.2748 N   0  0  0  1  0  0  0  0  0  0  0  0
   27.2965    0.4857  -64.5857 C   0  0  0  1  0  0  0  0  0  0  0  0
   26.4937    1.1852  -63.6614 C   0  0  0  1  0  0  0  0  0  0  0  0
   27.0810    1.0061  -62.4396 N   0  0  0  1  0  0  0  0  0  0  0  0
   28.3159   -0.0766  -63.9004 N   0  0  0  1  0  0  0  0  0  0  0  0
   28.2164    0.2092  -62.6490 N   0  0  0  1  0  0  0  0  0  0  0  0
   25.6545    2.2874  -57.2374 O   0  0  0  1  0  0  0  0  0  0  0  0
   24.0053    2.4867  -65.7332 N   0  0  0  1  0  0  0  0  0  0  0  0
   25.0698    3.5821  -57.0261 C   0  0  0  1  0  0  0  0  0  0  0  0
   21.3994    4.8968  -64.8488 N   0  0  0  1  0  0  0  0  0  0  0  0
   22.6114    4.5387  -65.6037 C   0  0  0  1  0  0  0  0  0  0  0  0
   21.7331    7.2136  -64.3147 C   0  0  0  1  0  0  0  0  0  0  0  0
   21.2396    8.4996  -64.2046 C   0  0  0  1  0  0  0  0  0  0  0  0
   19.9740    8.8274  -64.4825 N   0  0  0  1  0  0  0  0  0  0  0  0
   19.1590    7.8422  -64.8857 C   0  0  0  1  0  0  0  0  0  0  0  0
   19.5705    6.5285  -65.0269 C   0  0  0  1  0  0  0  0  0  0  0  0
   27.4789    0.0013  -66.6492 H   0  0  0  1  0  0  0  0  0  0  0  0
   26.2600    3.3454  -61.5385 H   0  0  0  1  0  0  0  0  0  0  0  0
   26.4607   -0.0389  -58.0726 H   0  0  0  1  0  0  0  0  0  0  0  0
   27.0139   -0.6134  -60.3597 H   0  0  0  1  0  0  0  0  0  0  0  0
   25.7059    3.9208  -59.2476 H   0  0  0  1  0  0  0  0  0  0  0  0
   23.7313    3.5883  -63.9948 H   0  0  0  1  0  0  0  0  0  0  0  0
   21.5230    1.9758  -65.3037 H   0  0  0  1  0  0  0  0  0  0  0  0
   21.9825    1.9965  -63.6176 H   0  0  0  1  0  0  0  0  0  0  0  0
   20.6482    3.8347  -63.1688 H   0  0  0  1  0  0  0  0  0  0  0  0
   19.8545    3.4482  -64.6769 H   0  0  0  1  0  0  0  0  0  0  0  0
   23.7325    2.4203  -66.6721 H   0  0  0  1  0  0  0  0  0  0  0  0
   24.5316    3.8783  -57.9022 H   0  0  0  1  0  0  0  0  0  0  0  0
   25.8431    4.2938  -56.8252 H   0  0  0  1  0  0  0  0  0  0  0  0
   24.3993    3.5388  -56.1935 H   0  0  0  1  0  0  0  0  0  0  0  0
   23.3168    5.3432  -65.5913 H   0  0  0  1  0  0  0  0  0  0  0  0
   22.3679    4.2928  -66.6163 H   0  0  0  1  0  0  0  0  0  0  0  0
   22.7258    7.0056  -64.0849 H   0  0  0  1  0  0  0  0  0  0  0  0
   21.8859    9.2509  -63.8896 H   0  0  0  1  0  0  0  0  0  0  0  0
   18.1694    8.0767  -65.1031 H   0  0  0  1  0  0  0  0  0  0  0  0
   18.9047    5.7960  -65.3460 H   0  0  0  1  0  0  0  0  0  0  0  0
  1  3  4  0  0  0  0
  1 14  4  0  0  0  0
  1 21  1  0  0  0  0
  2 14  4  0  0  0  0
  2 15  4  0  0  0  0
  2 30  1  0  0  0  0
  3 16  4  0  0  0  0
  4  5  4  0  0  0  0
  4  7  4  0  0  0  0
  4 17  1  0  0  0  0
  5  9  4  0  0  0  0
  5 31  1  0  0  0  0
  6  7  4  0  0  0  0
  6  8  4  0  0  0  0
  6 32  1  0  0  0  0
  7 33  1  0  0  0  0
  8  9  4  0  0  0  0
  8 20  1  0  0  0  0
  9 34  1  0  0  0  0
 10 11  1  0  0  0  0
 10 21  1  0  0  0  0
 10 24  1  0  0  0  0
 10 35  1  0  0  0  0
 11 12  1  0  0  0  0
 11 36  1  0  0  0  0
 11 37  1  0  0  0  0
 12 23  1  0  0  0  0
 12 38  1  0  0  0  0
 12 39  1  0  0  0  0
 13 23  1  0  0  0  0
 13 25  4  0  0  0  0
 13 29  4  0  0  0  0
 15 16  4  0  0  0  0
 15 18  4  0  0  0  0
 16 17  4  0  0  0  0
 17 19  4  0  0  0  0
 18 19  4  0  0  0  0
 20 22  1  0  0  0  0
 21 40  1  0  0  0  0
 22 41  1  0  0  0  0
 22 42  1  0  0  0  0
 22 43  1  0  0  0  0
 23 24  1  0  0  0  0
 24 44  1  0  0  0  0
 24 45  1  0  0  0  0
 25 26  4  0  0  0  0
 25 46  1  0  0  0  0
 26 27  4  0  0  0  0
 26 47  1  0  0  0  0
 27 28  4  0  0  0  0
 28 29  4  0  0  0  0
 28 48  1  0  0  0  0
 29 49  1  0  0  0  0
M  END
> <ConfClashScore>
0 

> <ConfOneFourInteractionScore>
-0.986948 

> <ConfScore>
0.0399261 

> <ConfScorePBest>
0.00316673 

> <ConfTolerance>
0.483531 

> <HETNAM>
     OWQ A 303  OWQ                                                       

> <pdb_OW>
Q_303 -16.5129 3.80749 7.62812 0.15963 1.39178 -0.28144 -3.20151 0 0 0 -1.30514 0 0 0 0 0 0 0 0 -8.31393

$$$$
6yky_lig_1.pdb
 OpenBabel04162415593D

 49 53  0  0  0  0  0  0  0  0999 V2000
   25.1049    1.8137  -65.3760 C   0  0  0  1  0  0  0  0  0  0  0  0
   26.9167    0.5034  -65.9326 C   0  0  0  1  0  0  0  0  0  0  0  0
   25.4179    1.8286  -64.0983 N   0  0  0  1  0  0  0  0  0  0  0  0
   26.7670    1.4474  -61.1215 C   0  0  0  1  0  0  0  0  0  0  0  0
   27.6545    1.1314  -60.1102 C   0  0  0  1  0  0  0  0  0  0  0  0
   25.2767    2.4176  -59.5137 C   0  0  0  1  0  0  0  0  0  0  0  0
   25.5752    2.0891  -60.8226 C   0  0  0  1  0  0  0  0  0  0  0  0
   26.1667    2.1006  -58.4993 C   0  0  0  1  0  0  0  0  0  0  0  0
   27.3550    1.4609  -58.7976 C   0  0  0  1  0  0  0  0  0  0  0  0
   23.5096    2.5974  -67.1060 C   0  0  0  1  0  0  0  0  0  0  0  0
   23.4042    1.2031  -67.7630 C   0  0  0  1  0  0  0  0  0  0  0  0
   23.9019    1.3304  -69.1808 C   0  0  0  1  0  0  0  0  0  0  0  0
   25.3196    3.2047  -70.1746 C   0  0  0  1  0  0  0  0  0  0  0  0
   25.8297    1.1707  -66.2747 N   0  0  0  1  0  0  0  0  0  0  0  0
   27.2965    0.4858  -64.5857 C   0  0  0  1  0  0  0  0  0  0  0  0
   26.4938    1.1852  -63.6614 C   0  0  0  1  0  0  0  0  0  0  0  0
   27.0810    1.0063  -62.4395 N   0  0  0  1  0  0  0  0  0  0  0  0
   28.3158   -0.0766  -63.9005 N   0  0  0  1  0  0  0  0  0  0  0  0
   28.2164    0.2092  -62.6490 N   0  0  0  1  0  0  0  0  0  0  0  0
   25.9824    2.3651  -57.1911 O   0  0  0  1  0  0  0  0  0  0  0  0
   23.9890    2.4969  -65.7385 N   0  0  0  1  0  0  0  0  0  0  0  0
   24.8074    3.1513  -56.8852 C   0  0  0  1  0  0  0  0  0  0  0  0
   24.6267    2.6928  -69.1229 N   0  0  0  1  0  0  0  0  0  0  0  0
   24.5185    3.3062  -67.9881 C   0  0  0  1  0  0  0  0  0  0  0  0
   26.6801    2.9592  -70.1828 C   0  0  0  1  0  0  0  0  0  0  0  0
   27.4379    3.4509  -71.2287 C   0  0  0  1  0  0  0  0  0  0  0  0
   26.9240    4.1588  -72.2391 N   0  0  0  1  0  0  0  0  0  0  0  0
   25.6042    4.3930  -72.2161 C   0  0  0  1  0  0  0  0  0  0  0  0
   24.7710    3.9354  -71.2103 C   0  0  0  1  0  0  0  0  0  0  0  0
   27.4788    0.0014  -66.6492 H   0  0  0  1  0  0  0  0  0  0  0  0
   28.5469    0.6465  -60.3341 H   0  0  0  1  0  0  0  0  0  0  0  0
   24.3844    2.9025  -59.2898 H   0  0  0  1  0  0  0  0  0  0  0  0
   24.9057    2.3232  -61.5833 H   0  0  0  1  0  0  0  0  0  0  0  0
   28.0246    1.2267  -58.0370 H   0  0  0  1  0  0  0  0  0  0  0  0
   22.5658    3.1015  -67.1176 H   0  0  0  1  0  0  0  0  0  0  0  0
   22.3857    0.8750  -67.7618 H   0  0  0  1  0  0  0  0  0  0  0  0
   24.0066    0.5002  -67.2264 H   0  0  0  1  0  0  0  0  0  0  0  0
   23.0925    1.3463  -69.8804 H   0  0  0  1  0  0  0  0  0  0  0  0
   24.5759    0.5383  -69.4322 H   0  0  0  1  0  0  0  0  0  0  0  0
   23.4766    2.9490  -65.0360 H   0  0  0  1  0  0  0  0  0  0  0  0
   23.9312    2.6162  -57.1865 H   0  0  0  1  0  0  0  0  0  0  0  0
   24.8546    4.0822  -57.4107 H   0  0  0  1  0  0  0  0  0  0  0  0
   24.7670    3.3371  -55.8323 H   0  0  0  1  0  0  0  0  0  0  0  0
   25.4703    3.3160  -67.4993 H   0  0  0  1  0  0  0  0  0  0  0  0
   24.1942    4.3115  -68.1589 H   0  0  0  1  0  0  0  0  0  0  0  0
   27.1250    2.4148  -69.4164 H   0  0  0  1  0  0  0  0  0  0  0  0
   28.4602    3.2602  -71.2296 H   0  0  0  1  0  0  0  0  0  0  0  0
   25.1863    4.9455  -72.9918 H   0  0  0  1  0  0  0  0  0  0  0  0
   23.7512    4.1379  -71.2340 H   0  0  0  1  0  0  0  0  0  0  0  0
  1  3  4  0  0  0  0
  1 14  4  0  0  0  0
  1 21  1  0  0  0  0
  2 14  4  0  0  0  0
  2 15  4  0  0  0  0
  2 30  1  0  0  0  0
  3 16  4  0  0  0  0
  4  5  4  0  0  0  0
  4  7  4  0  0  0  0
  4 17  1  0  0  0  0
  5  9  4  0  0  0  0
  5 31  1  0  0  0  0
  6  7  4  0  0  0  0
  6  8  4  0  0  0  0
  6 32  1  0  0  0  0
  7 33  1  0  0  0  0
  8  9  4  0  0  0  0
  8 20  1  0  0  0  0
  9 34  1  0  0  0  0
 10 11  1  0  0  0  0
 10 21  1  0  0  0  0
 10 24  1  0  0  0  0
 10 35  1  0  0  0  0
 11 12  1  0  0  0  0
 11 36  1  0  0  0  0
 11 37  1  0  0  0  0
 12 23  1  0  0  0  0
 12 38  1  0  0  0  0
 12 39  1  0  0  0  0
 13 23  1  0  0  0  0
 13 25  4  0  0  0  0
 13 29  4  0  0  0  0
 15 16  4  0  0  0  0
 15 18  4  0  0  0  0
 16 17  4  0  0  0  0
 17 19  4  0  0  0  0
 18 19  4  0  0  0  0
 20 22  1  0  0  0  0
 21 40  1  0  0  0  0
 22 41  1  0  0  0  0
 22 42  1  0  0  0  0
 22 43  1  0  0  0  0
 23 24  1  0  0  0  0
 24 44  1  0  0  0  0
 24 45  1  0  0  0  0
 25 26  4  0  0  0  0
 25 46  1  0  0  0  0
 26 27  4  0  0  0  0
 26 47  1  0  0  0  0
 27 28  4  0  0  0  0
 28 29  4  0  0  0  0
 28 48  1  0  0  0  0
 29 49  1  0  0  0  0
M  END
> <ConfClashScore>
0 

> <ConfOneFourInteractionScore>
-0.983503 

> <ConfScore>
0.0406072 

> <ConfScorePBest>
0.0031534 

> <ConfTolerance>
0.376205 

> <HETNAM>
     OWQ A 303  OWQ                                                       

> <pdb_OW>
Q_303 -16.5129 3.80749 7.62812 0.15963 1.39178 -0.28144 -3.20151 0 0 0 -1.30514 0 0 0 0 0 0 0 0 -8.31393

$$$$
6yky_lig_1.pdb
 OpenBabel04162415593D

 49 53  0  0  0  0  0  0  0  0999 V2000
   25.1047    1.8134  -65.3759 C   0  0  0  1  0  0  0  0  0  0  0  0
   26.9167    0.5034  -65.9326 C   0  0  0  1  0  0  0  0  0  0  0  0
   25.4177    1.8282  -64.0981 N   0  0  0  1  0  0  0  0  0  0  0  0
   26.8116    1.5871  -61.1666 C   0  0  0  1  0  0  0  0  0  0  0  0
   26.1014    2.7698  -61.0821 C   0  0  0  1  0  0  0  0  0  0  0  0
   27.1566    1.6221  -58.7944 C   0  0  0  1  0  0  0  0  0  0  0  0
   27.3422    1.0137  -60.0215 C   0  0  0  1  0  0  0  0  0  0  0  0
   26.4443    2.8083  -58.7095 C   0  0  0  1  0  0  0  0  0  0  0  0
   25.9153    3.3798  -59.8513 C   0  0  0  1  0  0  0  0  0  0  0  0
   23.5819    2.5623  -67.1698 C   0  0  0  1  0  0  0  0  0  0  0  0
   22.9323    3.9223  -67.4705 C   0  0  0  1  0  0  0  0  0  0  0  0
   22.0663    3.5900  -68.6955 C   0  0  0  1  0  0  0  0  0  0  0  0
   21.8121    1.3308  -69.9395 C   0  0  0  1  0  0  0  0  0  0  0  0
   25.8296    1.1707  -66.2748 N   0  0  0  1  0  0  0  0  0  0  0  0
   27.2965    0.4858  -64.5856 C   0  0  0  1  0  0  0  0  0  0  0  0
   26.4936    1.1851  -63.6613 C   0  0  0  1  0  0  0  0  0  0  0  0
   27.0809    1.0060  -62.4394 N   0  0  0  1  0  0  0  0  0  0  0  0
   28.3159   -0.0766  -63.9004 N   0  0  0  1  0  0  0  0  0  0  0  0
   28.2164    0.2092  -62.6490 N   0  0  0  1  0  0  0  0  0  0  0  0
   26.3323    3.3129  -57.4578 O   0  0  0  1  0  0  0  0  0  0  0  0
   24.0073    2.4761  -65.7836 N   0  0  0  1  0  0  0  0  0  0  0  0
   25.4337    4.4180  -57.2739 C   0  0  0  1  0  0  0  0  0  0  0  0
   22.0844    2.0998  -68.7973 N   0  0  0  1  0  0  0  0  0  0  0  0
   22.4453    1.5977  -67.4585 C   0  0  0  1  0  0  0  0  0  0  0  0
   20.5085    1.0692  -70.3187 C   0  0  0  1  0  0  0  0  0  0  0  0
   20.2855    0.3111  -71.4523 C   0  0  0  1  0  0  0  0  0  0  0  0
   21.2687   -0.1897  -72.2066 N   0  0  0  1  0  0  0  0  0  0  0  0
   22.5277    0.0680  -71.8248 C   0  0  0  1  0  0  0  0  0  0  0  0
   22.8412    0.8207  -70.7065 C   0  0  0  1  0  0  0  0  0  0  0  0
   27.4789    0.0015  -66.6492 H   0  0  0  1  0  0  0  0  0  0  0  0
   25.7068    3.2019  -61.9418 H   0  0  0  1  0  0  0  0  0  0  0  0
   27.5512    1.1899  -57.9347 H   0  0  0  1  0  0  0  0  0  0  0  0
   27.8800    0.1259  -60.0857 H   0  0  0  1  0  0  0  0  0  0  0  0
   25.3775    4.2676  -59.7871 H   0  0  0  1  0  0  0  0  0  0  0  0
   24.4180    2.3806  -67.8121 H   0  0  0  1  0  0  0  0  0  0  0  0
   22.3339    4.2587  -66.6497 H   0  0  0  1  0  0  0  0  0  0  0  0
   23.6685    4.6632  -67.7030 H   0  0  0  1  0  0  0  0  0  0  0  0
   22.4805    4.0310  -69.5781 H   0  0  0  1  0  0  0  0  0  0  0  0
   21.0664    3.9439  -68.5548 H   0  0  0  1  0  0  0  0  0  0  0  0
   23.4627    2.9274  -65.1053 H   0  0  0  1  0  0  0  0  0  0  0  0
   24.4308    4.0986  -57.4658 H   0  0  0  1  0  0  0  0  0  0  0  0
   25.6930    5.2047  -57.9511 H   0  0  0  1  0  0  0  0  0  0  0  0
   25.5080    4.7740  -56.2675 H   0  0  0  1  0  0  0  0  0  0  0  0
   22.7741    0.5798  -67.4828 H   0  0  0  1  0  0  0  0  0  0  0  0
   21.6421    1.6970  -66.7585 H   0  0  0  1  0  0  0  0  0  0  0  0
   19.7108    1.4361  -69.7614 H   0  0  0  1  0  0  0  0  0  0  0  0
   19.3024    0.1205  -71.7329 H   0  0  0  1  0  0  0  0  0  0  0  0
   23.3066   -0.3163  -72.3968 H   0  0  0  1  0  0  0  0  0  0  0  0
   23.8329    0.9987  -70.4487 H   0  0  0  1  0  0  0  0  0  0  0  0
  1  3  4  0  0  0  0
  1 14  4  0  0  0  0
  1 21  1  0  0  0  0
  2 14  4  0  0  0  0
  2 15  4  0  0  0  0
  2 30  1  0  0  0  0
  3 16  4  0  0  0  0
  4  5  4  0  0  0  0
  4  7  4  0  0  0  0
  4 17  1  0  0  0  0
  5  9  4  0  0  0  0
  5 31  1  0  0  0  0
  6  7  4  0  0  0  0
  6  8  4  0  0  0  0
  6 32  1  0  0  0  0
  7 33  1  0  0  0  0
  8  9  4  0  0  0  0
  8 20  1  0  0  0  0
  9 34  1  0  0  0  0
 10 11  1  0  0  0  0
 10 21  1  0  0  0  0
 10 24  1  0  0  0  0
 10 35  1  0  0  0  0
 11 12  1  0  0  0  0
 11 36  1  0  0  0  0
 11 37  1  0  0  0  0
 12 23  1  0  0  0  0
 12 38  1  0  0  0  0
 12 39  1  0  0  0  0
 13 23  1  0  0  0  0
 13 25  4  0  0  0  0
 13 29  4  0  0  0  0
 15 16  4  0  0  0  0
 15 18  4  0  0  0  0
 16 17  4  0  0  0  0
 17 19  4  0  0  0  0
 18 19  4  0  0  0  0
 20 22  1  0  0  0  0
 21 40  1  0  0  0  0
 22 41  1  0  0  0  0
 22 42  1  0  0  0  0
 22 43  1  0  0  0  0
 23 24  1  0  0  0  0
 24 44  1  0  0  0  0
 24 45  1  0  0  0  0
 25 26  4  0  0  0  0
 25 46  1  0  0  0  0
 26 27  4  0  0  0  0
 26 47  1  0  0  0  0
 27 28  4  0  0  0  0
 28 29  4  0  0  0  0
 28 48  1  0  0  0  0
 29 49  1  0  0  0  0
M  END
> <ConfClashScore>
0 

> <ConfOneFourInteractionScore>
-0.986948 

> <ConfScore>
0.0407735 

> <ConfScorePBest>
0.00314007 

> <ConfTolerance>
0.3668 

> <HETNAM>
     OWQ A 303  OWQ                                                       

> <pdb_OW>
Q_303 -16.5129 3.80749 7.62812 0.15963 1.39178 -0.28144 -3.20151 0 0 0 -1.30514 0 0 0 0 0 0 0 0 -8.31393

$$$$
6yky_lig_1.pdb
 OpenBabel04162415593D

 49 53  0  0  0  0  0  0  0  0999 V2000
   25.1048    1.8135  -65.3759 C   0  0  0  1  0  0  0  0  0  0  0  0
   26.9167    0.5034  -65.9326 C   0  0  0  1  0  0  0  0  0  0  0  0
   25.4178    1.8283  -64.0982 N   0  0  0  1  0  0  0  0  0  0  0  0
   26.7285    1.4699  -61.1390 C   0  0  0  1  0  0  0  0  0  0  0  0
   27.0708    2.7494  -60.7444 C   0  0  0  1  0  0  0  0  0  0  0  0
   25.8605    1.0242  -58.9492 C   0  0  0  1  0  0  0  0  0  0  0  0
   26.1249    0.6051  -60.2395 C   0  0  0  1  0  0  0  0  0  0  0  0
   26.2039    2.3075  -58.5532 C   0  0  0  1  0  0  0  0  0  0  0  0
   26.8057    3.1696  -59.4503 C   0  0  0  1  0  0  0  0  0  0  0  0
   23.1442    3.2127  -64.8529 C   0  0  0  1  0  0  0  0  0  0  0  0
   22.0981    4.0400  -65.5938 C   0  0  0  1  0  0  0  0  0  0  0  0
   22.8705    5.2784  -66.0244 C   0  0  0  1  0  0  0  0  0  0  0  0
   24.6807    6.5669  -64.8240 C   0  0  0  1  0  0  0  0  0  0  0  0
   25.8297    1.1707  -66.2748 N   0  0  0  1  0  0  0  0  0  0  0  0
   27.2965    0.4857  -64.5857 C   0  0  0  1  0  0  0  0  0  0  0  0
   26.4936    1.1852  -63.6614 C   0  0  0  1  0  0  0  0  0  0  0  0
   27.0809    1.0061  -62.4395 N   0  0  0  1  0  0  0  0  0  0  0  0
   28.3159   -0.0766  -63.9004 N   0  0  0  1  0  0  0  0  0  0  0  0
   28.2164    0.2092  -62.6490 N   0  0  0  1  0  0  0  0  0  0  0  0
   25.9496    2.7165  -57.2875 O   0  0  0  1  0  0  0  0  0  0  0  0
   23.9919    2.4855  -65.7895 N   0  0  0  1  0  0  0  0  0  0  0  0
   26.1686    4.1042  -56.9898 C   0  0  0  1  0  0  0  0  0  0  0  0
   23.8836    5.4399  -64.9702 N   0  0  0  1  0  0  0  0  0  0  0  0
   23.9506    4.2598  -64.0865 C   0  0  0  1  0  0  0  0  0  0  0  0
   25.9045    6.7111  -65.4512 C   0  0  0  1  0  0  0  0  0  0  0  0
   26.6236    7.8732  -65.2464 C   0  0  0  1  0  0  0  0  0  0  0  0
   26.1991    8.8722  -64.4665 N   0  0  0  1  0  0  0  0  0  0  0  0
   25.0130    8.7172  -63.8611 C   0  0  0  1  0  0  0  0  0  0  0  0
   24.2264    7.5889  -64.0135 C   0  0  0  1  0  0  0  0  0  0  0  0
   27.4790    0.0014  -66.6491 H   0  0  0  1  0  0  0  0  0  0  0  0
   27.5274    3.3969  -61.4182 H   0  0  0  1  0  0  0  0  0  0  0  0
   25.4040    0.3767  -58.2754 H   0  0  0  1  0  0  0  0  0  0  0  0
   25.8709   -0.3591  -60.5353 H   0  0  0  1  0  0  0  0  0  0  0  0
   27.0596    4.1338  -59.1545 H   0  0  0  1  0  0  0  0  0  0  0  0
   22.6792    2.5215  -64.1813 H   0  0  0  1  0  0  0  0  0  0  0  0
   21.2869    4.3004  -64.9466 H   0  0  0  1  0  0  0  0  0  0  0  0
   21.7213    3.5092  -66.4430 H   0  0  0  1  0  0  0  0  0  0  0  0
   23.3324    5.1277  -66.9777 H   0  0  0  1  0  0  0  0  0  0  0  0
   22.2276    6.1324  -66.0700 H   0  0  0  1  0  0  0  0  0  0  0  0
   23.7565    2.4793  -66.7408 H   0  0  0  1  0  0  0  0  0  0  0  0
   25.9785    4.2811  -55.9518 H   0  0  0  1  0  0  0  0  0  0  0  0
   25.5082    4.7040  -57.5805 H   0  0  0  1  0  0  0  0  0  0  0  0
   27.1825    4.3613  -57.2153 H   0  0  0  1  0  0  0  0  0  0  0  0
   23.5072    4.4661  -63.1347 H   0  0  0  1  0  0  0  0  0  0  0  0
   24.9623    3.9402  -63.9474 H   0  0  0  1  0  0  0  0  0  0  0  0
   26.2768    5.9591  -66.0656 H   0  0  0  1  0  0  0  0  0  0  0  0
   27.5419    7.9758  -65.7234 H   0  0  0  1  0  0  0  0  0  0  0  0
   24.6673    9.4821  -63.2471 H   0  0  0  1  0  0  0  0  0  0  0  0
   23.3103    7.5118  -63.5270 H   0  0  0  1  0  0  0  0  0  0  0  0
  1  3  4  0  0  0  0
  1 14  4  0  0  0  0
  1 21  1  0  0  0  0
  2 14  4  0  0  0  0
  2 15  4  0  0  0  0
  2 30  1  0  0  0  0
  3 16  4  0  0  0  0
  4  5  4  0  0  0  0
  4  7  4  0  0  0  0
  4 17  1  0  0  0  0
  5  9  4  0  0  0  0
  5 31  1  0  0  0  0
  6  7  4  0  0  0  0
  6  8  4  0  0  0  0
  6 32  1  0  0  0  0
  7 33  1  0  0  0  0
  8  9  4  0  0  0  0
  8 20  1  0  0  0  0
  9 34  1  0  0  0  0
 10 11  1  0  0  0  0
 10 21  1  0  0  0  0
 10 24  1  0  0  0  0
 10 35  1  0  0  0  0
 11 12  1  0  0  0  0
 11 36  1  0  0  0  0
 11 37  1  0  0  0  0
 12 23  1  0  0  0  0
 12 38  1  0  0  0  0
 12 39  1  0  0  0  0
 13 23  1  0  0  0  0
 13 25  4  0  0  0  0
 13 29  4  0  0  0  0
 15 16  4  0  0  0  0
 15 18  4  0  0  0  0
 16 17  4  0  0  0  0
 17 19  4  0  0  0  0
 18 19  4  0  0  0  0
 20 22  1  0  0  0  0
 21 40  1  0  0  0  0
 22 41  1  0  0  0  0
 22 42  1  0  0  0  0
 22 43  1  0  0  0  0
 23 24  1  0  0  0  0
 24 44  1  0  0  0  0
 24 45  1  0  0  0  0
 25 26  4  0  0  0  0
 25 46  1  0  0  0  0
 26 27  4  0  0  0  0
 26 47  1  0  0  0  0
 27 28  4  0  0  0  0
 28 29  4  0  0  0  0
 28 48  1  0  0  0  0
 29 49  1  0  0  0  0
M  END
> <ConfClashScore>
0 

> <ConfOneFourInteractionScore>
-0.987833 

> <ConfScore>
0.0413162 

> <ConfScorePBest>
0.00312675 

> <ConfTolerance>
0.785832 

> <HETNAM>
     OWQ A 303  OWQ                                                       

> <pdb_OW>
Q_303 -16.5129 3.80749 7.62812 0.15963 1.39178 -0.28144 -3.20151 0 0 0 -1.30514 0 0 0 0 0 0 0 0 -8.31393

$$$$
6yky_lig_1.pdb
 OpenBabel04162415593D

 49 53  0  0  0  0  0  0  0  0999 V2000
   25.1047    1.8133  -65.3760 C   0  0  0  1  0  0  0  0  0  0  0  0
   26.9167    0.5034  -65.9326 C   0  0  0  1  0  0  0  0  0  0  0  0
   25.4177    1.8281  -64.0982 N   0  0  0  1  0  0  0  0  0  0  0  0
   26.6853    1.4948  -61.1608 C   0  0  0  1  0  0  0  0  0  0  0  0
   25.4570    2.1210  -61.0646 C   0  0  0  1  0  0  0  0  0  0  0  0
   27.1303    2.0094  -58.8620 C   0  0  0  1  0  0  0  0  0  0  0  0
   27.5244    1.4412  -60.0587 C   0  0  0  1  0  0  0  0  0  0  0  0
   25.8983    2.6376  -58.7653 C   0  0  0  1  0  0  0  0  0  0  0  0
   25.0619    2.6909  -59.8643 C   0  0  0  1  0  0  0  0  0  0  0  0
   23.2518    3.3868  -64.9415 C   0  0  0  1  0  0  0  0  0  0  0  0
   24.1520    4.4793  -64.3848 C   0  0  0  1  0  0  0  0  0  0  0  0
   23.4001    4.9453  -63.1508 C   0  0  0  1  0  0  0  0  0  0  0  0
   22.2631    3.5552  -61.3909 C   0  0  0  1  0  0  0  0  0  0  0  0
   25.8296    1.1705  -66.2748 N   0  0  0  1  0  0  0  0  0  0  0  0
   27.2965    0.4857  -64.5857 C   0  0  0  1  0  0  0  0  0  0  0  0
   26.4936    1.1851  -63.6614 C   0  0  0  1  0  0  0  0  0  0  0  0
   27.0808    1.0060  -62.4394 N   0  0  0  1  0  0  0  0  0  0  0  0
   28.3159   -0.0766  -63.9004 N   0  0  0  1  0  0  0  0  0  0  0  0
   28.2164    0.2092  -62.6490 N   0  0  0  1  0  0  0  0  0  0  0  0
   25.6240    3.1610  -57.5469 O   0  0  0  1  0  0  0  0  0  0  0  0
   24.0073    2.4759  -65.7838 N   0  0  0  1  0  0  0  0  0  0  0  0
   24.4026    3.9045  -57.4121 C   0  0  0  1  0  0  0  0  0  0  0  0
   22.7639    3.7125  -62.6644 N   0  0  0  1  0  0  0  0  0  0  0  0
   22.7255    2.6666  -63.6984 C   0  0  0  1  0  0  0  0  0  0  0  0
   21.6412    2.3778  -61.0186 C   0  0  0  1  0  0  0  0  0  0  0  0
   21.1566    2.2608  -59.7298 C   0  0  0  1  0  0  0  0  0  0  0  0
   21.2542    3.2322  -58.8170 N   0  0  0  1  0  0  0  0  0  0  0  0
   21.8555    4.3698  -59.1928 C   0  0  0  1  0  0  0  0  0  0  0  0
   22.3724    4.5705  -60.4609 C   0  0  0  1  0  0  0  0  0  0  0  0
   27.4790    0.0013  -66.6492 H   0  0  0  1  0  0  0  0  0  0  0  0
   24.8293    2.1647  -61.8926 H   0  0  0  1  0  0  0  0  0  0  0  0
   27.7580    1.9657  -58.0339 H   0  0  0  1  0  0  0  0  0  0  0  0
   28.4504    0.9734  -60.1323 H   0  0  0  1  0  0  0  0  0  0  0  0
   24.1359    3.1586  -59.7908 H   0  0  0  1  0  0  0  0  0  0  0  0
   22.4462    3.8093  -65.5050 H   0  0  0  1  0  0  0  0  0  0  0  0
   25.1138    4.0893  -64.1244 H   0  0  0  1  0  0  0  0  0  0  0  0
   24.2685    5.2771  -65.0882 H   0  0  0  1  0  0  0  0  0  0  0  0
   22.6666    5.6823  -63.4034 H   0  0  0  1  0  0  0  0  0  0  0  0
   24.0715    5.3455  -62.4200 H   0  0  0  1  0  0  0  0  0  0  0  0
   23.6994    2.3359  -66.7035 H   0  0  0  1  0  0  0  0  0  0  0  0
   24.3934    4.7074  -58.1193 H   0  0  0  1  0  0  0  0  0  0  0  0
   24.3348    4.3018  -56.4210 H   0  0  0  1  0  0  0  0  0  0  0  0
   23.5698    3.2582  -57.5956 H   0  0  0  1  0  0  0  0  0  0  0  0
   21.7266    2.3155  -63.8523 H   0  0  0  1  0  0  0  0  0  0  0  0
   23.3568    1.8436  -63.4356 H   0  0  0  1  0  0  0  0  0  0  0  0
   21.5401    1.5950  -61.6958 H   0  0  0  1  0  0  0  0  0  0  0  0
   20.6922    1.3714  -59.4561 H   0  0  0  1  0  0  0  0  0  0  0  0
   21.9378    5.1389  -58.4976 H   0  0  0  1  0  0  0  0  0  0  0  0
   22.8342    5.4688  -60.7088 H   0  0  0  1  0  0  0  0  0  0  0  0
  1  3  4  0  0  0  0
  1 14  4  0  0  0  0
  1 21  1  0  0  0  0
  2 14  4  0  0  0  0
  2 15  4  0  0  0  0
  2 30  1  0  0  0  0
  3 16  4  0  0  0  0
  4  5  4  0  0  0  0
  4  7  4  0  0  0  0
  4 17  1  0  0  0  0
  5  9  4  0  0  0  0
  5 31  1  0  0  0  0
  6  7  4  0  0  0  0
  6  8  4  0  0  0  0
  6 32  1  0  0  0  0
  7 33  1  0  0  0  0
  8  9  4  0  0  0  0
  8 20  1  0  0  0  0
  9 34  1  0  0  0  0
 10 11  1  0  0  0  0
 10 21  1  0  0  0  0
 10 24  1  0  0  0  0
 10 35  1  0  0  0  0
 11 12  1  0  0  0  0
 11 36  1  0  0  0  0
 11 37  1  0  0  0  0
 12 23  1  0  0  0  0
 12 38  1  0  0  0  0
 12 39  1  0  0  0  0
 13 23  1  0  0  0  0
 13 25  4  0  0  0  0
 13 29  4  0  0  0  0
 15 16  4  0  0  0  0
 15 18  4  0  0  0  0
 16 17  4  0  0  0  0
 17 19  4  0  0  0  0
 18 19  4  0  0  0  0
 20 22  1  0  0  0  0
 21 40  1  0  0  0  0
 22 41  1  0  0  0  0
 22 42  1  0  0  0  0
 22 43  1  0  0  0  0
 23 24  1  0  0  0  0
 24 44  1  0  0  0  0
 24 45  1  0  0  0  0
 25 26  4  0  0  0  0
 25 46  1  0  0  0  0
 26 27  4  0  0  0  0
 26 47  1  0  0  0  0
 27 28  4  0  0  0  0
 28 29  4  0  0  0  0
 28 48  1  0  0  0  0
 29 49  1  0  0  0  0
M  END
> <ConfClashScore>
0 

> <ConfOneFourInteractionScore>
-0.983503 

> <ConfScore>
0.0455081 

> <ConfScorePBest>
0.00311342 

> <ConfTolerance>
0.545198 

> <HETNAM>
     OWQ A 303  OWQ                                                       

> <pdb_OW>
Q_303 -16.5129 3.80749 7.62812 0.15963 1.39178 -0.28144 -3.20151 0 0 0 -1.30514 0 0 0 0 0 0 0 0 -8.31393

$$$$
6yky_lig_1.pdb
 OpenBabel04162415593D

 49 53  0  0  0  0  0  0  0  0999 V2000
   25.1048    1.8135  -65.3760 C   0  0  0  1  0  0  0  0  0  0  0  0
   26.9167    0.5034  -65.9325 C   0  0  0  1  0  0  0  0  0  0  0  0
   25.4179    1.8284  -64.0983 N   0  0  0  1  0  0  0  0  0  0  0  0
   26.6710    1.3257  -61.1128 C   0  0  0  1  0  0  0  0  0  0  0  0
   27.3469    2.2935  -60.3938 C   0  0  0  1  0  0  0  0  0  0  0  0
   25.3117    0.8484  -59.1967 C   0  0  0  1  0  0  0  0  0  0  0  0
   25.6537    0.6003  -60.5127 C   0  0  0  1  0  0  0  0  0  0  0  0
   25.9896    1.8189  -58.4754 C   0  0  0  1  0  0  0  0  0  0  0  0
   27.0039    2.5422  -59.0741 C   0  0  0  1  0  0  0  0  0  0  0  0
   23.5502    2.7587  -67.0588 C   0  0  0  1  0  0  0  0  0  0  0  0
   24.5009    3.6968  -67.7638 C   0  0  0  1  0  0  0  0  0  0  0  0
   23.6680    4.3083  -68.8723 C   0  0  0  1  0  0  0  0  0  0  0  0
   21.2382    4.9929  -68.8583 C   0  0  0  1  0  0  0  0  0  0  0  0
   25.8298    1.1707  -66.2748 N   0  0  0  1  0  0  0  0  0  0  0  0
   27.2965    0.4857  -64.5857 C   0  0  0  1  0  0  0  0  0  0  0  0
   26.4936    1.1852  -63.6615 C   0  0  0  1  0  0  0  0  0  0  0  0
   27.0809    1.0062  -62.4395 N   0  0  0  1  0  0  0  0  0  0  0  0
   28.3158   -0.0766  -63.9004 N   0  0  0  1  0  0  0  0  0  0  0  0
   28.2164    0.2092  -62.6490 N   0  0  0  1  0  0  0  0  0  0  0  0
   25.6597    2.0572  -57.1911 O   0  0  0  1  0  0  0  0  0  0  0  0
   23.9889    2.5048  -65.6920 N   0  0  0  1  0  0  0  0  0  0  0  0
   24.5687    1.2562  -56.6807 C   0  0  0  1  0  0  0  0  0  0  0  0
   22.3085    4.3127  -68.3013 N   0  0  0  1  0  0  0  0  0  0  0  0
   22.2214    3.5116  -67.0728 C   0  0  0  1  0  0  0  0  0  0  0  0
   21.0623    6.3439  -68.6230 C   0  0  0  1  0  0  0  0  0  0  0  0
   19.9831    6.9844  -69.2016 C   0  0  0  1  0  0  0  0  0  0  0  0
   19.0912    6.3639  -69.9799 N   0  0  0  1  0  0  0  0  0  0  0  0
   19.2715    5.0531  -70.1960 C   0  0  0  1  0  0  0  0  0  0  0  0
   20.3258    4.3348  -69.6596 C   0  0  0  1  0  0  0  0  0  0  0  0
   27.4790    0.0014  -66.6492 H   0  0  0  1  0  0  0  0  0  0  0  0
   28.1129    2.8349  -60.8431 H   0  0  0  1  0  0  0  0  0  0  0  0
   24.5458    0.3069  -58.7475 H   0  0  0  1  0  0  0  0  0  0  0  0
   25.1478   -0.1307  -61.0525 H   0  0  0  1  0  0  0  0  0  0  0  0
   27.5098    3.2731  -58.5342 H   0  0  0  1  0  0  0  0  0  0  0  0
   23.4686    1.8312  -67.5858 H   0  0  0  1  0  0  0  0  0  0  0  0
   24.8541    4.4527  -67.0939 H   0  0  0  1  0  0  0  0  0  0  0  0
   25.3337    3.1597  -68.1675 H   0  0  0  1  0  0  0  0  0  0  0  0
   23.9947    5.3026  -69.0950 H   0  0  0  1  0  0  0  0  0  0  0  0
   23.7105    3.7114  -69.7593 H   0  0  0  1  0  0  0  0  0  0  0  0
   23.4415    2.8566  -64.9593 H   0  0  0  1  0  0  0  0  0  0  0  0
   23.7333    1.3251  -57.3457 H   0  0  0  1  0  0  0  0  0  0  0  0
   24.2849    1.6154  -55.7135 H   0  0  0  1  0  0  0  0  0  0  0  0
   24.8808    0.2354  -56.6051 H   0  0  0  1  0  0  0  0  0  0  0  0
   22.1255    4.1386  -66.2111 H   0  0  0  1  0  0  0  0  0  0  0  0
   21.3954    2.8327  -67.1143 H   0  0  0  1  0  0  0  0  0  0  0  0
   21.7296    6.8683  -68.0219 H   0  0  0  1  0  0  0  0  0  0  0  0
   19.8586    8.0012  -69.0222 H   0  0  0  1  0  0  0  0  0  0  0  0
   18.5857    4.5518  -70.7960 H   0  0  0  1  0  0  0  0  0  0  0  0
   20.4291    3.3187  -69.8562 H   0  0  0  1  0  0  0  0  0  0  0  0
  1  3  4  0  0  0  0
  1 14  4  0  0  0  0
  1 21  1  0  0  0  0
  2 14  4  0  0  0  0
  2 15  4  0  0  0  0
  2 30  1  0  0  0  0
  3 16  4  0  0  0  0
  4  5  4  0  0  0  0
  4  7  4  0  0  0  0
  4 17  1  0  0  0  0
  5  9  4  0  0  0  0
  5 31  1  0  0  0  0
  6  7  4  0  0  0  0
  6  8  4  0  0  0  0
  6 32  1  0  0  0  0
  7 33  1  0  0  0  0
  8  9  4  0  0  0  0
  8 20  1  0  0  0  0
  9 34  1  0  0  0  0
 10 11  1  0  0  0  0
 10 21  1  0  0  0  0
 10 24  1  0  0  0  0
 10 35  1  0  0  0  0
 11 12  1  0  0  0  0
 11 36  1  0  0  0  0
 11 37  1  0  0  0  0
 12 23  1  0  0  0  0
 12 38  1  0  0  0  0
 12 39  1  0  0  0  0
 13 23  1  0  0  0  0
 13 25  4  0  0  0  0
 13 29  4  0  0  0  0
 15 16  4  0  0  0  0
 15 18  4  0  0  0  0
 16 17  4  0  0  0  0
 17 19  4  0  0  0  0
 18 19  4  0  0  0  0
 20 22  1  0  0  0  0
 21 40  1  0  0  0  0
 22 41  1  0  0  0  0
 22 42  1  0  0  0  0
 22 43  1  0  0  0  0
 23 24  1  0  0  0  0
 24 44  1  0  0  0  0
 24 45  1  0  0  0  0
 25 26  4  0  0  0  0
 25 46  1  0  0  0  0
 26 27  4  0  0  0  0
 26 47  1  0  0  0  0
 27 28  4  0  0  0  0
 28 29  4  0  0  0  0
 28 48  1  0  0  0  0
 29 49  1  0  0  0  0
M  END
> <ConfClashScore>
0 

> <ConfOneFourInteractionScore>
-0.984874 

> <ConfScore>
0.0462802 

> <ConfScorePBest>
0.00310009 

> <ConfTolerance>
0.536748 

> <HETNAM>
     OWQ A 303  OWQ                                                       

> <pdb_OW>
Q_303 -16.5129 3.80749 7.62812 0.15963 1.39178 -0.28144 -3.20151 0 0 0 -1.30514 0 0 0 0 0 0 0 0 -8.31393

$$$$
6yky_lig_1.pdb
 OpenBabel04162415593D

 49 53  0  0  0  0  0  0  0  0999 V2000
   25.1049    1.8136  -65.3759 C   0  0  0  1  0  0  0  0  0  0  0  0
   26.9167    0.5034  -65.9326 C   0  0  0  1  0  0  0  0  0  0  0  0
   25.4179    1.8284  -64.0982 N   0  0  0  1  0  0  0  0  0  0  0  0
   26.8454    1.6300  -61.1803 C   0  0  0  1  0  0  0  0  0  0  0  0
   25.7592    1.1981  -60.4429 C   0  0  0  1  0  0  0  0  0  0  0  0
   27.2830    3.3278  -59.5454 C   0  0  0  1  0  0  0  0  0  0  0  0
   27.6069    2.6982  -60.7323 C   0  0  0  1  0  0  0  0  0  0  0  0
   26.1936    2.8947  -58.8056 C   0  0  0  1  0  0  0  0  0  0  0  0
   25.4345    1.8297  -59.2525 C   0  0  0  1  0  0  0  0  0  0  0  0
   23.0387    3.1633  -64.9281 C   0  0  0  1  0  0  0  0  0  0  0  0
   22.0051    2.1807  -64.3550 C   0  0  0  1  0  0  0  0  0  0  0  0
   20.8279    3.1161  -64.0391 C   0  0  0  1  0  0  0  0  0  0  0  0
   20.6785    5.6426  -64.3684 C   0  0  0  1  0  0  0  0  0  0  0  0
   25.8297    1.1707  -66.2748 N   0  0  0  1  0  0  0  0  0  0  0  0
   27.2965    0.4858  -64.5857 C   0  0  0  1  0  0  0  0  0  0  0  0
   26.4936    1.1852  -63.6614 C   0  0  0  1  0  0  0  0  0  0  0  0
   27.0810    1.0061  -62.4395 N   0  0  0  1  0  0  0  0  0  0  0  0
   28.3159   -0.0766  -63.9004 N   0  0  0  1  0  0  0  0  0  0  0  0
   28.2164    0.2092  -62.6490 N   0  0  0  1  0  0  0  0  0  0  0  0
   25.8749    3.5118  -57.6512 O   0  0  0  1  0  0  0  0  0  0  0  0
   24.0075    2.4764  -65.7837 N   0  0  0  1  0  0  0  0  0  0  0  0
   26.6277    4.7152  -57.3723 C   0  0  0  1  0  0  0  0  0  0  0  0
   21.1753    4.4175  -64.6846 N   0  0  0  1  0  0  0  0  0  0  0  0
   22.1649    4.1084  -65.7335 C   0  0  0  1  0  0  0  0  0  0  0  0
   21.3954    6.5010  -63.5555 C   0  0  0  1  0  0  0  0  0  0  0  0
   20.9044    7.7739  -63.3359 C   0  0  0  1  0  0  0  0  0  0  0  0
   19.7637    8.2234  -63.8679 N   0  0  0  1  0  0  0  0  0  0  0  0
   19.0765    7.3792  -64.6504 C   0  0  0  1  0  0  0  0  0  0  0  0
   19.4967    6.0897  -64.9264 C   0  0  0  1  0  0  0  0  0  0  0  0
   27.4790    0.0013  -66.6492 H   0  0  0  1  0  0  0  0  0  0  0  0
   25.1855    0.3993  -60.7811 H   0  0  0  1  0  0  0  0  0  0  0  0
   27.8567    4.1267  -59.2072 H   0  0  0  1  0  0  0  0  0  0  0  0
   28.4217    3.0258  -61.2893 H   0  0  0  1  0  0  0  0  0  0  0  0
   24.6196    1.5021  -58.6955 H   0  0  0  1  0  0  0  0  0  0  0  0
   23.5558    3.6820  -64.1481 H   0  0  0  1  0  0  0  0  0  0  0  0
   21.7310    1.4388  -65.0757 H   0  0  0  1  0  0  0  0  0  0  0  0
   22.3708    1.7019  -63.4708 H   0  0  0  1  0  0  0  0  0  0  0  0
   19.9191    2.7259  -64.4475 H   0  0  0  1  0  0  0  0  0  0  0  0
   20.7203    3.2392  -62.9817 H   0  0  0  1  0  0  0  0  0  0  0  0
   23.8403    2.5017  -66.7490 H   0  0  0  1  0  0  0  0  0  0  0  0
   26.2794    5.5082  -58.0007 H   0  0  0  1  0  0  0  0  0  0  0  0
   27.6656    4.5387  -57.5633 H   0  0  0  1  0  0  0  0  0  0  0  0
   26.4949    4.9890  -56.3464 H   0  0  0  1  0  0  0  0  0  0  0  0
   21.7210    3.6275  -66.5801 H   0  0  0  1  0  0  0  0  0  0  0  0
   22.6985    4.9780  -66.0558 H   0  0  0  1  0  0  0  0  0  0  0  0
   22.2875    6.1944  -63.1176 H   0  0  0  1  0  0  0  0  0  0  0  0
   21.4502    8.4148  -62.7252 H   0  0  0  1  0  0  0  0  0  0  0  0
   18.1843    7.7093  -65.0707 H   0  0  0  1  0  0  0  0  0  0  0  0
   18.9333    5.4691  -65.5421 H   0  0  0  1  0  0  0  0  0  0  0  0
  1  3  4  0  0  0  0
  1 14  4  0  0  0  0
  1 21  1  0  0  0  0
  2 14  4  0  0  0  0
  2 15  4  0  0  0  0
  2 30  1  0  0  0  0
  3 16  4  0  0  0  0
  4  5  4  0  0  0  0
  4  7  4  0  0  0  0
  4 17  1  0  0  0  0
  5  9  4  0  0  0  0
  5 31  1  0  0  0  0
  6  7  4  0  0  0  0
  6  8  4  0  0  0  0
  6 32  1  0  0  0  0
  7 33  1  0  0  0  0
  8  9  4  0  0  0  0
  8 20  1  0  0  0  0
  9 34  1  0  0  0  0
 10 11  1  0  0  0  0
 10 21  1  0  0  0  0
 10 24  1  0  0  0  0
 10 35  1  0  0  0  0
 11 12  1  0  0  0  0
 11 36  1  0  0  0  0
 11 37  1  0  0  0  0
 12 23  1  0  0  0  0
 12 38  1  0  0  0  0
 12 39  1  0  0  0  0
 13 23  1  0  0  0  0
 13 25  4  0  0  0  0
 13 29  4  0  0  0  0
 15 16  4  0  0  0  0
 15 18  4  0  0  0  0
 16 17  4  0  0  0  0
 17 19  4  0  0  0  0
 18 19  4  0  0  0  0
 20 22  1  0  0  0  0
 21 40  1  0  0  0  0
 22 41  1  0  0  0  0
 22 42  1  0  0  0  0
 22 43  1  0  0  0  0
 23 24  1  0  0  0  0
 24 44  1  0  0  0  0
 24 45  1  0  0  0  0
 25 26  4  0  0  0  0
 25 46  1  0  0  0  0
 26 27  4  0  0  0  0
 26 47  1  0  0  0  0
 27 28  4  0  0  0  0
 28 29  4  0  0  0  0
 28 48  1  0  0  0  0
 29 49  1  0  0  0  0
M  END
> <ConfClashScore>
0 

> <ConfOneFourInteractionScore>
-0.986948 

> <ConfScore>
0.0485651 

> <ConfScorePBest>
0.00308676 

> <ConfTolerance>
0.422906 

> <HETNAM>
     OWQ A 303  OWQ                                                       

> <pdb_OW>
Q_303 -16.5129 3.80749 7.62812 0.15963 1.39178 -0.28144 -3.20151 0 0 0 -1.30514 0 0 0 0 0 0 0 0 -8.31393

$$$$
6yky_lig_1.pdb
 OpenBabel04162415593D

 49 53  0  0  0  0  0  0  0  0999 V2000
   25.1049    1.8136  -65.3759 C   0  0  0  1  0  0  0  0  0  0  0  0
   26.9167    0.5034  -65.9326 C   0  0  0  1  0  0  0  0  0  0  0  0
   25.4180    1.8285  -64.0982 N   0  0  0  1  0  0  0  0  0  0  0  0
   26.7288    1.4700  -61.1391 C   0  0  0  1  0  0  0  0  0  0  0  0
   26.8277    0.6227  -60.0518 C   0  0  0  1  0  0  0  0  0  0  0  0
   25.7756    3.1636  -59.7352 C   0  0  0  1  0  0  0  0  0  0  0  0
   26.1995    2.7415  -60.9812 C   0  0  0  1  0  0  0  0  0  0  0  0
   25.8748    2.3137  -58.6446 C   0  0  0  1  0  0  0  0  0  0  0  0
   26.4026    1.0461  -58.8022 C   0  0  0  1  0  0  0  0  0  0  0  0
   23.6450    2.5949  -67.1954 C   0  0  0  1  0  0  0  0  0  0  0  0
   24.8423    3.1073  -68.0264 C   0  0  0  1  0  0  0  0  0  0  0  0
   24.3064    4.0911  -69.0359 C   0  0  0  1  0  0  0  0  0  0  0  0
   22.0405    5.3034  -69.0125 C   0  0  0  1  0  0  0  0  0  0  0  0
   25.8297    1.1708  -66.2747 N   0  0  0  1  0  0  0  0  0  0  0  0
   27.2965    0.4857  -64.5857 C   0  0  0  1  0  0  0  0  0  0  0  0
   26.4937    1.1852  -63.6614 C   0  0  0  1  0  0  0  0  0  0  0  0
   27.0810    1.0062  -62.4395 N   0  0  0  1  0  0  0  0  0  0  0  0
   28.3159   -0.0766  -63.9004 N   0  0  0  1  0  0  0  0  0  0  0  0
   28.2164    0.2092  -62.6490 N   0  0  0  1  0  0  0  0  0  0  0  0
   25.4892    2.6133  -57.3815 O   0  0  0  1  0  0  0  0  0  0  0  0
   23.9921    2.4858  -65.7895 N   0  0  0  1  0  0  0  0  0  0  0  0
   24.9063    3.9074  -57.1629 C   0  0  0  1  0  0  0  0  0  0  0  0
   22.9015    4.3755  -68.4610 N   0  0  0  1  0  0  0  0  0  0  0  0
   22.5998    3.6701  -67.4184 C   0  0  0  1  0  0  0  0  0  0  0  0
   22.4208    6.0526  -70.1105 C   0  0  0  1  0  0  0  0  0  0  0  0
   21.5265    6.9674  -70.6331 C   0  0  0  1  0  0  0  0  0  0  0  0
   20.3054    7.1713  -70.1295 N   0  0  0  1  0  0  0  0  0  0  0  0
   19.9515    6.4413  -69.0622 C   0  0  0  1  0  0  0  0  0  0  0  0
   20.7824    5.5014  -68.4779 C   0  0  0  1  0  0  0  0  0  0  0  0
   27.4788    0.0013  -66.6491 H   0  0  0  1  0  0  0  0  0  0  0  0
   27.2211   -0.3327  -60.1712 H   0  0  0  1  0  0  0  0  0  0  0  0
   25.3822    4.1189  -59.6160 H   0  0  0  1  0  0  0  0  0  0  0  0
   26.1213    3.3777  -61.8002 H   0  0  0  1  0  0  0  0  0  0  0  0
   26.4807    0.4099  -57.9833 H   0  0  0  1  0  0  0  0  0  0  0  0
   23.3047    1.6460  -67.5540 H   0  0  0  1  0  0  0  0  0  0  0  0
   25.5507    3.5905  -67.3865 H   0  0  0  1  0  0  0  0  0  0  0  0
   25.3146    2.2893  -68.5291 H   0  0  0  1  0  0  0  0  0  0  0  0
   24.9022    4.9791  -69.0723 H   0  0  0  1  0  0  0  0  0  0  0  0
   24.2499    3.6586  -70.0130 H   0  0  0  1  0  0  0  0  0  0  0  0
   23.4120    2.9058  -65.1205 H   0  0  0  1  0  0  0  0  0  0  0  0
   24.9606    4.1526  -56.1227 H   0  0  0  1  0  0  0  0  0  0  0  0
   23.8821    3.8940  -57.4728 H   0  0  0  1  0  0  0  0  0  0  0  0
   25.4416    4.6399  -57.7301 H   0  0  0  1  0  0  0  0  0  0  0  0
   21.6452    3.2100  -67.5669 H   0  0  0  1  0  0  0  0  0  0  0  0
   22.5594    4.3075  -66.5599 H   0  0  0  1  0  0  0  0  0  0  0  0
   23.3622    5.9300  -70.5352 H   0  0  0  1  0  0  0  0  0  0  0  0
   21.8185    7.5255  -71.4606 H   0  0  0  1  0  0  0  0  0  0  0  0
   19.0066    6.5885  -68.6535 H   0  0  0  1  0  0  0  0  0  0  0  0
   20.4656    4.9545  -67.6520 H   0  0  0  1  0  0  0  0  0  0  0  0
  1  3  4  0  0  0  0
  1 14  4  0  0  0  0
  1 21  1  0  0  0  0
  2 14  4  0  0  0  0
  2 15  4  0  0  0  0
  2 30  1  0  0  0  0
  3 16  4  0  0  0  0
  4  5  4  0  0  0  0
  4  7  4  0  0  0  0
  4 17  1  0  0  0  0
  5  9  4  0  0  0  0
  5 31  1  0  0  0  0
  6  7  4  0  0  0  0
  6  8  4  0  0  0  0
  6 32  1  0  0  0  0
  7 33  1  0  0  0  0
  8  9  4  0  0  0  0
  8 20  1  0  0  0  0
  9 34  1  0  0  0  0
 10 11  1  0  0  0  0
 10 21  1  0  0  0  0
 10 24  1  0  0  0  0
 10 35  1  0  0  0  0
 11 12  1  0  0  0  0
 11 36  1  0  0  0  0
 11 37  1  0  0  0  0
 12 23  1  0  0  0  0
 12 38  1  0  0  0  0
 12 39  1  0  0  0  0
 13 23  1  0  0  0  0
 13 25  4  0  0  0  0
 13 29  4  0  0  0  0
 15 16  4  0  0  0  0
 15 18  4  0  0  0  0
 16 17  4  0  0  0  0
 17 19  4  0  0  0  0
 18 19  4  0  0  0  0
 20 22  1  0  0  0  0
 21 40  1  0  0  0  0
 22 41  1  0  0  0  0
 22 42  1  0  0  0  0
 22 43  1  0  0  0  0
 23 24  1  0  0  0  0
 24 44  1  0  0  0  0
 24 45  1  0  0  0  0
 25 26  4  0  0  0  0
 25 46  1  0  0  0  0
 26 27  4  0  0  0  0
 26 47  1  0  0  0  0
 27 28  4  0  0  0  0
 28 29  4  0  0  0  0
 28 48  1  0  0  0  0
 29 49  1  0  0  0  0
M  END
> <ConfClashScore>
0 

> <ConfOneFourInteractionScore>
-0.987833 

> <ConfScore>
0.0496842 

> <ConfScorePBest>
0.00307343 

> <ConfTolerance>
0.470355 

> <HETNAM>
     OWQ A 303  OWQ                                                       

> <pdb_OW>
Q_303 -16.5129 3.80749 7.62812 0.15963 1.39178 -0.28144 -3.20151 0 0 0 -1.30514 0 0 0 0 0 0 0 0 -8.31393

$$$$
6yky_lig_1.pdb
 OpenBabel04162415593D

 49 53  0  0  0  0  0  0  0  0999 V2000
   25.1047    1.8136  -65.3760 C   0  0  0  1  0  0  0  0  0  0  0  0
   26.9167    0.5034  -65.9325 C   0  0  0  1  0  0  0  0  0  0  0  0
   25.4178    1.8284  -64.0982 N   0  0  0  1  0  0  0  0  0  0  0  0
   26.7286    1.4699  -61.1390 C   0  0  0  1  0  0  0  0  0  0  0  0
   27.4359    1.0351  -60.0342 C   0  0  0  1  0  0  0  0  0  0  0  0
   25.2221    2.6647  -59.7072 C   0  0  0  1  0  0  0  0  0  0  0  0
   25.6184    2.2836  -60.9753 C   0  0  0  1  0  0  0  0  0  0  0  0
   25.9313    2.2287  -58.5989 C   0  0  0  1  0  0  0  0  0  0  0  0
   27.0383    1.4173  -58.7625 C   0  0  0  1  0  0  0  0  0  0  0  0
   23.0415    3.1708  -64.9275 C   0  0  0  1  0  0  0  0  0  0  0  0
   21.7109    3.4150  -65.6735 C   0  0  0  1  0  0  0  0  0  0  0  0
   21.2364    4.8004  -65.3138 C   0  0  0  1  0  0  0  0  0  0  0  0
   22.5997    6.7014  -64.2951 C   0  0  0  1  0  0  0  0  0  0  0  0
   25.8297    1.1707  -66.2747 N   0  0  0  1  0  0  0  0  0  0  0  0
   27.2965    0.4857  -64.5857 C   0  0  0  1  0  0  0  0  0  0  0  0
   26.4936    1.1852  -63.6614 C   0  0  0  1  0  0  0  0  0  0  0  0
   27.0809    1.0061  -62.4394 N   0  0  0  1  0  0  0  0  0  0  0  0
   28.3159   -0.0766  -63.9004 N   0  0  0  1  0  0  0  0  0  0  0  0
   28.2164    0.2093  -62.6490 N   0  0  0  1  0  0  0  0  0  0  0  0
   25.6363    2.5311  -57.3123 O   0  0  0  1  0  0  0  0  0  0  0  0
   24.0074    2.4762  -65.7838 N   0  0  0  1  0  0  0  0  0  0  0  0
   24.4434    3.2946  -57.0747 C   0  0  0  1  0  0  0  0  0  0  0  0
   22.5178    5.4068  -64.7013 N   0  0  0  1  0  0  0  0  0  0  0  0
   23.5074    4.5775  -64.6074 C   0  0  0  1  0  0  0  0  0  0  0  0
   21.8307    7.1543  -63.2390 C   0  0  0  1  0  0  0  0  0  0  0  0
   22.0124    8.4491  -62.7918 C   0  0  0  1  0  0  0  0  0  0  0  0
   22.8956    9.2955  -63.3304 N   0  0  0  1  0  0  0  0  0  0  0  0
   23.6312    8.8446  -64.3564 C   0  0  0  1  0  0  0  0  0  0  0  0
   23.5170    7.5625  -64.8648 C   0  0  0  1  0  0  0  0  0  0  0  0
   27.4789    0.0013  -66.6491 H   0  0  0  1  0  0  0  0  0  0  0  0
   28.2665    0.4213  -60.1569 H   0  0  0  1  0  0  0  0  0  0  0  0
   24.3915    3.2785  -59.5846 H   0  0  0  1  0  0  0  0  0  0  0  0
   25.0838    2.6075  -61.8065 H   0  0  0  1  0  0  0  0  0  0  0  0
   27.5729    1.0935  -57.9312 H   0  0  0  1  0  0  0  0  0  0  0  0
   22.8841    2.6039  -64.0337 H   0  0  0  1  0  0  0  0  0  0  0  0
   21.8664    3.3452  -66.7299 H   0  0  0  1  0  0  0  0  0  0  0  0
   20.9843    2.6902  -65.3708 H   0  0  0  1  0  0  0  0  0  0  0  0
   20.9208    5.3439  -66.1799 H   0  0  0  1  0  0  0  0  0  0  0  0
   20.4384    4.7689  -64.6016 H   0  0  0  1  0  0  0  0  0  0  0  0
   23.8370    2.4967  -66.7485 H   0  0  0  1  0  0  0  0  0  0  0  0
   23.5905    2.7341  -57.3965 H   0  0  0  1  0  0  0  0  0  0  0  0
   24.4932    4.2131  -57.6215 H   0  0  0  1  0  0  0  0  0  0  0  0
   24.3575    3.5055  -56.0292 H   0  0  0  1  0  0  0  0  0  0  0  0
   23.8969    4.6029  -63.6112 H   0  0  0  1  0  0  0  0  0  0  0  0
   24.2737    4.8618  -65.2979 H   0  0  0  1  0  0  0  0  0  0  0  0
   21.1289    6.5321  -62.7896 H   0  0  0  1  0  0  0  0  0  0  0  0
   21.4322    8.7821  -61.9955 H   0  0  0  1  0  0  0  0  0  0  0  0
   24.3214    9.4896  -64.7914 H   0  0  0  1  0  0  0  0  0  0  0  0
   24.1108    7.2532  -65.6608 H   0  0  0  1  0  0  0  0  0  0  0  0
  1  3  4  0  0  0  0
  1 14  4  0  0  0  0
  1 21  1  0  0  0  0
  2 14  4  0  0  0  0
  2 15  4  0  0  0  0
  2 30  1  0  0  0  0
  3 16  4  0  0  0  0
  4  5  4  0  0  0  0
  4  7  4  0  0  0  0
  4 17  1  0  0  0  0
  5  9  4  0  0  0  0
  5 31  1  0  0  0  0
  6  7  4  0  0  0  0
  6  8  4  0  0  0  0
  6 32  1  0  0  0  0
  7 33  1  0  0  0  0
  8  9  4  0  0  0  0
  8 20  1  0  0  0  0
  9 34  1  0  0  0  0
 10 11  1  0  0  0  0
 10 21  1  0  0  0  0
 10 24  1  0  0  0  0
 10 35  1  0  0  0  0
 11 12  1  0  0  0  0
 11 36  1  0  0  0  0
 11 37  1  0  0  0  0
 12 23  1  0  0  0  0
 12 38  1  0  0  0  0
 12 39  1  0  0  0  0
 13 23  1  0  0  0  0
 13 25  4  0  0  0  0
 13 29  4  0  0  0  0
 15 16  4  0  0  0  0
 15 18  4  0  0  0  0
 16 17  4  0  0  0  0
 17 19  4  0  0  0  0
 18 19  4  0  0  0  0
 20 22  1  0  0  0  0
 21 40  1  0  0  0  0
 22 41  1  0  0  0  0
 22 42  1  0  0  0  0
 22 43  1  0  0  0  0
 23 24  1  0  0  0  0
 24 44  1  0  0  0  0
 24 45  1  0  0  0  0
 25 26  4  0  0  0  0
 25 46  1  0  0  0  0
 26 27  4  0  0  0  0
 26 47  1  0  0  0  0
 27 28  4  0  0  0  0
 28 29  4  0  0  0  0
 28 48  1  0  0  0  0
 29 49  1  0  0  0  0
M  END
> <ConfClashScore>
0 

> <ConfOneFourInteractionScore>
-0.984874 

> <ConfScore>
0.0497366 

> <ConfScorePBest>
0.00306011 

> <ConfTolerance>
0.594366 

> <HETNAM>
     OWQ A 303  OWQ                                                       

> <pdb_OW>
Q_303 -16.5129 3.80749 7.62812 0.15963 1.39178 -0.28144 -3.20151 0 0 0 -1.30514 0 0 0 0 0 0 0 0 -8.31393

$$$$
6yky_lig_1.pdb
 OpenBabel04162415593D

 49 53  0  0  0  0  0  0  0  0999 V2000
   25.1047    1.8133  -65.3760 C   0  0  0  1  0  0  0  0  0  0  0  0
   26.9167    0.5034  -65.9326 C   0  0  0  1  0  0  0  0  0  0  0  0
   25.4177    1.8281  -64.0982 N   0  0  0  1  0  0  0  0  0  0  0  0
   26.6875    1.3783  -61.1214 C   0  0  0  1  0  0  0  0  0  0  0  0
   25.5426    2.1275  -60.9267 C   0  0  0  1  0  0  0  0  0  0  0  0
   27.1700    1.5018  -58.7765 C   0  0  0  1  0  0  0  0  0  0  0  0
   27.5039    1.0672  -60.0453 C   0  0  0  1  0  0  0  0  0  0  0  0
   26.0217    2.2532  -58.5809 C   0  0  0  1  0  0  0  0  0  0  0  0
   25.2078    2.5632  -59.6541 C   0  0  0  1  0  0  0  0  0  0  0  0
   23.6265    2.6345  -67.1816 C   0  0  0  1  0  0  0  0  0  0  0  0
   23.4469    4.1293  -67.5657 C   0  0  0  1  0  0  0  0  0  0  0  0
   22.4260    4.1916  -68.7212 C   0  0  0  1  0  0  0  0  0  0  0  0
   20.8642    2.3737  -69.5854 C   0  0  0  1  0  0  0  0  0  0  0  0
   25.8296    1.1706  -66.2747 N   0  0  0  1  0  0  0  0  0  0  0  0
   27.2964    0.4857  -64.5857 C   0  0  0  1  0  0  0  0  0  0  0  0
   26.4936    1.1851  -63.6614 C   0  0  0  1  0  0  0  0  0  0  0  0
   27.0808    1.0060  -62.4394 N   0  0  0  1  0  0  0  0  0  0  0  0
   28.3159   -0.0766  -63.9004 N   0  0  0  1  0  0  0  0  0  0  0  0
   28.2164    0.2092  -62.6490 N   0  0  0  1  0  0  0  0  0  0  0  0
   25.5965    2.7369  -57.3896 O   0  0  0  1  0  0  0  0  0  0  0  0
   24.0073    2.4760  -65.7837 N   0  0  0  1  0  0  0  0  0  0  0  0
   26.2959    2.2965  -56.2152 C   0  0  0  1  0  0  0  0  0  0  0  0
   21.7650    2.8579  -68.6484 N   0  0  0  1  0  0  0  0  0  0  0  0
   22.1973    2.1238  -67.4479 C   0  0  0  1  0  0  0  0  0  0  0  0
   21.2550    1.7163  -70.7372 C   0  0  0  1  0  0  0  0  0  0  0  0
   20.2813    1.2669  -71.6088 C   0  0  0  1  0  0  0  0  0  0  0  0
   18.9723    1.4368  -71.3993 N   0  0  0  1  0  0  0  0  0  0  0  0
   18.6079    2.0797  -70.2808 C   0  0  0  1  0  0  0  0  0  0  0  0
   19.5154    2.5592  -69.3525 C   0  0  0  1  0  0  0  0  0  0  0  0
   27.4789    0.0014  -66.6492 H   0  0  0  1  0  0  0  0  0  0  0  0
   24.9322    2.3642  -61.7347 H   0  0  0  1  0  0  0  0  0  0  0  0
   27.7804    1.2650  -57.9684 H   0  0  0  1  0  0  0  0  0  0  0  0
   28.3676    0.5068  -60.1926 H   0  0  0  1  0  0  0  0  0  0  0  0
   24.3442    3.1236  -59.5068 H   0  0  0  1  0  0  0  0  0  0  0  0
   24.3463    2.1469  -67.8052 H   0  0  0  1  0  0  0  0  0  0  0  0
   24.3827    4.5400  -67.8826 H   0  0  0  1  0  0  0  0  0  0  0  0
   23.0809    4.6810  -66.7251 H   0  0  0  1  0  0  0  0  0  0  0  0
   22.9168    4.3278  -69.6623 H   0  0  0  1  0  0  0  0  0  0  0  0
   21.7196    4.9808  -68.5694 H   0  0  0  1  0  0  0  0  0  0  0  0
   23.4297    2.8758  -65.1004 H   0  0  0  1  0  0  0  0  0  0  0  0
   25.5951    1.9048  -55.5079 H   0  0  0  1  0  0  0  0  0  0  0  0
   26.8173    3.1233  -55.7799 H   0  0  0  1  0  0  0  0  0  0  0  0
   26.9965    1.5333  -56.4827 H   0  0  0  1  0  0  0  0  0  0  0  0
   21.5565    2.3422  -66.6192 H   0  0  0  1  0  0  0  0  0  0  0  0
   22.1997    1.0693  -67.6292 H   0  0  0  1  0  0  0  0  0  0  0  0
   22.2626    1.5629  -70.9438 H   0  0  0  1  0  0  0  0  0  0  0  0
   20.5825    0.7711  -72.4719 H   0  0  0  1  0  0  0  0  0  0  0  0
   17.5937    2.2250  -70.1019 H   0  0  0  1  0  0  0  0  0  0  0  0
   19.1882    3.0499  -68.4960 H   0  0  0  1  0  0  0  0  0  0  0  0
  1  3  4  0  0  0  0
  1 14  4  0  0  0  0
  1 21  1  0  0  0  0
  2 14  4  0  0  0  0
  2 15  4  0  0  0  0
  2 30  1  0  0  0  0
  3 16  4  0  0  0  0
  4  5  4  0  0  0  0
  4  7  4  0  0  0  0
  4 17  1  0  0  0  0
  5  9  4  0  0  0  0
  5 31  1  0  0  0  0
  6  7  4  0  0  0  0
  6  8  4  0  0  0  0
  6 32  1  0  0  0  0
  7 33  1  0  0  0  0
  8  9  4  0  0  0  0
  8 20  1  0  0  0  0
  9 34  1  0  0  0  0
 10 11  1  0  0  0  0
 10 21  1  0  0  0  0
 10 24  1  0  0  0  0
 10 35  1  0  0  0  0
 11 12  1  0  0  0  0
 11 36  1  0  0  0  0
 11 37  1  0  0  0  0
 12 23  1  0  0  0  0
 12 38  1  0  0  0  0
 12 39  1  0  0  0  0
 13 23  1  0  0  0  0
 13 25  4  0  0  0  0
 13 29  4  0  0  0  0
 15 16  4  0  0  0  0
 15 18  4  0  0  0  0
 16 17  4  0  0  0  0
 17 19  4  0  0  0  0
 18 19  4  0  0  0  0
 20 22  1  0  0  0  0
 21 40  1  0  0  0  0
 22 41  1  0  0  0  0
 22 42  1  0  0  0  0
 22 43  1  0  0  0  0
 23 24  1  0  0  0  0
 24 44  1  0  0  0  0
 24 45  1  0  0  0  0
 25 26  4  0  0  0  0
 25 46  1  0  0  0  0
 26 27  4  0  0  0  0
 26 47  1  0  0  0  0
 27 28  4  0  0  0  0
 28 29  4  0  0  0  0
 28 48  1  0  0  0  0
 29 49  1  0  0  0  0
M  END
> <ConfClashScore>
0 

> <ConfOneFourInteractionScore>
-0.986948 

> <ConfScore>
0.0507949 

> <ConfScorePBest>
0.00304678 

> <ConfTolerance>
0.441465 

> <HETNAM>
     OWQ A 303  OWQ                                                       

> <pdb_OW>
Q_303 -16.5129 3.80749 7.62812 0.15963 1.39178 -0.28144 -3.20151 0 0 0 -1.30514 0 0 0 0 0 0 0 0 -8.31393

$$$$
6yky_lig_1.pdb
 OpenBabel04162415593D

 49 53  0  0  0  0  0  0  0  0999 V2000
   25.1048    1.8135  -65.3760 C   0  0  0  1  0  0  0  0  0  0  0  0
   26.9167    0.5034  -65.9326 C   0  0  0  1  0  0  0  0  0  0  0  0
   25.4178    1.8283  -64.0982 N   0  0  0  1  0  0  0  0  0  0  0  0
   26.7286    1.4699  -61.1391 C   0  0  0  1  0  0  0  0  0  0  0  0
   26.3848    0.5243  -60.1915 C   0  0  0  1  0  0  0  0  0  0  0  0
   26.2016    3.2198  -59.5875 C   0  0  0  1  0  0  0  0  0  0  0  0
   26.6343    2.8197  -60.8376 C   0  0  0  1  0  0  0  0  0  0  0  0
   25.8568    2.2715  -58.6369 C   0  0  0  1  0  0  0  0  0  0  0  0
   25.9508    0.9258  -58.9377 C   0  0  0  1  0  0  0  0  0  0  0  0
   23.0219    3.0913  -64.8288 C   0  0  0  1  0  0  0  0  0  0  0  0
   21.6440    3.2263  -65.5143 C   0  0  0  1  0  0  0  0  0  0  0  0
   21.0702    4.5641  -65.1206 C   0  0  0  1  0  0  0  0  0  0  0  0
   22.3107    6.5960  -64.1332 C   0  0  0  1  0  0  0  0  0  0  0  0
   25.8297    1.1707  -66.2748 N   0  0  0  1  0  0  0  0  0  0  0  0
   27.2965    0.4857  -64.5857 C   0  0  0  1  0  0  0  0  0  0  0  0
   26.4936    1.1852  -63.6614 C   0  0  0  1  0  0  0  0  0  0  0  0
   27.0809    1.0062  -62.4395 N   0  0  0  1  0  0  0  0  0  0  0  0
   28.3158   -0.0766  -63.9004 N   0  0  0  1  0  0  0  0  0  0  0  0
   28.2164    0.2092  -62.6490 N   0  0  0  1  0  0  0  0  0  0  0  0
   25.4278    2.6637  -57.4138 O   0  0  0  1  0  0  0  0  0  0  0  0
   24.0052    2.4865  -65.7332 N   0  0  0  1  0  0  0  0  0  0  0  0
   25.0969    1.6310  -56.4723 C   0  0  0  1  0  0  0  0  0  0  0  0
   22.3212    5.2732  -64.5577 N   0  0  0  1  0  0  0  0  0  0  0  0
   23.3806    4.5304  -64.5150 C   0  0  0  1  0  0  0  0  0  0  0  0
   21.1551    7.3514  -64.2090 C   0  0  0  1  0  0  0  0  0  0  0  0
   21.1879    8.6620  -63.7721 C   0  0  0  1  0  0  0  0  0  0  0  0
   22.2849    9.2451  -63.2794 N   0  0  0  1  0  0  0  0  0  0  0  0
   23.3993    8.5025  -63.2158 C   0  0  0  1  0  0  0  0  0  0  0  0
   23.4545    7.1823  -63.6274 C   0  0  0  1  0  0  0  0  0  0  0  0
   27.4790    0.0014  -66.6492 H   0  0  0  1  0  0  0  0  0  0  0  0
   26.4518   -0.4882  -60.4190 H   0  0  0  1  0  0  0  0  0  0  0  0
   26.1347    4.2324  -59.3599 H   0  0  0  1  0  0  0  0  0  0  0  0
   26.8891    3.5311  -61.5521 H   0  0  0  1  0  0  0  0  0  0  0  0
   25.6960    0.2143  -58.2232 H   0  0  0  1  0  0  0  0  0  0  0  0
   22.9522    2.5074  -63.9348 H   0  0  0  1  0  0  0  0  0  0  0  0
   20.9953    2.4406  -65.1879 H   0  0  0  1  0  0  0  0  0  0  0  0
   21.7585    3.1768  -66.5770 H   0  0  0  1  0  0  0  0  0  0  0  0
   20.6722    5.0842  -65.9667 H   0  0  0  1  0  0  0  0  0  0  0  0
   20.3097    4.4604  -64.3750 H   0  0  0  1  0  0  0  0  0  0  0  0
   23.8406    2.5852  -66.6942 H   0  0  0  1  0  0  0  0  0  0  0  0
   25.2221    2.0019  -55.4765 H   0  0  0  1  0  0  0  0  0  0  0  0
   25.7420    0.7907  -56.6234 H   0  0  0  1  0  0  0  0  0  0  0  0
   24.0799    1.3307  -56.6155 H   0  0  0  1  0  0  0  0  0  0  0  0
   24.0893    4.8833  -65.2349 H   0  0  0  1  0  0  0  0  0  0  0  0
   23.8098    4.5826  -63.5362 H   0  0  0  1  0  0  0  0  0  0  0  0
   20.2778    6.9409  -64.5876 H   0  0  0  1  0  0  0  0  0  0  0  0
   20.3143    9.2234  -63.8298 H   0  0  0  1  0  0  0  0  0  0  0  0
   24.2644    8.9397  -62.8388 H   0  0  0  1  0  0  0  0  0  0  0  0
   24.3403    6.6420  -63.5573 H   0  0  0  1  0  0  0  0  0  0  0  0
  1  3  4  0  0  0  0
  1 14  4  0  0  0  0
  1 21  1  0  0  0  0
  2 14  4  0  0  0  0
  2 15  4  0  0  0  0
  2 30  1  0  0  0  0
  3 16  4  0  0  0  0
  4  5  4  0  0  0  0
  4  7  4  0  0  0  0
  4 17  1  0  0  0  0
  5  9  4  0  0  0  0
  5 31  1  0  0  0  0
  6  7  4  0  0  0  0
  6  8  4  0  0  0  0
  6 32  1  0  0  0  0
  7 33  1  0  0  0  0
  8  9  4  0  0  0  0
  8 20  1  0  0  0  0
  9 34  1  0  0  0  0
 10 11  1  0  0  0  0
 10 21  1  0  0  0  0
 10 24  1  0  0  0  0
 10 35  1  0  0  0  0
 11 12  1  0  0  0  0
 11 36  1  0  0  0  0
 11 37  1  0  0  0  0
 12 23  1  0  0  0  0
 12 38  1  0  0  0  0
 12 39  1  0  0  0  0
 13 23  1  0  0  0  0
 13 25  4  0  0  0  0
 13 29  4  0  0  0  0
 15 16  4  0  0  0  0
 15 18  4  0  0  0  0
 16 17  4  0  0  0  0
 17 19  4  0  0  0  0
 18 19  4  0  0  0  0
 20 22  1  0  0  0  0
 21 40  1  0  0  0  0
 22 41  1  0  0  0  0
 22 42  1  0  0  0  0
 22 43  1  0  0  0  0
 23 24  1  0  0  0  0
 24 44  1  0  0  0  0
 24 45  1  0  0  0  0
 25 26  4  0  0  0  0
 25 46  1  0  0  0  0
 26 27  4  0  0  0  0
 26 47  1  0  0  0  0
 27 28  4  0  0  0  0
 28 29  4  0  0  0  0
 28 48  1  0  0  0  0
 29 49  1  0  0  0  0
M  END
> <ConfClashScore>
0 

> <ConfOneFourInteractionScore>
-0.984874 

> <ConfScore>
0.0537986 

> <ConfScorePBest>
0.00303345 

> <ConfTolerance>
0.640835 

> <HETNAM>
     OWQ A 303  OWQ                                                       

> <pdb_OW>
Q_303 -16.5129 3.80749 7.62812 0.15963 1.39178 -0.28144 -3.20151 0 0 0 -1.30514 0 0 0 0 0 0 0 0 -8.31393

$$$$
6yky_lig_1.pdb
 OpenBabel04162415593D

 49 53  0  0  0  0  0  0  0  0999 V2000
   25.1047    1.8135  -65.3760 C   0  0  0  1  0  0  0  0  0  0  0  0
   26.9167    0.5034  -65.9326 C   0  0  0  1  0  0  0  0  0  0  0  0
   25.4177    1.8283  -64.0983 N   0  0  0  1  0  0  0  0  0  0  0  0
   26.7864    1.5429  -61.1529 C   0  0  0  1  0  0  0  0  0  0  0  0
   26.6240    2.9060  -60.9924 C   0  0  0  1  0  0  0  0  0  0  0  0
   26.5561    1.2347  -58.7866 C   0  0  0  1  0  0  0  0  0  0  0  0
   26.7551    0.7061  -60.0481 C   0  0  0  1  0  0  0  0  0  0  0  0
   26.3932    2.6018  -58.6255 C   0  0  0  1  0  0  0  0  0  0  0  0
   26.4245    3.4359  -59.7272 C   0  0  0  1  0  0  0  0  0  0  0  0
   23.6184    2.5535  -67.1914 C   0  0  0  1  0  0  0  0  0  0  0  0
   24.0442    3.8907  -67.8180 C   0  0  0  1  0  0  0  0  0  0  0  0
   23.0798    3.9976  -69.0092 C   0  0  0  1  0  0  0  0  0  0  0  0
   21.2500    2.3309  -69.7684 C   0  0  0  1  0  0  0  0  0  0  0  0
   25.8297    1.1706  -66.2748 N   0  0  0  1  0  0  0  0  0  0  0  0
   27.2965    0.4858  -64.5857 C   0  0  0  1  0  0  0  0  0  0  0  0
   26.4936    1.1851  -63.6614 C   0  0  0  1  0  0  0  0  0  0  0  0
   27.0808    1.0060  -62.4395 N   0  0  0  1  0  0  0  0  0  0  0  0
   28.3159   -0.0766  -63.9004 N   0  0  0  1  0  0  0  0  0  0  0  0
   28.2164    0.2092  -62.6490 N   0  0  0  1  0  0  0  0  0  0  0  0
   26.2113    3.0032  -57.3450 O   0  0  0  1  0  0  0  0  0  0  0  0
   23.9919    2.4854  -65.7896 N   0  0  0  1  0  0  0  0  0  0  0  0
   25.8105    4.3663  -57.1353 C   0  0  0  1  0  0  0  0  0  0  0  0
   22.0704    2.9173  -68.7963 N   0  0  0  1  0  0  0  0  0  0  0  0
   22.1098    2.5914  -67.3586 C   0  0  0  1  0  0  0  0  0  0  0  0
   20.0760    2.9450  -70.1636 C   0  0  0  1  0  0  0  0  0  0  0  0
   19.2984    2.3337  -71.1285 C   0  0  0  1  0  0  0  0  0  0  0  0
   19.6198    1.1707  -71.7032 N   0  0  0  1  0  0  0  0  0  0  0  0
   20.7585    0.5842  -71.3073 C   0  0  0  1  0  0  0  0  0  0  0  0
   21.5981    1.1278  -70.3507 C   0  0  0  1  0  0  0  0  0  0  0  0
   27.4790    0.0015  -66.6492 H   0  0  0  1  0  0  0  0  0  0  0  0
   26.6515    3.5341  -61.8209 H   0  0  0  1  0  0  0  0  0  0  0  0
   26.5287    0.6066  -57.9581 H   0  0  0  1  0  0  0  0  0  0  0  0
   26.8813   -0.3190  -60.1685 H   0  0  0  1  0  0  0  0  0  0  0  0
   26.2982    4.4611  -59.6069 H   0  0  0  1  0  0  0  0  0  0  0  0
   24.0467    1.7249  -67.7157 H   0  0  0  1  0  0  0  0  0  0  0  0
   25.0633    3.8621  -68.1429 H   0  0  0  1  0  0  0  0  0  0  0  0
   23.9101    4.7022  -67.1337 H   0  0  0  1  0  0  0  0  0  0  0  0
   23.6031    3.8453  -69.9301 H   0  0  0  1  0  0  0  0  0  0  0  0
   22.6053    4.9566  -69.0225 H   0  0  0  1  0  0  0  0  0  0  0  0
   23.4300    2.9339  -65.1235 H   0  0  0  1  0  0  0  0  0  0  0  0
   25.7524    4.5640  -56.0854 H   0  0  0  1  0  0  0  0  0  0  0  0
   24.8520    4.5287  -57.5821 H   0  0  0  1  0  0  0  0  0  0  0  0
   26.5286    5.0217  -57.5822 H   0  0  0  1  0  0  0  0  0  0  0  0
   21.6546    3.3513  -66.7583 H   0  0  0  1  0  0  0  0  0  0  0  0
   21.6546    1.6469  -67.1449 H   0  0  0  1  0  0  0  0  0  0  0  0
   19.7837    3.8500  -69.7426 H   0  0  0  1  0  0  0  0  0  0  0  0
   18.4180    2.8027  -71.4227 H   0  0  0  1  0  0  0  0  0  0  0  0
   21.0239   -0.3235  -71.7401 H   0  0  0  1  0  0  0  0  0  0  0  0
   22.4742    0.6397  -70.0757 H   0  0  0  1  0  0  0  0  0  0  0  0
  1  3  4  0  0  0  0
  1 14  4  0  0  0  0
  1 21  1  0  0  0  0
  2 14  4  0  0  0  0
  2 15  4  0  0  0  0
  2 30  1  0  0  0  0
  3 16  4  0  0  0  0
  4  5  4  0  0  0  0
  4  7  4  0  0  0  0
  4 17  1  0  0  0  0
  5  9  4  0  0  0  0
  5 31  1  0  0  0  0
  6  7  4  0  0  0  0
  6  8  4  0  0  0  0
  6 32  1  0  0  0  0
  7 33  1  0  0  0  0
  8  9  4  0  0  0  0
  8 20  1  0  0  0  0
  9 34  1  0  0  0  0
 10 11  1  0  0  0  0
 10 21  1  0  0  0  0
 10 24  1  0  0  0  0
 10 35  1  0  0  0  0
 11 12  1  0  0  0  0
 11 36  1  0  0  0  0
 11 37  1  0  0  0  0
 12 23  1  0  0  0  0
 12 38  1  0  0  0  0
 12 39  1  0  0  0  0
 13 23  1  0  0  0  0
 13 25  4  0  0  0  0
 13 29  4  0  0  0  0
 15 16  4  0  0  0  0
 15 18  4  0  0  0  0
 16 17  4  0  0  0  0
 17 19  4  0  0  0  0
 18 19  4  0  0  0  0
 20 22  1  0  0  0  0
 21 40  1  0  0  0  0
 22 41  1  0  0  0  0
 22 42  1  0  0  0  0
 22 43  1  0  0  0  0
 23 24  1  0  0  0  0
 24 44  1  0  0  0  0
 24 45  1  0  0  0  0
 25 26  4  0  0  0  0
 25 46  1  0  0  0  0
 26 27  4  0  0  0  0
 26 47  1  0  0  0  0
 27 28  4  0  0  0  0
 28 29  4  0  0  0  0
 28 48  1  0  0  0  0
 29 49  1  0  0  0  0
M  END
> <ConfClashScore>
0 

> <ConfOneFourInteractionScore>
-0.986948 

> <ConfScore>
0.0545964 

> <ConfScorePBest>
0.00302012 

> <ConfTolerance>
0.515098 

> <HETNAM>
     OWQ A 303  OWQ                                                       

> <pdb_OW>
Q_303 -16.5129 3.80749 7.62812 0.15963 1.39178 -0.28144 -3.20151 0 0 0 -1.30514 0 0 0 0 0 0 0 0 -8.31393

$$$$
6yky_lig_1.pdb
 OpenBabel04162415593D

 49 53  0  0  0  0  0  0  0  0999 V2000
   25.1047    1.8133  -65.3760 C   0  0  0  1  0  0  0  0  0  0  0  0
   26.9167    0.5034  -65.9326 C   0  0  0  1  0  0  0  0  0  0  0  0
   25.4177    1.8282  -64.0982 N   0  0  0  1  0  0  0  0  0  0  0  0
   26.7285    1.4698  -61.1391 C   0  0  0  1  0  0  0  0  0  0  0  0
   25.5119    2.1090  -60.9931 C   0  0  0  1  0  0  0  0  0  0  0  0
   27.2455    1.9248  -58.8428 C   0  0  0  1  0  0  0  0  0  0  0  0
   27.5979    1.3798  -60.0631 C   0  0  0  1  0  0  0  0  0  0  0  0
   26.0253    2.5662  -58.6963 C   0  0  0  1  0  0  0  0  0  0  0  0
   25.1586    2.6557  -59.7693 C   0  0  0  1  0  0  0  0  0  0  0  0
   23.7004    2.5834  -67.2614 C   0  0  0  1  0  0  0  0  0  0  0  0
   22.2245    3.0134  -67.4871 C   0  0  0  1  0  0  0  0  0  0  0  0
   21.7850    2.4604  -68.8590 C   0  0  0  1  0  0  0  0  0  0  0  0
   22.9381    0.7120  -70.3768 C   0  0  0  1  0  0  0  0  0  0  0  0
   25.8296    1.1706  -66.2747 N   0  0  0  1  0  0  0  0  0  0  0  0
   27.2965    0.4857  -64.5857 C   0  0  0  1  0  0  0  0  0  0  0  0
   26.4935    1.1851  -63.6614 C   0  0  0  1  0  0  0  0  0  0  0  0
   27.0809    1.0061  -62.4394 N   0  0  0  1  0  0  0  0  0  0  0  0
   28.3159   -0.0766  -63.9004 N   0  0  0  1  0  0  0  0  0  0  0  0
   28.2164    0.2092  -62.6490 N   0  0  0  1  0  0  0  0  0  0  0  0
   25.7927    3.0643  -57.4588 O   0  0  0  1  0  0  0  0  0  0  0  0
   24.0169    2.4581  -65.8492 N   0  0  0  1  0  0  0  0  0  0  0  0
   24.5716    3.7949  -57.2644 C   0  0  0  1  0  0  0  0  0  0  0  0
   22.8134    1.4187  -69.1384 N   0  0  0  1  0  0  0  0  0  0  0  0
   23.6837    1.2145  -67.9688 C   0  0  0  1  0  0  0  0  0  0  0  0
   21.9169    0.7371  -71.3086 C   0  0  0  1  0  0  0  0  0  0  0  0
   22.0806    0.0441  -72.4929 C   0  0  0  1  0  0  0  0  0  0  0  0
   23.1793   -0.6573  -72.7881 N   0  0  0  1  0  0  0  0  0  0  0  0
   24.1596   -0.6766  -71.8738 C   0  0  0  1  0  0  0  0  0  0  0  0
   24.0809   -0.0085  -70.6643 C   0  0  0  1  0  0  0  0  0  0  0  0
   27.4789    0.0014  -66.6492 H   0  0  0  1  0  0  0  0  0  0  0  0
   24.8614    2.1800  -61.8016 H   0  0  0  1  0  0  0  0  0  0  0  0
   27.8960    1.8539  -58.0345 H   0  0  0  1  0  0  0  0  0  0  0  0
   28.5151    0.9023  -60.1741 H   0  0  0  1  0  0  0  0  0  0  0  0
   24.2415    3.1332  -59.6583 H   0  0  0  1  0  0  0  0  0  0  0  0
   24.3877    3.2616  -67.7225 H   0  0  0  1  0  0  0  0  0  0  0  0
   22.1503    4.0808  -67.4829 H   0  0  0  1  0  0  0  0  0  0  0  0
   21.6042    2.6092  -66.7147 H   0  0  0  1  0  0  0  0  0  0  0  0
   20.8062    2.0313  -68.8061 H   0  0  0  1  0  0  0  0  0  0  0  0
   21.7993    3.2264  -69.6059 H   0  0  0  1  0  0  0  0  0  0  0  0
   23.4045    2.8657  -65.2016 H   0  0  0  1  0  0  0  0  0  0  0  0
   23.8852    3.1994  -56.6995 H   0  0  0  1  0  0  0  0  0  0  0  0
   24.1412    4.0293  -58.2156 H   0  0  0  1  0  0  0  0  0  0  0  0
   24.7787    4.7004  -56.7332 H   0  0  0  1  0  0  0  0  0  0  0  0
   24.6700    0.9345  -68.2749 H   0  0  0  1  0  0  0  0  0  0  0  0
   23.2819    0.4603  -67.3249 H   0  0  0  1  0  0  0  0  0  0  0  0
   21.0423    1.2677  -71.1217 H   0  0  0  1  0  0  0  0  0  0  0  0
   21.3094    0.0696  -73.1901 H   0  0  0  1  0  0  0  0  0  0  0  0
   25.0211   -1.2202  -72.0836 H   0  0  0  1  0  0  0  0  0  0  0  0
   24.8673   -0.0481  -69.9849 H   0  0  0  1  0  0  0  0  0  0  0  0
  1  3  4  0  0  0  0
  1 14  4  0  0  0  0
  1 21  1  0  0  0  0
  2 14  4  0  0  0  0
  2 15  4  0  0  0  0
  2 30  1  0  0  0  0
  3 16  4  0  0  0  0
  4  5  4  0  0  0  0
  4  7  4  0  0  0  0
  4 17  1  0  0  0  0
  5  9  4  0  0  0  0
  5 31  1  0  0  0  0
  6  7  4  0  0  0  0
  6  8  4  0  0  0  0
  6 32  1  0  0  0  0
  7 33  1  0  0  0  0
  8  9  4  0  0  0  0
  8 20  1  0  0  0  0
  9 34  1  0  0  0  0
 10 11  1  0  0  0  0
 10 21  1  0  0  0  0
 10 24  1  0  0  0  0
 10 35  1  0  0  0  0
 11 12  1  0  0  0  0
 11 36  1  0  0  0  0
 11 37  1  0  0  0  0
 12 23  1  0  0  0  0
 12 38  1  0  0  0  0
 12 39  1  0  0  0  0
 13 23  1  0  0  0  0
 13 25  4  0  0  0  0
 13 29  4  0  0  0  0
 15 16  4  0  0  0  0
 15 18  4  0  0  0  0
 16 17  4  0  0  0  0
 17 19  4  0  0  0  0
 18 19  4  0  0  0  0
 20 22  1  0  0  0  0
 21 40  1  0  0  0  0
 22 41  1  0  0  0  0
 22 42  1  0  0  0  0
 22 43  1  0  0  0  0
 23 24  1  0  0  0  0
 24 44  1  0  0  0  0
 24 45  1  0  0  0  0
 25 26  4  0  0  0  0
 25 46  1  0  0  0  0
 26 27  4  0  0  0  0
 26 47  1  0  0  0  0
 27 28  4  0  0  0  0
 28 29  4  0  0  0  0
 28 48  1  0  0  0  0
 29 49  1  0  0  0  0
M  END
> <ConfClashScore>
0 

> <ConfOneFourInteractionScore>
-0.987833 

> <ConfScore>
0.0550957 

> <ConfScorePBest>
0.00300679 

> <ConfTolerance>
0.312143 

> <HETNAM>
     OWQ A 303  OWQ                                                       

> <pdb_OW>
Q_303 -16.5129 3.80749 7.62812 0.15963 1.39178 -0.28144 -3.20151 0 0 0 -1.30514 0 0 0 0 0 0 0 0 -8.31393

$$$$
6yky_lig_1.pdb
 OpenBabel04162415593D

 49 53  0  0  0  0  0  0  0  0999 V2000
   25.1047    1.8135  -65.3760 C   0  0  0  1  0  0  0  0  0  0  0  0
   26.9167    0.5034  -65.9326 C   0  0  0  1  0  0  0  0  0  0  0  0
   25.4178    1.8283  -64.0982 N   0  0  0  1  0  0  0  0  0  0  0  0
   26.6148    1.3087  -61.1274 C   0  0  0  1  0  0  0  0  0  0  0  0
   26.1445    2.5749  -60.8350 C   0  0  0  1  0  0  0  0  0  0  0  0
   26.3502    0.6774  -58.8299 C   0  0  0  1  0  0  0  0  0  0  0  0
   26.7204    0.3592  -60.1230 C   0  0  0  1  0  0  0  0  0  0  0  0
   25.8786    1.9474  -58.5364 C   0  0  0  1  0  0  0  0  0  0  0  0
   25.7733    2.8940  -59.5381 C   0  0  0  1  0  0  0  0  0  0  0  0
   23.1154    3.1933  -64.8892 C   0  0  0  1  0  0  0  0  0  0  0  0
   22.2340    2.2158  -64.0803 C   0  0  0  1  0  0  0  0  0  0  0  0
   20.8456    2.8010  -64.0189 C   0  0  0  1  0  0  0  0  0  0  0  0
   19.8223    4.6498  -65.5119 C   0  0  0  1  0  0  0  0  0  0  0  0
   25.8297    1.1706  -66.2747 N   0  0  0  1  0  0  0  0  0  0  0  0
   27.2965    0.4857  -64.5857 C   0  0  0  1  0  0  0  0  0  0  0  0
   26.4936    1.1852  -63.6614 C   0  0  0  1  0  0  0  0  0  0  0  0
   27.0809    1.0062  -62.4395 N   0  0  0  1  0  0  0  0  0  0  0  0
   28.3159   -0.0766  -63.9004 N   0  0  0  1  0  0  0  0  0  0  0  0
   28.2164    0.2092  -62.6490 N   0  0  0  1  0  0  0  0  0  0  0  0
   25.5251    2.2570  -57.2836 O   0  0  0  1  0  0  0  0  0  0  0  0
   24.0074    2.4761  -65.7838 N   0  0  0  1  0  0  0  0  0  0  0  0
   25.7560    1.3336  -56.1670 C   0  0  0  1  0  0  0  0  0  0  0  0
   20.9237    3.8751  -65.1260 N   0  0  0  1  0  0  0  0  0  0  0  0
   22.0932    3.9987  -65.6669 C   0  0  0  1  0  0  0  0  0  0  0  0
   19.9533    5.6280  -66.4802 C   0  0  0  1  0  0  0  0  0  0  0  0
   18.8401    6.3666  -66.8338 C   0  0  0  1  0  0  0  0  0  0  0  0
   17.6349    6.1877  -66.2847 N   0  0  0  1  0  0  0  0  0  0  0  0
   17.5232    5.2389  -65.3441 C   0  0  0  1  0  0  0  0  0  0  0  0
   18.5842    4.4514  -64.9327 C   0  0  0  1  0  0  0  0  0  0  0  0
   27.4789    0.0013  -66.6491 H   0  0  0  1  0  0  0  0  0  0  0  0
   26.0691    3.2885  -61.5879 H   0  0  0  1  0  0  0  0  0  0  0  0
   26.4256   -0.0361  -58.0770 H   0  0  0  1  0  0  0  0  0  0  0  0
   27.0780   -0.5923  -60.3423 H   0  0  0  1  0  0  0  0  0  0  0  0
   25.4157    3.8455  -59.3188 H   0  0  0  1  0  0  0  0  0  0  0  0
   23.6894    3.8218  -64.2408 H   0  0  0  1  0  0  0  0  0  0  0  0
   22.2071    1.2622  -64.5649 H   0  0  0  1  0  0  0  0  0  0  0  0
   22.6267    2.1031  -63.0914 H   0  0  0  1  0  0  0  0  0  0  0  0
   20.1001    2.0655  -64.2384 H   0  0  0  1  0  0  0  0  0  0  0  0
   20.6462    3.2376  -63.0627 H   0  0  0  1  0  0  0  0  0  0  0  0
   23.7973    2.4751  -66.7410 H   0  0  0  1  0  0  0  0  0  0  0  0
   26.6447    0.7666  -56.3503 H   0  0  0  1  0  0  0  0  0  0  0  0
   24.9221    0.6695  -56.0752 H   0  0  0  1  0  0  0  0  0  0  0  0
   25.8697    1.8913  -55.2609 H   0  0  0  1  0  0  0  0  0  0  0  0
   22.3779    5.0301  -65.6622 H   0  0  0  1  0  0  0  0  0  0  0  0
   22.0558    3.6431  -66.6753 H   0  0  0  1  0  0  0  0  0  0  0  0
   20.8724    5.8047  -66.9339 H   0  0  0  1  0  0  0  0  0  0  0  0
   18.9456    7.0989  -67.5646 H   0  0  0  1  0  0  0  0  0  0  0  0
   16.5940    5.0873  -64.9023 H   0  0  0  1  0  0  0  0  0  0  0  0
   18.4518    3.7240  -64.2012 H   0  0  0  1  0  0  0  0  0  0  0  0
  1  3  4  0  0  0  0
  1 14  4  0  0  0  0
  1 21  1  0  0  0  0
  2 14  4  0  0  0  0
  2 15  4  0  0  0  0
  2 30  1  0  0  0  0
  3 16  4  0  0  0  0
  4  5  4  0  0  0  0
  4  7  4  0  0  0  0
  4 17  1  0  0  0  0
  5  9  4  0  0  0  0
  5 31  1  0  0  0  0
  6  7  4  0  0  0  0
  6  8  4  0  0  0  0
  6 32  1  0  0  0  0
  7 33  1  0  0  0  0
  8  9  4  0  0  0  0
  8 20  1  0  0  0  0
  9 34  1  0  0  0  0
 10 11  1  0  0  0  0
 10 21  1  0  0  0  0
 10 24  1  0  0  0  0
 10 35  1  0  0  0  0
 11 12  1  0  0  0  0
 11 36  1  0  0  0  0
 11 37  1  0  0  0  0
 12 23  1  0  0  0  0
 12 38  1  0  0  0  0
 12 39  1  0  0  0  0
 13 23  1  0  0  0  0
 13 25  4  0  0  0  0
 13 29  4  0  0  0  0
 15 16  4  0  0  0  0
 15 18  4  0  0  0  0
 16 17  4  0  0  0  0
 17 19  4  0  0  0  0
 18 19  4  0  0  0  0
 20 22  1  0  0  0  0
 21 40  1  0  0  0  0
 22 41  1  0  0  0  0
 22 42  1  0  0  0  0
 22 43  1  0  0  0  0
 23 24  1  0  0  0  0
 24 44  1  0  0  0  0
 24 45  1  0  0  0  0
 25 26  4  0  0  0  0
 25 46  1  0  0  0  0
 26 27  4  0  0  0  0
 26 47  1  0  0  0  0
 27 28  4  0  0  0  0
 28 29  4  0  0  0  0
 28 48  1  0  0  0  0
 29 49  1  0  0  0  0
M  END
> <ConfClashScore>
0 

> <ConfOneFourInteractionScore>
-0.986948 

> <ConfScore>
0.0560825 

> <ConfScorePBest>
0.00299346 

> <ConfTolerance>
0.555959 

> <HETNAM>
     OWQ A 303  OWQ                                                       

> <pdb_OW>
Q_303 -16.5129 3.80749 7.62812 0.15963 1.39178 -0.28144 -3.20151 0 0 0 -1.30514 0 0 0 0 0 0 0 0 -8.31393

$$$$
6yky_lig_1.pdb
 OpenBabel04162415593D

 49 53  0  0  0  0  0  0  0  0999 V2000
   25.1049    1.8137  -65.3760 C   0  0  0  1  0  0  0  0  0  0  0  0
   26.9167    0.5034  -65.9326 C   0  0  0  1  0  0  0  0  0  0  0  0
   25.4179    1.8286  -64.0982 N   0  0  0  1  0  0  0  0  0  0  0  0
   26.7288    1.4701  -61.1391 C   0  0  0  1  0  0  0  0  0  0  0  0
   25.4783    2.0140  -60.9136 C   0  0  0  1  0  0  0  0  0  0  0  0
   27.3632    1.9890  -58.8862 C   0  0  0  1  0  0  0  0  0  0  0  0
   27.6734    1.4599  -60.1248 C   0  0  0  1  0  0  0  0  0  0  0  0
   26.1091    2.5345  -58.6599 C   0  0  0  1  0  0  0  0  0  0  0  0
   25.1673    2.5445  -59.6714 C   0  0  0  1  0  0  0  0  0  0  0  0
   23.0904    3.1505  -64.9208 C   0  0  0  1  0  0  0  0  0  0  0  0
   21.7085    3.3516  -65.5628 C   0  0  0  1  0  0  0  0  0  0  0  0
   21.1579    4.5352  -64.7525 C   0  0  0  1  0  0  0  0  0  0  0  0
   22.2679    5.8057  -62.8099 C   0  0  0  1  0  0  0  0  0  0  0  0
   25.8297    1.1708  -66.2748 N   0  0  0  1  0  0  0  0  0  0  0  0
   27.2965    0.4857  -64.5857 C   0  0  0  1  0  0  0  0  0  0  0  0
   26.4937    1.1853  -63.6614 C   0  0  0  1  0  0  0  0  0  0  0  0
   27.0810    1.0063  -62.4395 N   0  0  0  1  0  0  0  0  0  0  0  0
   28.3159   -0.0766  -63.9004 N   0  0  0  1  0  0  0  0  0  0  0  0
   28.2164    0.2092  -62.6490 N   0  0  0  1  0  0  0  0  0  0  0  0
   25.9226    3.0264  -57.4120 O   0  0  0  1  0  0  0  0  0  0  0  0
   24.0000    2.4737  -65.8284 N   0  0  0  1  0  0  0  0  0  0  0  0
   24.6434    3.6110  -57.1215 C   0  0  0  1  0  0  0  0  0  0  0  0
   22.3192    5.0465  -63.9643 N   0  0  0  1  0  0  0  0  0  0  0  0
   23.5312    4.5804  -64.6631 C   0  0  0  1  0  0  0  0  0  0  0  0
   22.0220    7.1611  -62.9280 C   0  0  0  1  0  0  0  0  0  0  0  0
   21.9647    7.9288  -61.7804 C   0  0  0  1  0  0  0  0  0  0  0  0
   22.1383    7.4294  -60.5528 N   0  0  0  1  0  0  0  0  0  0  0  0
   22.3804    6.1147  -60.4533 C   0  0  0  1  0  0  0  0  0  0  0  0
   22.4507    5.2721  -61.5490 C   0  0  0  1  0  0  0  0  0  0  0  0
   27.4788    0.0013  -66.6491 H   0  0  0  1  0  0  0  0  0  0  0  0
   24.7710    2.0253  -61.6758 H   0  0  0  1  0  0  0  0  0  0  0  0
   28.0706    1.9777  -58.1239 H   0  0  0  1  0  0  0  0  0  0  0  0
   28.6158    1.0543  -60.2958 H   0  0  0  1  0  0  0  0  0  0  0  0
   24.2250    2.9502  -59.5004 H   0  0  0  1  0  0  0  0  0  0  0  0
   23.0178    2.5960  -64.0085 H   0  0  0  1  0  0  0  0  0  0  0  0
   21.7929    3.5958  -66.6011 H   0  0  0  1  0  0  0  0  0  0  0  0
   21.0954    2.4823  -65.4490 H   0  0  0  1  0  0  0  0  0  0  0  0
   20.3754    4.2102  -64.0990 H   0  0  0  1  0  0  0  0  0  0  0  0
   20.7845    5.2957  -65.4061 H   0  0  0  1  0  0  0  0  0  0  0  0
   23.8153    2.4917  -66.7907 H   0  0  0  1  0  0  0  0  0  0  0  0
   23.8668    2.9531  -57.4519 H   0  0  0  1  0  0  0  0  0  0  0  0
   24.5563    4.5486  -57.6294 H   0  0  0  1  0  0  0  0  0  0  0  0
   24.5539    3.7664  -56.0667 H   0  0  0  1  0  0  0  0  0  0  0  0
   24.4013    4.6304  -64.0423 H   0  0  0  1  0  0  0  0  0  0  0  0
   23.7084    5.1193  -65.5704 H   0  0  0  1  0  0  0  0  0  0  0  0
   21.8828    7.5947  -63.8630 H   0  0  0  1  0  0  0  0  0  0  0  0
   21.7769    8.9471  -61.8768 H   0  0  0  1  0  0  0  0  0  0  0  0
   22.5220    5.7080  -59.5066 H   0  0  0  1  0  0  0  0  0  0  0  0
   22.6378    4.2566  -61.4254 H   0  0  0  1  0  0  0  0  0  0  0  0
  1  3  4  0  0  0  0
  1 14  4  0  0  0  0
  1 21  1  0  0  0  0
  2 14  4  0  0  0  0
  2 15  4  0  0  0  0
  2 30  1  0  0  0  0
  3 16  4  0  0  0  0
  4  5  4  0  0  0  0
  4  7  4  0  0  0  0
  4 17  1  0  0  0  0
  5  9  4  0  0  0  0
  5 31  1  0  0  0  0
  6  7  4  0  0  0  0
  6  8  4  0  0  0  0
  6 32  1  0  0  0  0
  7 33  1  0  0  0  0
  8  9  4  0  0  0  0
  8 20  1  0  0  0  0
  9 34  1  0  0  0  0
 10 11  1  0  0  0  0
 10 21  1  0  0  0  0
 10 24  1  0  0  0  0
 10 35  1  0  0  0  0
 11 12  1  0  0  0  0
 11 36  1  0  0  0  0
 11 37  1  0  0  0  0
 12 23  1  0  0  0  0
 12 38  1  0  0  0  0
 12 39  1  0  0  0  0
 13 23  1  0  0  0  0
 13 25  4  0  0  0  0
 13 29  4  0  0  0  0
 15 16  4  0  0  0  0
 15 18  4  0  0  0  0
 16 17  4  0  0  0  0
 17 19  4  0  0  0  0
 18 19  4  0  0  0  0
 20 22  1  0  0  0  0
 21 40  1  0  0  0  0
 22 41  1  0  0  0  0
 22 42  1  0  0  0  0
 22 43  1  0  0  0  0
 23 24  1  0  0  0  0
 24 44  1  0  0  0  0
 24 45  1  0  0  0  0
 25 26  4  0  0  0  0
 25 46  1  0  0  0  0
 26 27  4  0  0  0  0
 26 47  1  0  0  0  0
 27 28  4  0  0  0  0
 28 29  4  0  0  0  0
 28 48  1  0  0  0  0
 29 49  1  0  0  0  0
M  END
> <ConfClashScore>
0 

> <ConfOneFourInteractionScore>
-0.986948 

> <ConfScore>
0.0564292 

> <ConfScorePBest>
0.00298014 

> <ConfTolerance>
0.427406 

> <HETNAM>
     OWQ A 303  OWQ                                                       

> <pdb_OW>
Q_303 -16.5129 3.80749 7.62812 0.15963 1.39178 -0.28144 -3.20151 0 0 0 -1.30514 0 0 0 0 0 0 0 0 -8.31393

$$$$
6yky_lig_1.pdb
 OpenBabel04162415593D

 49 53  0  0  0  0  0  0  0  0999 V2000
   25.1048    1.8136  -65.3760 C   0  0  0  1  0  0  0  0  0  0  0  0
   26.9167    0.5034  -65.9326 C   0  0  0  1  0  0  0  0  0  0  0  0
   25.4179    1.8284  -64.0983 N   0  0  0  1  0  0  0  0  0  0  0  0
   26.7866    1.5432  -61.1529 C   0  0  0  1  0  0  0  0  0  0  0  0
   27.3940    2.7124  -60.7356 C   0  0  0  1  0  0  0  0  0  0  0  0
   25.7440    1.3158  -59.0062 C   0  0  0  1  0  0  0  0  0  0  0  0
   25.9625    0.8423  -60.2862 C   0  0  0  1  0  0  0  0  0  0  0  0
   26.3531    2.4884  -58.5873 C   0  0  0  1  0  0  0  0  0  0  0  0
   27.1747    3.1871  -59.4518 C   0  0  0  1  0  0  0  0  0  0  0  0
   22.9717    3.1089  -64.9781 C   0  0  0  1  0  0  0  0  0  0  0  0
   22.1691    2.0586  -64.1784 C   0  0  0  1  0  0  0  0  0  0  0  0
   20.7169    2.4614  -64.2296 C   0  0  0  1  0  0  0  0  0  0  0  0
   19.5717    4.1004  -65.8677 C   0  0  0  1  0  0  0  0  0  0  0  0
   25.8296    1.1707  -66.2748 N   0  0  0  1  0  0  0  0  0  0  0  0
   27.2965    0.4857  -64.5858 C   0  0  0  1  0  0  0  0  0  0  0  0
   26.4937    1.1852  -63.6614 C   0  0  0  1  0  0  0  0  0  0  0  0
   27.0810    1.0062  -62.4395 N   0  0  0  1  0  0  0  0  0  0  0  0
   28.3159   -0.0766  -63.9004 N   0  0  0  1  0  0  0  0  0  0  0  0
   28.2164    0.2093  -62.6490 N   0  0  0  1  0  0  0  0  0  0  0  0
   26.0709    2.8481  -57.3201 O   0  0  0  1  0  0  0  0  0  0  0  0
   24.0075    2.4763  -65.7838 N   0  0  0  1  0  0  0  0  0  0  0  0
   26.7002    4.0729  -56.8769 C   0  0  0  1  0  0  0  0  0  0  0  0
   20.7317    3.4917  -65.3799 N   0  0  0  1  0  0  0  0  0  0  0  0
   21.9096    3.7439  -65.8540 C   0  0  0  1  0  0  0  0  0  0  0  0
   19.6309    4.9750  -66.9369 C   0  0  0  1  0  0  0  0  0  0  0  0
   18.4594    5.5515  -67.3897 C   0  0  0  1  0  0  0  0  0  0  0  0
   17.2632    5.3104  -66.8446 N   0  0  0  1  0  0  0  0  0  0  0  0
   17.2211    4.4638  -65.8060 C   0  0  0  1  0  0  0  0  0  0  0  0
   18.3440    3.8398  -65.2910 C   0  0  0  1  0  0  0  0  0  0  0  0
   27.4789    0.0013  -66.6491 H   0  0  0  1  0  0  0  0  0  0  0  0
   28.0154    3.2359  -61.3846 H   0  0  0  1  0  0  0  0  0  0  0  0
   25.1225    0.7921  -58.3572 H   0  0  0  1  0  0  0  0  0  0  0  0
   25.5087   -0.0396  -60.5991 H   0  0  0  1  0  0  0  0  0  0  0  0
   27.6285    4.0690  -59.1390 H   0  0  0  1  0  0  0  0  0  0  0  0
   23.4172    3.8316  -64.3269 H   0  0  0  1  0  0  0  0  0  0  0  0
   22.5064    2.0369  -63.1632 H   0  0  0  1  0  0  0  0  0  0  0  0
   22.2952    1.0910  -64.6174 H   0  0  0  1  0  0  0  0  0  0  0  0
   20.0866    1.6276  -64.4583 H   0  0  0  1  0  0  0  0  0  0  0  0
   20.4008    2.9062  -63.3091 H   0  0  0  1  0  0  0  0  0  0  0  0
   23.8888    2.5425  -66.7543 H   0  0  0  1  0  0  0  0  0  0  0  0
   27.7529    4.0206  -57.0611 H   0  0  0  1  0  0  0  0  0  0  0  0
   26.5278    4.2031  -55.8289 H   0  0  0  1  0  0  0  0  0  0  0  0
   26.2854    4.9010  -57.4127 H   0  0  0  1  0  0  0  0  0  0  0  0
   22.0606    4.8028  -65.8815 H   0  0  0  1  0  0  0  0  0  0  0  0
   21.9845    3.3467  -66.8448 H   0  0  0  1  0  0  0  0  0  0  0  0
   20.5399    5.1950  -67.3918 H   0  0  0  1  0  0  0  0  0  0  0  0
   18.5113    6.2064  -68.1959 H   0  0  0  1  0  0  0  0  0  0  0  0
   16.2997    4.2663  -65.3657 H   0  0  0  1  0  0  0  0  0  0  0  0
   18.2649    3.1872  -64.4852 H   0  0  0  1  0  0  0  0  0  0  0  0
  1  3  4  0  0  0  0
  1 14  4  0  0  0  0
  1 21  1  0  0  0  0
  2 14  4  0  0  0  0
  2 15  4  0  0  0  0
  2 30  1  0  0  0  0
  3 16  4  0  0  0  0
  4  5  4  0  0  0  0
  4  7  4  0  0  0  0
  4 17  1  0  0  0  0
  5  9  4  0  0  0  0
  5 31  1  0  0  0  0
  6  7  4  0  0  0  0
  6  8  4  0  0  0  0
  6 32  1  0  0  0  0
  7 33  1  0  0  0  0
  8  9  4  0  0  0  0
  8 20  1  0  0  0  0
  9 34  1  0  0  0  0
 10 11  1  0  0  0  0
 10 21  1  0  0  0  0
 10 24  1  0  0  0  0
 10 35  1  0  0  0  0
 11 12  1  0  0  0  0
 11 36  1  0  0  0  0
 11 37  1  0  0  0  0
 12 23  1  0  0  0  0
 12 38  1  0  0  0  0
 12 39  1  0  0  0  0
 13 23  1  0  0  0  0
 13 25  4  0  0  0  0
 13 29  4  0  0  0  0
 15 16  4  0  0  0  0
 15 18  4  0  0  0  0
 16 17  4  0  0  0  0
 17 19  4  0  0  0  0
 18 19  4  0  0  0  0
 20 22  1  0  0  0  0
 21 40  1  0  0  0  0
 22 41  1  0  0  0  0
 22 42  1  0  0  0  0
 22 43  1  0  0  0  0
 23 24  1  0  0  0  0
 24 44  1  0  0  0  0
 24 45  1  0  0  0  0
 25 26  4  0  0  0  0
 25 46  1  0  0  0  0
 26 27  4  0  0  0  0
 26 47  1  0  0  0  0
 27 28  4  0  0  0  0
 28 29  4  0  0  0  0
 28 48  1  0  0  0  0
 29 49  1  0  0  0  0
M  END
> <ConfClashScore>
0 

> <ConfOneFourInteractionScore>
-0.994714 

> <ConfScore>
0.0575589 

> <ConfScorePBest>
0.00296681 

> <ConfTolerance>
0.656346 

> <HETNAM>
     OWQ A 303  OWQ                                                       

> <pdb_OW>
Q_303 -16.5129 3.80749 7.62812 0.15963 1.39178 -0.28144 -3.20151 0 0 0 -1.30514 0 0 0 0 0 0 0 0 -8.31393

$$$$
6yky_lig_1.pdb
 OpenBabel04162415593D

 49 53  0  0  0  0  0  0  0  0999 V2000
   25.1047    1.8133  -65.3760 C   0  0  0  1  0  0  0  0  0  0  0  0
   26.9167    0.5034  -65.9326 C   0  0  0  1  0  0  0  0  0  0  0  0
   25.4177    1.8280  -64.0982 N   0  0  0  1  0  0  0  0  0  0  0  0
   26.7285    1.4696  -61.1390 C   0  0  0  1  0  0  0  0  0  0  0  0
   25.9707    2.6164  -60.9950 C   0  0  0  1  0  0  0  0  0  0  0  0
   26.9568    1.3188  -58.7573 C   0  0  0  1  0  0  0  0  0  0  0  0
   27.2245    0.8212  -60.0187 C   0  0  0  1  0  0  0  0  0  0  0  0
   26.1967    2.4690  -58.6128 C   0  0  0  1  0  0  0  0  0  0  0  0
   25.7021    3.1152  -59.7299 C   0  0  0  1  0  0  0  0  0  0  0  0
   23.5804    2.6828  -67.1706 C   0  0  0  1  0  0  0  0  0  0  0  0
   23.4166    1.3613  -67.8829 C   0  0  0  1  0  0  0  0  0  0  0  0
   23.5592    1.7253  -69.3592 C   0  0  0  1  0  0  0  0  0  0  0  0
   25.0619    3.4213  -70.4459 C   0  0  0  1  0  0  0  0  0  0  0  0
   25.8296    1.1706  -66.2747 N   0  0  0  1  0  0  0  0  0  0  0  0
   27.2965    0.4857  -64.5857 C   0  0  0  1  0  0  0  0  0  0  0  0
   26.4936    1.1850  -63.6614 C   0  0  0  1  0  0  0  0  0  0  0  0
   27.0808    1.0060  -62.4394 N   0  0  0  1  0  0  0  0  0  0  0  0
   28.3158   -0.0766  -63.9004 N   0  0  0  1  0  0  0  0  0  0  0  0
   28.2164    0.2092  -62.6490 N   0  0  0  1  0  0  0  0  0  0  0  0
   26.0210    3.0091  -57.3834 O   0  0  0  1  0  0  0  0  0  0  0  0
   24.0073    2.4759  -65.7837 N   0  0  0  1  0  0  0  0  0  0  0  0
   26.5062    2.2565  -56.2605 C   0  0  0  1  0  0  0  0  0  0  0  0
   24.4630    2.8831  -69.3283 N   0  0  0  1  0  0  0  0  0  0  0  0
   24.6544    3.4023  -67.9615 C   0  0  0  1  0  0  0  0  0  0  0  0
   24.4145    4.2929  -71.3020 C   0  0  0  1  0  0  0  0  0  0  0  0
   25.1019    4.7829  -72.3962 C   0  0  0  1  0  0  0  0  0  0  0  0
   26.3670    4.4554  -72.6762 N   0  0  0  1  0  0  0  0  0  0  0  0
   26.9809    3.6061  -71.8402 C   0  0  0  1  0  0  0  0  0  0  0  0
   26.3695    3.0709  -70.7198 C   0  0  0  1  0  0  0  0  0  0  0  0
   27.4790    0.0015  -66.6492 H   0  0  0  1  0  0  0  0  0  0  0  0
   25.6019    3.1050  -61.8358 H   0  0  0  1  0  0  0  0  0  0  0  0
   27.3256    0.8302  -57.9165 H   0  0  0  1  0  0  0  0  0  0  0  0
   27.7981   -0.0394  -60.1273 H   0  0  0  1  0  0  0  0  0  0  0  0
   25.1285    3.9760  -59.6214 H   0  0  0  1  0  0  0  0  0  0  0  0
   22.6649    3.2365  -67.1837 H   0  0  0  1  0  0  0  0  0  0  0  0
   24.1776    0.6706  -67.5850 H   0  0  0  1  0  0  0  0  0  0  0  0
   22.4536    0.9384  -67.6857 H   0  0  0  1  0  0  0  0  0  0  0  0
   22.6128    1.9876  -69.7838 H   0  0  0  1  0  0  0  0  0  0  0  0
   23.9882    0.9176  -69.9146 H   0  0  0  1  0  0  0  0  0  0  0  0
   23.4369    2.8582  -65.0843 H   0  0  0  1  0  0  0  0  0  0  0  0
   26.3309    2.8062  -55.3595 H   0  0  0  1  0  0  0  0  0  0  0  0
   27.5560    2.0837  -56.3741 H   0  0  0  1  0  0  0  0  0  0  0  0
   25.9932    1.3188  -56.2115 H   0  0  0  1  0  0  0  0  0  0  0  0
   24.5109    4.4622  -67.9291 H   0  0  0  1  0  0  0  0  0  0  0  0
   25.6296    3.1625  -67.5921 H   0  0  0  1  0  0  0  0  0  0  0  0
   23.4290    4.5744  -71.1259 H   0  0  0  1  0  0  0  0  0  0  0  0
   24.6093    5.4400  -73.0344 H   0  0  0  1  0  0  0  0  0  0  0  0
   27.9646    3.3363  -72.0434 H   0  0  0  1  0  0  0  0  0  0  0  0
   26.8849    2.4175  -70.0962 H   0  0  0  1  0  0  0  0  0  0  0  0
  1  3  4  0  0  0  0
  1 14  4  0  0  0  0
  1 21  1  0  0  0  0
  2 14  4  0  0  0  0
  2 15  4  0  0  0  0
  2 30  1  0  0  0  0
  3 16  4  0  0  0  0
  4  5  4  0  0  0  0
  4  7  4  0  0  0  0
  4 17  1  0  0  0  0
  5  9  4  0  0  0  0
  5 31  1  0  0  0  0
  6  7  4  0  0  0  0
  6  8  4  0  0  0  0
  6 32  1  0  0  0  0
  7 33  1  0  0  0  0
  8  9  4  0  0  0  0
  8 20  1  0  0  0  0
  9 34  1  0  0  0  0
 10 11  1  0  0  0  0
 10 21  1  0  0  0  0
 10 24  1  0  0  0  0
 10 35  1  0  0  0  0
 11 12  1  0  0  0  0
 11 36  1  0  0  0  0
 11 37  1  0  0  0  0
 12 23  1  0  0  0  0
 12 38  1  0  0  0  0
 12 39  1  0  0  0  0
 13 23  1  0  0  0  0
 13 25  4  0  0  0  0
 13 29  4  0  0  0  0
 15 16  4  0  0  0  0
 15 18  4  0  0  0  0
 16 17  4  0  0  0  0
 17 19  4  0  0  0  0
 18 19  4  0  0  0  0
 20 22  1  0  0  0  0
 21 40  1  0  0  0  0
 22 41  1  0  0  0  0
 22 42  1  0  0  0  0
 22 43  1  0  0  0  0
 23 24  1  0  0  0  0
 24 44  1  0  0  0  0
 24 45  1  0  0  0  0
 25 26  4  0  0  0  0
 25 46  1  0  0  0  0
 26 27  4  0  0  0  0
 26 47  1  0  0  0  0
 27 28  4  0  0  0  0
 28 29  4  0  0  0  0
 28 48  1  0  0  0  0
 29 49  1  0  0  0  0
M  END
> <ConfClashScore>
0 

> <ConfOneFourInteractionScore>
-0.983503 

> <ConfScore>
0.0577888 

> <ConfScorePBest>
0.00295348 

> <ConfTolerance>
0.441608 

> <HETNAM>
     OWQ A 303  OWQ                                                       

> <pdb_OW>
Q_303 -16.5129 3.80749 7.62812 0.15963 1.39178 -0.28144 -3.20151 0 0 0 -1.30514 0 0 0 0 0 0 0 0 -8.31393

$$$$
6yky_lig_1.pdb
 OpenBabel04162415593D

 49 53  0  0  0  0  0  0  0  0999 V2000
   25.1047    1.8136  -65.3759 C   0  0  0  1  0  0  0  0  0  0  0  0
   26.9167    0.5034  -65.9326 C   0  0  0  1  0  0  0  0  0  0  0  0
   25.4178    1.8283  -64.0982 N   0  0  0  1  0  0  0  0  0  0  0  0
   26.7518    1.5716  -61.1736 C   0  0  0  1  0  0  0  0  0  0  0  0
   26.1600    2.8205  -61.1628 C   0  0  0  1  0  0  0  0  0  0  0  0
   26.8283    1.5844  -58.7776 C   0  0  0  1  0  0  0  0  0  0  0  0
   27.0890    0.9537  -59.9795 C   0  0  0  1  0  0  0  0  0  0  0  0
   26.2348    2.8371  -58.7664 C   0  0  0  1  0  0  0  0  0  0  0  0
   25.8986    3.4529  -59.9573 C   0  0  0  1  0  0  0  0  0  0  0  0
   23.0836    3.1530  -64.8855 C   0  0  0  1  0  0  0  0  0  0  0  0
   23.8279    4.1592  -63.9798 C   0  0  0  1  0  0  0  0  0  0  0  0
   23.2371    4.0485  -62.5969 C   0  0  0  1  0  0  0  0  0  0  0  0
   21.8150    2.1387  -61.6373 C   0  0  0  1  0  0  0  0  0  0  0  0
   25.8296    1.1707  -66.2748 N   0  0  0  1  0  0  0  0  0  0  0  0
   27.2965    0.4858  -64.5857 C   0  0  0  1  0  0  0  0  0  0  0  0
   26.4936    1.1852  -63.6614 C   0  0  0  1  0  0  0  0  0  0  0  0
   27.0809    1.0061  -62.4395 N   0  0  0  1  0  0  0  0  0  0  0  0
   28.3158   -0.0766  -63.9004 N   0  0  0  1  0  0  0  0  0  0  0  0
   28.2164    0.2092  -62.6490 N   0  0  0  1  0  0  0  0  0  0  0  0
   25.9369    3.5520  -57.6556 O   0  0  0  1  0  0  0  0  0  0  0  0
   24.0033    2.4787  -65.7852 N   0  0  0  1  0  0  0  0  0  0  0  0
   26.3350    2.9976  -56.3920 C   0  0  0  1  0  0  0  0  0  0  0  0
   22.4673    2.7142  -62.7055 N   0  0  0  1  0  0  0  0  0  0  0  0
   22.4870    2.1823  -63.8856 C   0  0  0  1  0  0  0  0  0  0  0  0
   22.3894    1.2743  -60.7238 C   0  0  0  1  0  0  0  0  0  0  0  0
   21.6088    0.7772  -59.6975 C   0  0  0  1  0  0  0  0  0  0  0  0
   20.3182    1.0861  -59.5400 N   0  0  0  1  0  0  0  0  0  0  0  0
   19.7731    1.9218  -60.4354 C   0  0  0  1  0  0  0  0  0  0  0  0
   20.4819    2.4688  -61.4908 C   0  0  0  1  0  0  0  0  0  0  0  0
   27.4789    0.0014  -66.6491 H   0  0  0  1  0  0  0  0  0  0  0  0
   25.9107    3.2857  -62.0589 H   0  0  0  1  0  0  0  0  0  0  0  0
   27.0777    1.1192  -57.8816 H   0  0  0  1  0  0  0  0  0  0  0  0
   27.5380    0.0157  -59.9880 H   0  0  0  1  0  0  0  0  0  0  0  0
   25.4497    4.3910  -59.9488 H   0  0  0  1  0  0  0  0  0  0  0  0
   22.3189    3.6389  -65.4548 H   0  0  0  1  0  0  0  0  0  0  0  0
   23.6975    5.1531  -64.3541 H   0  0  0  1  0  0  0  0  0  0  0  0
   24.8710    3.9224  -63.9512 H   0  0  0  1  0  0  0  0  0  0  0  0
   23.9995    4.0014  -61.8476 H   0  0  0  1  0  0  0  0  0  0  0  0
   22.5785    4.8649  -62.3855 H   0  0  0  1  0  0  0  0  0  0  0  0
   23.8131    2.5083  -66.7461 H   0  0  0  1  0  0  0  0  0  0  0  0
   26.0034    3.6372  -55.6010 H   0  0  0  1  0  0  0  0  0  0  0  0
   27.4013    2.9139  -56.3596 H   0  0  0  1  0  0  0  0  0  0  0  0
   25.8969    2.0284  -56.2742 H   0  0  0  1  0  0  0  0  0  0  0  0
   23.0784    1.2909  -63.8619 H   0  0  0  1  0  0  0  0  0  0  0  0
   21.4876    1.9400  -64.1810 H   0  0  0  1  0  0  0  0  0  0  0  0
   23.3899    1.0033  -60.8075 H   0  0  0  1  0  0  0  0  0  0  0  0
   22.0483    0.1294  -59.0127 H   0  0  0  1  0  0  0  0  0  0  0  0
   18.7688    2.1714  -60.3318 H   0  0  0  1  0  0  0  0  0  0  0  0
   20.0194    3.1160  -62.1608 H   0  0  0  1  0  0  0  0  0  0  0  0
  1  3  4  0  0  0  0
  1 14  4  0  0  0  0
  1 21  1  0  0  0  0
  2 14  4  0  0  0  0
  2 15  4  0  0  0  0
  2 30  1  0  0  0  0
  3 16  4  0  0  0  0
  4  5  4  0  0  0  0
  4  7  4  0  0  0  0
  4 17  1  0  0  0  0
  5  9  4  0  0  0  0
  5 31  1  0  0  0  0
  6  7  4  0  0  0  0
  6  8  4  0  0  0  0
  6 32  1  0  0  0  0
  7 33  1  0  0  0  0
  8  9  4  0  0  0  0
  8 20  1  0  0  0  0
  9 34  1  0  0  0  0
 10 11  1  0  0  0  0
 10 21  1  0  0  0  0
 10 24  1  0  0  0  0
 10 35  1  0  0  0  0
 11 12  1  0  0  0  0
 11 36  1  0  0  0  0
 11 37  1  0  0  0  0
 12 23  1  0  0  0  0
 12 38  1  0  0  0  0
 12 39  1  0  0  0  0
 13 23  1  0  0  0  0
 13 25  4  0  0  0  0
 13 29  4  0  0  0  0
 15 16  4  0  0  0  0
 15 18  4  0  0  0  0
 16 17  4  0  0  0  0
 17 19  4  0  0  0  0
 18 19  4  0  0  0  0
 20 22  1  0  0  0  0
 21 40  1  0  0  0  0
 22 41  1  0  0  0  0
 22 42  1  0  0  0  0
 22 43  1  0  0  0  0
 23 24  1  0  0  0  0
 24 44  1  0  0  0  0
 24 45  1  0  0  0  0
 25 26  4  0  0  0  0
 25 46  1  0  0  0  0
 26 27  4  0  0  0  0
 26 47  1  0  0  0  0
 27 28  4  0  0  0  0
 28 29  4  0  0  0  0
 28 48  1  0  0  0  0
 29 49  1  0  0  0  0
M  END
> <ConfClashScore>
0 

> <ConfOneFourInteractionScore>
-0.983503 

> <ConfScore>
0.0577888 

> <ConfScorePBest>
0.00294015 

> <ConfTolerance>
0.536242 

> <HETNAM>
     OWQ A 303  OWQ                                                       

> <pdb_OW>
Q_303 -16.5129 3.80749 7.62812 0.15963 1.39178 -0.28144 -3.20151 0 0 0 -1.30514 0 0 0 0 0 0 0 0 -8.31393

$$$$
6yky_lig_1.pdb
 OpenBabel04162415593D

 49 53  0  0  0  0  0  0  0  0999 V2000
   25.1048    1.8137  -65.3761 C   0  0  0  1  0  0  0  0  0  0  0  0
   26.9167    0.5034  -65.9326 C   0  0  0  1  0  0  0  0  0  0  0  0
   25.4180    1.8286  -64.0984 N   0  0  0  1  0  0  0  0  0  0  0  0
   26.7287    1.4701  -61.1391 C   0  0  0  1  0  0  0  0  0  0  0  0
   25.5282    2.1252  -60.9398 C   0  0  0  1  0  0  0  0  0  0  0  0
   27.3299    1.8717  -58.8534 C   0  0  0  1  0  0  0  0  0  0  0  0
   27.6321    1.3455  -60.0953 C   0  0  0  1  0  0  0  0  0  0  0  0
   26.1258    2.5288  -58.6533 C   0  0  0  1  0  0  0  0  0  0  0  0
   25.2252    2.6529  -59.6944 C   0  0  0  1  0  0  0  0  0  0  0  0
   23.1731    3.2783  -64.9060 C   0  0  0  1  0  0  0  0  0  0  0  0
   22.8213    2.5234  -63.5942 C   0  0  0  1  0  0  0  0  0  0  0  0
   21.4678    3.0695  -63.0935 C   0  0  0  1  0  0  0  0  0  0  0  0
   19.7573    4.5325  -64.3165 C   0  0  0  1  0  0  0  0  0  0  0  0
   25.8297    1.1708  -66.2748 N   0  0  0  1  0  0  0  0  0  0  0  0
   27.2965    0.4857  -64.5858 C   0  0  0  1  0  0  0  0  0  0  0  0
   26.4937    1.1853  -63.6614 C   0  0  0  1  0  0  0  0  0  0  0  0
   27.0810    1.0063  -62.4396 N   0  0  0  1  0  0  0  0  0  0  0  0
   28.3159   -0.0766  -63.9004 N   0  0  0  1  0  0  0  0  0  0  0  0
   28.2164    0.2092  -62.6490 N   0  0  0  1  0  0  0  0  0  0  0  0
   25.9439    3.0035  -57.4058 O   0  0  0  1  0  0  0  0  0  0  0  0
   24.0076    2.4764  -65.7838 N   0  0  0  1  0  0  0  0  0  0  0  0
   24.6797    3.6705  -57.1829 C   0  0  0  1  0  0  0  0  0  0  0  0
   20.9179    3.7446  -64.3030 N   0  0  0  1  0  0  0  0  0  0  0  0
   21.7570    3.4732  -65.4818 C   0  0  0  1  0  0  0  0  0  0  0  0
   19.3202    4.9488  -65.5604 C   0  0  0  1  0  0  0  0  0  0  0  0
   18.1793    5.7247  -65.6384 C   0  0  0  1  0  0  0  0  0  0  0  0
   17.4714    6.1003  -64.5689 N   0  0  0  1  0  0  0  0  0  0  0  0
   17.9091    5.6931  -63.3689 C   0  0  0  1  0  0  0  0  0  0  0  0
   19.0387    4.9117  -63.1996 C   0  0  0  1  0  0  0  0  0  0  0  0
   27.4789    0.0012  -66.6491 H   0  0  0  1  0  0  0  0  0  0  0  0
   24.8522    2.2222  -61.7242 H   0  0  0  1  0  0  0  0  0  0  0  0
   28.0059    1.7748  -58.0690 H   0  0  0  1  0  0  0  0  0  0  0  0
   28.5372    0.8561  -60.2463 H   0  0  0  1  0  0  0  0  0  0  0  0
   24.3201    3.1424  -59.5433 H   0  0  0  1  0  0  0  0  0  0  0  0
   23.6554    4.2131  -64.7102 H   0  0  0  1  0  0  0  0  0  0  0  0
   23.5793    2.6961  -62.8591 H   0  0  0  1  0  0  0  0  0  0  0  0
   22.7429    1.4737  -63.7868 H   0  0  0  1  0  0  0  0  0  0  0  0
   20.8274    2.2754  -62.7707 H   0  0  0  1  0  0  0  0  0  0  0  0
   21.6054    3.7655  -62.2926 H   0  0  0  1  0  0  0  0  0  0  0  0
   23.7565    2.4147  -66.7291 H   0  0  0  1  0  0  0  0  0  0  0  0
   23.8813    2.9653  -57.2831 H   0  0  0  1  0  0  0  0  0  0  0  0
   24.5573    4.4522  -57.9032 H   0  0  0  1  0  0  0  0  0  0  0  0
   24.6655    4.0873  -56.1976 H   0  0  0  1  0  0  0  0  0  0  0  0
   21.7348    4.2998  -66.1608 H   0  0  0  1  0  0  0  0  0  0  0  0
   21.4278    2.5883  -65.9851 H   0  0  0  1  0  0  0  0  0  0  0  0
   19.8401    4.6831  -66.4209 H   0  0  0  1  0  0  0  0  0  0  0  0
   17.8550    6.0320  -66.5776 H   0  0  0  1  0  0  0  0  0  0  0  0
   17.3738    5.9784  -62.5242 H   0  0  0  1  0  0  0  0  0  0  0  0
   19.3407    4.6157  -62.2495 H   0  0  0  1  0  0  0  0  0  0  0  0
  1  3  4  0  0  0  0
  1 14  4  0  0  0  0
  1 21  1  0  0  0  0
  2 14  4  0  0  0  0
  2 15  4  0  0  0  0
  2 30  1  0  0  0  0
  3 16  4  0  0  0  0
  4  5  4  0  0  0  0
  4  7  4  0  0  0  0
  4 17  1  0  0  0  0
  5  9  4  0  0  0  0
  5 31  1  0  0  0  0
  6  7  4  0  0  0  0
  6  8  4  0  0  0  0
  6 32  1  0  0  0  0
  7 33  1  0  0  0  0
  8  9  4  0  0  0  0
  8 20  1  0  0  0  0
  9 34  1  0  0  0  0
 10 11  1  0  0  0  0
 10 21  1  0  0  0  0
 10 24  1  0  0  0  0
 10 35  1  0  0  0  0
 11 12  1  0  0  0  0
 11 36  1  0  0  0  0
 11 37  1  0  0  0  0
 12 23  1  0  0  0  0
 12 38  1  0  0  0  0
 12 39  1  0  0  0  0
 13 23  1  0  0  0  0
 13 25  4  0  0  0  0
 13 29  4  0  0  0  0
 15 16  4  0  0  0  0
 15 18  4  0  0  0  0
 16 17  4  0  0  0  0
 17 19  4  0  0  0  0
 18 19  4  0  0  0  0
 20 22  1  0  0  0  0
 21 40  1  0  0  0  0
 22 41  1  0  0  0  0
 22 42  1  0  0  0  0
 22 43  1  0  0  0  0
 23 24  1  0  0  0  0
 24 44  1  0  0  0  0
 24 45  1  0  0  0  0
 25 26  4  0  0  0  0
 25 46  1  0  0  0  0
 26 27  4  0  0  0  0
 26 47  1  0  0  0  0
 27 28  4  0  0  0  0
 28 29  4  0  0  0  0
 28 48  1  0  0  0  0
 29 49  1  0  0  0  0
M  END
> <ConfClashScore>
0 

> <ConfOneFourInteractionScore>
-0.987833 

> <ConfScore>
0.0579396 

> <ConfScorePBest>
0.00292682 

> <ConfTolerance>
0.518775 

> <HETNAM>
     OWQ A 303  OWQ                                                       

> <pdb_OW>
Q_303 -16.5129 3.80749 7.62812 0.15963 1.39178 -0.28144 -3.20151 0 0 0 -1.30514 0 0 0 0 0 0 0 0 -8.31393

$$$$
6yky_lig_1.pdb
 OpenBabel04162415593D

 49 53  0  0  0  0  0  0  0  0999 V2000
   25.1047    1.8135  -65.3760 C   0  0  0  1  0  0  0  0  0  0  0  0
   26.9167    0.5034  -65.9326 C   0  0  0  1  0  0  0  0  0  0  0  0
   25.4178    1.8283  -64.0982 N   0  0  0  1  0  0  0  0  0  0  0  0
   26.7669    1.4473  -61.1215 C   0  0  0  1  0  0  0  0  0  0  0  0
   27.7708    1.8970  -60.2847 C   0  0  0  1  0  0  0  0  0  0  0  0
   25.1764    1.6825  -59.3432 C   0  0  0  1  0  0  0  0  0  0  0  0
   25.4682    1.3372  -60.6493 C   0  0  0  1  0  0  0  0  0  0  0  0
   26.1831    2.1336  -58.5039 C   0  0  0  1  0  0  0  0  0  0  0  0
   27.4779    2.2433  -58.9749 C   0  0  0  1  0  0  0  0  0  0  0  0
   23.4663    2.3363  -67.1351 C   0  0  0  1  0  0  0  0  0  0  0  0
   23.1977    0.8514  -67.4664 C   0  0  0  1  0  0  0  0  0  0  0  0
   23.6440    0.6154  -68.8873 C   0  0  0  1  0  0  0  0  0  0  0  0
   25.2024    2.0734  -70.3140 C   0  0  0  1  0  0  0  0  0  0  0  0
   25.8296    1.1707  -66.2748 N   0  0  0  1  0  0  0  0  0  0  0  0
   27.2964    0.4857  -64.5857 C   0  0  0  1  0  0  0  0  0  0  0  0
   26.4936    1.1851  -63.6614 C   0  0  0  1  0  0  0  0  0  0  0  0
   27.0809    1.0060  -62.4395 N   0  0  0  1  0  0  0  0  0  0  0  0
   28.3159   -0.0766  -63.9004 N   0  0  0  1  0  0  0  0  0  0  0  0
   28.2164    0.2093  -62.6490 N   0  0  0  1  0  0  0  0  0  0  0  0
   25.7802    2.4355  -57.2503 O   0  0  0  1  0  0  0  0  0  0  0  0
   23.9919    2.4855  -65.7895 N   0  0  0  1  0  0  0  0  0  0  0  0
   26.7198    3.0277  -56.3234 C   0  0  0  1  0  0  0  0  0  0  0  0
   24.4997    1.8747  -69.1461 N   0  0  0  1  0  0  0  0  0  0  0  0
   24.5005    2.7275  -68.1722 C   0  0  0  1  0  0  0  0  0  0  0  0
   26.5668    1.8553  -70.3615 C   0  0  0  1  0  0  0  0  0  0  0  0
   27.2321    2.0632  -71.5548 C   0  0  0  1  0  0  0  0  0  0  0  0
   26.6245    2.4697  -72.6737 N   0  0  0  1  0  0  0  0  0  0  0  0
   25.3022    2.6815  -72.6122 C   0  0  0  1  0  0  0  0  0  0  0  0
   24.5576    2.4946  -71.4606 C   0  0  0  1  0  0  0  0  0  0  0  0
   27.4789    0.0013  -66.6491 H   0  0  0  1  0  0  0  0  0  0  0  0
   28.7458    1.9758  -60.6379 H   0  0  0  1  0  0  0  0  0  0  0  0
   24.2014    1.6038  -58.9901 H   0  0  0  1  0  0  0  0  0  0  0  0
   24.7136    0.9950  -61.2779 H   0  0  0  1  0  0  0  0  0  0  0  0
   28.2326    2.5855  -58.3465 H   0  0  0  1  0  0  0  0  0  0  0  0
   22.5765    2.9214  -67.2379 H   0  0  0  1  0  0  0  0  0  0  0  0
   22.1532    0.6394  -67.3719 H   0  0  0  1  0  0  0  0  0  0  0  0
   23.7515    0.2229  -66.8007 H   0  0  0  1  0  0  0  0  0  0  0  0
   24.2262   -0.2784  -68.9719 H   0  0  0  1  0  0  0  0  0  0  0  0
   22.8107    0.5634  -69.5565 H   0  0  0  1  0  0  0  0  0  0  0  0
   23.5354    3.0845  -65.1623 H   0  0  0  1  0  0  0  0  0  0  0  0
   27.0367    3.9797  -56.6954 H   0  0  0  1  0  0  0  0  0  0  0  0
   27.5693    2.3857  -56.2180 H   0  0  0  1  0  0  0  0  0  0  0  0
   26.2486    3.1560  -55.3714 H   0  0  0  1  0  0  0  0  0  0  0  0
   24.2685    3.7000  -68.5536 H   0  0  0  1  0  0  0  0  0  0  0  0
   25.4689    2.7439  -67.7173 H   0  0  0  1  0  0  0  0  0  0  0  0
   27.0828    1.5407  -69.5151 H   0  0  0  1  0  0  0  0  0  0  0  0
   28.2579    1.8947  -71.5836 H   0  0  0  1  0  0  0  0  0  0  0  0
   24.8120    3.0019  -73.4716 H   0  0  0  1  0  0  0  0  0  0  0  0
   23.5322    2.6681  -71.4586 H   0  0  0  1  0  0  0  0  0  0  0  0
  1  3  4  0  0  0  0
  1 14  4  0  0  0  0
  1 21  1  0  0  0  0
  2 14  4  0  0  0  0
  2 15  4  0  0  0  0
  2 30  1  0  0  0  0
  3 16  4  0  0  0  0
  4  5  4  0  0  0  0
  4  7  4  0  0  0  0
  4 17  1  0  0  0  0
  5  9  4  0  0  0  0
  5 31  1  0  0  0  0
  6  7  4  0  0  0  0
  6  8  4  0  0  0  0
  6 32  1  0  0  0  0
  7 33  1  0  0  0  0
  8  9  4  0  0  0  0
  8 20  1  0  0  0  0
  9 34  1  0  0  0  0
 10 11  1  0  0  0  0
 10 21  1  0  0  0  0
 10 24  1  0  0  0  0
 10 35  1  0  0  0  0
 11 12  1  0  0  0  0
 11 36  1  0  0  0  0
 11 37  1  0  0  0  0
 12 23  1  0  0  0  0
 12 38  1  0  0  0  0
 12 39  1  0  0  0  0
 13 23  1  0  0  0  0
 13 25  4  0  0  0  0
 13 29  4  0  0  0  0
 15 16  4  0  0  0  0
 15 18  4  0  0  0  0
 16 17  4  0  0  0  0
 17 19  4  0  0  0  0
 18 19  4  0  0  0  0
 20 22  1  0  0  0  0
 21 40  1  0  0  0  0
 22 41  1  0  0  0  0
 22 42  1  0  0  0  0
 22 43  1  0  0  0  0
 23 24  1  0  0  0  0
 24 44  1  0  0  0  0
 24 45  1  0  0  0  0
 25 26  4  0  0  0  0
 25 46  1  0  0  0  0
 26 27  4  0  0  0  0
 26 47  1  0  0  0  0
 27 28  4  0  0  0  0
 28 29  4  0  0  0  0
 28 48  1  0  0  0  0
 29 49  1  0  0  0  0
M  END
> <ConfClashScore>
0 

> <ConfOneFourInteractionScore>
-0.983503 

> <ConfScore>
0.0580036 

> <ConfScorePBest>
0.0029135 

> <ConfTolerance>
0.416361 

> <HETNAM>
     OWQ A 303  OWQ                                                       

> <pdb_OW>
Q_303 -16.5129 3.80749 7.62812 0.15963 1.39178 -0.28144 -3.20151 0 0 0 -1.30514 0 0 0 0 0 0 0 0 -8.31393

$$$$
6yky_lig_1.pdb
 OpenBabel04162415593D

 49 53  0  0  0  0  0  0  0  0999 V2000
   25.1049    1.8137  -65.3760 C   0  0  0  1  0  0  0  0  0  0  0  0
   26.9167    0.5034  -65.9326 C   0  0  0  1  0  0  0  0  0  0  0  0
   25.4179    1.8285  -64.0983 N   0  0  0  1  0  0  0  0  0  0  0  0
   26.7286    1.4700  -61.1391 C   0  0  0  1  0  0  0  0  0  0  0  0
   25.8526    0.7403  -60.3580 C   0  0  0  1  0  0  0  0  0  0  0  0
   26.7837    3.1922  -59.4723 C   0  0  0  1  0  0  0  0  0  0  0  0
   27.1929    2.6990  -60.6969 C   0  0  0  1  0  0  0  0  0  0  0  0
   25.9051    2.4604  -58.6887 C   0  0  0  1  0  0  0  0  0  0  0  0
   25.4423    1.2350  -59.1298 C   0  0  0  1  0  0  0  0  0  0  0  0
   23.5846    2.5664  -67.1706 C   0  0  0  1  0  0  0  0  0  0  0  0
   22.1933    3.1810  -67.2733 C   0  0  0  1  0  0  0  0  0  0  0  0
   21.2678    2.0101  -66.9584 C   0  0  0  1  0  0  0  0  0  0  0  0
   21.4130   -0.3532  -67.8330 C   0  0  0  1  0  0  0  0  0  0  0  0
   25.8298    1.1708  -66.2748 N   0  0  0  1  0  0  0  0  0  0  0  0
   27.2964    0.4858  -64.5857 C   0  0  0  1  0  0  0  0  0  0  0  0
   26.4937    1.1853  -63.6615 C   0  0  0  1  0  0  0  0  0  0  0  0
   27.0809    1.0062  -62.4395 N   0  0  0  1  0  0  0  0  0  0  0  0
   28.3158   -0.0766  -63.9004 N   0  0  0  1  0  0  0  0  0  0  0  0
   28.2164    0.2092  -62.6490 N   0  0  0  1  0  0  0  0  0  0  0  0
   25.5718    3.0461  -57.5140 O   0  0  0  1  0  0  0  0  0  0  0  0
   24.0076    2.4765  -65.7838 N   0  0  0  1  0  0  0  0  0  0  0  0
   24.7225    2.3014  -56.6272 C   0  0  0  1  0  0  0  0  0  0  0  0
   21.9985    0.8655  -67.5430 N   0  0  0  1  0  0  0  0  0  0  0  0
   23.4209    1.1688  -67.7820 C   0  0  0  1  0  0  0  0  0  0  0  0
   22.1800   -1.4174  -68.2697 C   0  0  0  1  0  0  0  0  0  0  0  0
   21.5548   -2.6187  -68.5445 C   0  0  0  1  0  0  0  0  0  0  0  0
   20.2384   -2.8090  -68.4131 N   0  0  0  1  0  0  0  0  0  0  0  0
   19.5064   -1.7674  -67.9929 C   0  0  0  1  0  0  0  0  0  0  0  0
   20.0506   -0.5310  -67.6920 C   0  0  0  1  0  0  0  0  0  0  0  0
   27.4790    0.0014  -66.6491 H   0  0  0  1  0  0  0  0  0  0  0  0
   25.5011   -0.1799  -60.6915 H   0  0  0  1  0  0  0  0  0  0  0  0
   27.1352    4.1124  -59.1387 H   0  0  0  1  0  0  0  0  0  0  0  0
   27.8489    3.2500  -61.2866 H   0  0  0  1  0  0  0  0  0  0  0  0
   24.7862    0.6841  -58.5402 H   0  0  0  1  0  0  0  0  0  0  0  0
   24.2962    3.1425  -67.7244 H   0  0  0  1  0  0  0  0  0  0  0  0
   22.0692    3.9696  -66.5610 H   0  0  0  1  0  0  0  0  0  0  0  0
   22.0127    3.5577  -68.2584 H   0  0  0  1  0  0  0  0  0  0  0  0
   20.3115    2.1366  -67.4214 H   0  0  0  1  0  0  0  0  0  0  0  0
   21.1403    1.8900  -65.9028 H   0  0  0  1  0  0  0  0  0  0  0  0
   23.4612    2.9251  -65.1051 H   0  0  0  1  0  0  0  0  0  0  0  0
   25.1487    1.3357  -56.4516 H   0  0  0  1  0  0  0  0  0  0  0  0
   23.7554    2.1887  -57.0708 H   0  0  0  1  0  0  0  0  0  0  0  0
   24.6307    2.8247  -55.6984 H   0  0  0  1  0  0  0  0  0  0  0  0
   23.6408    1.1794  -68.8291 H   0  0  0  1  0  0  0  0  0  0  0  0
   24.0530    0.4584  -67.2915 H   0  0  0  1  0  0  0  0  0  0  0  0
   23.2081   -1.3157  -68.3892 H   0  0  0  1  0  0  0  0  0  0  0  0
   22.1384   -3.4155  -68.8702 H   0  0  0  1  0  0  0  0  0  0  0  0
   18.4795   -1.8947  -67.8882 H   0  0  0  1  0  0  0  0  0  0  0  0
   19.4452    0.2492  -67.3660 H   0  0  0  1  0  0  0  0  0  0  0  0
  1  3  4  0  0  0  0
  1 14  4  0  0  0  0
  1 21  1  0  0  0  0
  2 14  4  0  0  0  0
  2 15  4  0  0  0  0
  2 30  1  0  0  0  0
  3 16  4  0  0  0  0
  4  5  4  0  0  0  0
  4  7  4  0  0  0  0
  4 17  1  0  0  0  0
  5  9  4  0  0  0  0
  5 31  1  0  0  0  0
  6  7  4  0  0  0  0
  6  8  4  0  0  0  0
  6 32  1  0  0  0  0
  7 33  1  0  0  0  0
  8  9  4  0  0  0  0
  8 20  1  0  0  0  0
  9 34  1  0  0  0  0
 10 11  1  0  0  0  0
 10 21  1  0  0  0  0
 10 24  1  0  0  0  0
 10 35  1  0  0  0  0
 11 12  1  0  0  0  0
 11 36  1  0  0  0  0
 11 37  1  0  0  0  0
 12 23  1  0  0  0  0
 12 38  1  0  0  0  0
 12 39  1  0  0  0  0
 13 23  1  0  0  0  0
 13 25  4  0  0  0  0
 13 29  4  0  0  0  0
 15 16  4  0  0  0  0
 15 18  4  0  0  0  0
 16 17  4  0  0  0  0
 17 19  4  0  0  0  0
 18 19  4  0  0  0  0
 20 22  1  0  0  0  0
 21 40  1  0  0  0  0
 22 41  1  0  0  0  0
 22 42  1  0  0  0  0
 22 43  1  0  0  0  0
 23 24  1  0  0  0  0
 24 44  1  0  0  0  0
 24 45  1  0  0  0  0
 25 26  4  0  0  0  0
 25 46  1  0  0  0  0
 26 27  4  0  0  0  0
 26 47  1  0  0  0  0
 27 28  4  0  0  0  0
 28 29  4  0  0  0  0
 28 48  1  0  0  0  0
 29 49  1  0  0  0  0
M  END
> <ConfClashScore>
0 

> <ConfOneFourInteractionScore>
-0.99264 

> <ConfScore>
0.0586966 

> <ConfScorePBest>
0.00290017 

> <ConfTolerance>
0.878215 

> <HETNAM>
     OWQ A 303  OWQ                                                       

> <pdb_OW>
Q_303 -16.5129 3.80749 7.62812 0.15963 1.39178 -0.28144 -3.20151 0 0 0 -1.30514 0 0 0 0 0 0 0 0 -8.31393

$$$$
6yky_lig_1.pdb
 OpenBabel04162415593D

 49 53  0  0  0  0  0  0  0  0999 V2000
   25.1049    1.8136  -65.3760 C   0  0  0  1  0  0  0  0  0  0  0  0
   26.9167    0.5034  -65.9326 C   0  0  0  1  0  0  0  0  0  0  0  0
   25.4179    1.8284  -64.0982 N   0  0  0  1  0  0  0  0  0  0  0  0
   26.7288    1.4700  -61.1391 C   0  0  0  1  0  0  0  0  0  0  0  0
   27.6255    2.2949  -60.4869 C   0  0  0  1  0  0  0  0  0  0  0  0
   25.3254    1.4550  -59.1955 C   0  0  0  1  0  0  0  0  0  0  0  0
   25.5783    1.0472  -60.4916 C   0  0  0  1  0  0  0  0  0  0  0  0
   26.2248    2.2824  -58.5411 C   0  0  0  1  0  0  0  0  0  0  0  0
   27.3718    2.7038  -59.1868 C   0  0  0  1  0  0  0  0  0  0  0  0
   23.5153    2.5685  -67.1565 C   0  0  0  1  0  0  0  0  0  0  0  0
   23.1247    1.1969  -67.6857 C   0  0  0  1  0  0  0  0  0  0  0  0
   23.1995    1.3779  -69.1912 C   0  0  0  1  0  0  0  0  0  0  0  0
   24.9892    2.5365  -70.5659 C   0  0  0  1  0  0  0  0  0  0  0  0
   25.8297    1.1707  -66.2748 N   0  0  0  1  0  0  0  0  0  0  0  0
   27.2965    0.4857  -64.5857 C   0  0  0  1  0  0  0  0  0  0  0  0
   26.4937    1.1853  -63.6614 C   0  0  0  1  0  0  0  0  0  0  0  0
   27.0810    1.0061  -62.4395 N   0  0  0  1  0  0  0  0  0  0  0  0
   28.3159   -0.0766  -63.9004 N   0  0  0  1  0  0  0  0  0  0  0  0
   28.2164    0.2092  -62.6490 N   0  0  0  1  0  0  0  0  0  0  0  0
   26.0413    2.7082  -57.2859 O   0  0  0  1  0  0  0  0  0  0  0  0
   24.0137    2.4727  -65.7815 N   0  0  0  1  0  0  0  0  0  0  0  0
   24.8100    2.4137  -56.5442 C   0  0  0  1  0  0  0  0  0  0  0  0
   24.3094    2.3277  -69.3566 N   0  0  0  1  0  0  0  0  0  0  0  0
   24.6229    3.0332  -68.1042 C   0  0  0  1  0  0  0  0  0  0  0  0
   26.0116    1.7435  -71.0532 C   0  0  0  1  0  0  0  0  0  0  0  0
   26.5866    2.0715  -72.2664 C   0  0  0  1  0  0  0  0  0  0  0  0
   26.2077    3.1234  -72.9986 N   0  0  0  1  0  0  0  0  0  0  0  0
   25.2184    3.8860  -72.5120 C   0  0  0  1  0  0  0  0  0  0  0  0
   24.5849    3.6284  -71.3088 C   0  0  0  1  0  0  0  0  0  0  0  0
   27.4789    0.0013  -66.6491 H   0  0  0  1  0  0  0  0  0  0  0  0
   28.4907    2.6087  -60.9712 H   0  0  0  1  0  0  0  0  0  0  0  0
   24.4602    1.1412  -58.7110 H   0  0  0  1  0  0  0  0  0  0  0  0
   24.9055    0.4233  -60.9811 H   0  0  0  1  0  0  0  0  0  0  0  0
   28.0447    3.3277  -58.6974 H   0  0  0  1  0  0  0  0  0  0  0  0
   22.6821    3.2391  -67.1884 H   0  0  0  1  0  0  0  0  0  0  0  0
   23.8120    0.4468  -67.3540 H   0  0  0  1  0  0  0  0  0  0  0  0
   22.1339    0.9343  -67.3787 H   0  0  0  1  0  0  0  0  0  0  0  0
   22.2866    1.7831  -69.5753 H   0  0  0  1  0  0  0  0  0  0  0  0
   23.4118    0.4499  -69.6797 H   0  0  0  1  0  0  0  0  0  0  0  0
   23.4964    2.9374  -65.0909 H   0  0  0  1  0  0  0  0  0  0  0  0
   24.7406    1.3600  -56.3712 H   0  0  0  1  0  0  0  0  0  0  0  0
   23.9644    2.7377  -57.1141 H   0  0  0  1  0  0  0  0  0  0  0  0
   24.8272    2.9285  -55.6063 H   0  0  0  1  0  0  0  0  0  0  0  0
   25.5870    2.7510  -67.7356 H   0  0  0  1  0  0  0  0  0  0  0  0
   24.5899    4.0938  -68.2424 H   0  0  0  1  0  0  0  0  0  0  0  0
   26.3417    0.9158  -70.5171 H   0  0  0  1  0  0  0  0  0  0  0  0
   27.3533    1.4691  -72.6278 H   0  0  0  1  0  0  0  0  0  0  0  0
   24.9120    4.7114  -73.0656 H   0  0  0  1  0  0  0  0  0  0  0  0
   23.8190    4.2453  -70.9705 H   0  0  0  1  0  0  0  0  0  0  0  0
  1  3  4  0  0  0  0
  1 14  4  0  0  0  0
  1 21  1  0  0  0  0
  2 14  4  0  0  0  0
  2 15  4  0  0  0  0
  2 30  1  0  0  0  0
  3 16  4  0  0  0  0
  4  5  4  0  0  0  0
  4  7  4  0  0  0  0
  4 17  1  0  0  0  0
  5  9  4  0  0  0  0
  5 31  1  0  0  0  0
  6  7  4  0  0  0  0
  6  8  4  0  0  0  0
  6 32  1  0  0  0  0
  7 33  1  0  0  0  0
  8  9  4  0  0  0  0
  8 20  1  0  0  0  0
  9 34  1  0  0  0  0
 10 11  1  0  0  0  0
 10 21  1  0  0  0  0
 10 24  1  0  0  0  0
 10 35  1  0  0  0  0
 11 12  1  0  0  0  0
 11 36  1  0  0  0  0
 11 37  1  0  0  0  0
 12 23  1  0  0  0  0
 12 38  1  0  0  0  0
 12 39  1  0  0  0  0
 13 23  1  0  0  0  0
 13 25  4  0  0  0  0
 13 29  4  0  0  0  0
 15 16  4  0  0  0  0
 15 18  4  0  0  0  0
 16 17  4  0  0  0  0
 17 19  4  0  0  0  0
 18 19  4  0  0  0  0
 20 22  1  0  0  0  0
 21 40  1  0  0  0  0
 22 41  1  0  0  0  0
 22 42  1  0  0  0  0
 22 43  1  0  0  0  0
 23 24  1  0  0  0  0
 24 44  1  0  0  0  0
 24 45  1  0  0  0  0
 25 26  4  0  0  0  0
 25 46  1  0  0  0  0
 26 27  4  0  0  0  0
 26 47  1  0  0  0  0
 27 28  4  0  0  0  0
 28 29  4  0  0  0  0
 28 48  1  0  0  0  0
 29 49  1  0  0  0  0
M  END
> <ConfClashScore>
0 

> <ConfOneFourInteractionScore>
-0.983503 

> <ConfScore>
0.0587446 

> <ConfScorePBest>
0.00288684 

> <ConfTolerance>
0.501106 

> <HETNAM>
     OWQ A 303  OWQ                                                       

> <pdb_OW>
Q_303 -16.5129 3.80749 7.62812 0.15963 1.39178 -0.28144 -3.20151 0 0 0 -1.30514 0 0 0 0 0 0 0 0 -8.31393

$$$$
6yky_lig_1.pdb
 OpenBabel04162415593D

 49 53  0  0  0  0  0  0  0  0999 V2000
   25.1048    1.8135  -65.3759 C   0  0  0  1  0  0  0  0  0  0  0  0
   26.9167    0.5034  -65.9326 C   0  0  0  1  0  0  0  0  0  0  0  0
   25.4178    1.8283  -64.0983 N   0  0  0  1  0  0  0  0  0  0  0  0
   26.7670    1.4473  -61.1216 C   0  0  0  1  0  0  0  0  0  0  0  0
   25.4816    1.2323  -60.6616 C   0  0  0  1  0  0  0  0  0  0  0  0
   27.2906    2.6383  -59.1079 C   0  0  0  1  0  0  0  0  0  0  0  0
   27.6721    2.1537  -60.3448 C   0  0  0  1  0  0  0  0  0  0  0  0
   26.0013    2.4227  -58.6465 C   0  0  0  1  0  0  0  0  0  0  0  0
   25.0990    1.7184  -59.4211 C   0  0  0  1  0  0  0  0  0  0  0  0
   23.6472    2.6681  -67.1831 C   0  0  0  1  0  0  0  0  0  0  0  0
   23.4861    1.3148  -67.9293 C   0  0  0  1  0  0  0  0  0  0  0  0
   23.8088    1.5645  -69.4175 C   0  0  0  1  0  0  0  0  0  0  0  0
   24.9125    3.5960  -70.5165 C   0  0  0  1  0  0  0  0  0  0  0  0
   25.8296    1.1706  -66.2747 N   0  0  0  1  0  0  0  0  0  0  0  0
   27.2965    0.4857  -64.5857 C   0  0  0  1  0  0  0  0  0  0  0  0
   26.4936    1.1852  -63.6614 C   0  0  0  1  0  0  0  0  0  0  0  0
   27.0809    1.0062  -62.4395 N   0  0  0  1  0  0  0  0  0  0  0  0
   28.3159   -0.0766  -63.9004 N   0  0  0  1  0  0  0  0  0  0  0  0
   28.2164    0.2092  -62.6490 N   0  0  0  1  0  0  0  0  0  0  0  0
   25.7391    2.9536  -57.4127 O   0  0  0  1  0  0  0  0  0  0  0  0
   24.0075    2.4761  -65.7837 N   0  0  0  1  0  0  0  0  0  0  0  0
   24.4493    2.5552  -56.8929 C   0  0  0  1  0  0  0  0  0  0  0  0
   24.5365    2.8647  -69.3825 N   0  0  0  1  0  0  0  0  0  0  0  0
   24.8067    3.2767  -67.9954 C   0  0  0  1  0  0  0  0  0  0  0  0
   23.9898    4.3732  -71.1918 C   0  0  0  1  0  0  0  0  0  0  0  0
   24.4043    5.0816  -72.3036 C   0  0  0  1  0  0  0  0  0  0  0  0
   25.6575    5.0540  -72.7673 N   0  0  0  1  0  0  0  0  0  0  0  0
   26.5406    4.2929  -72.1054 C   0  0  0  1  0  0  0  0  0  0  0  0
   26.2123    3.5546  -70.9819 C   0  0  0  1  0  0  0  0  0  0  0  0
   27.4789    0.0013  -66.6492 H   0  0  0  1  0  0  0  0  0  0  0  0
   24.8014    0.7058  -61.2462 H   0  0  0  1  0  0  0  0  0  0  0  0
   27.9708    3.1649  -58.5234 H   0  0  0  1  0  0  0  0  0  0  0  0
   28.6382    2.3189  -60.6927 H   0  0  0  1  0  0  0  0  0  0  0  0
   24.1330    1.5532  -59.0733 H   0  0  0  1  0  0  0  0  0  0  0  0
   22.7614    3.2649  -67.2452 H   0  0  0  1  0  0  0  0  0  0  0  0
   22.4819    0.9593  -67.8281 H   0  0  0  1  0  0  0  0  0  0  0  0
   24.1634    0.5919  -67.5251 H   0  0  0  1  0  0  0  0  0  0  0  0
   22.9136    1.6394  -69.9989 H   0  0  0  1  0  0  0  0  0  0  0  0
   24.4279    0.7868  -69.8134 H   0  0  0  1  0  0  0  0  0  0  0  0
   23.4151    2.8521  -65.0995 H   0  0  0  1  0  0  0  0  0  0  0  0
   24.3480    2.9010  -55.8854 H   0  0  0  1  0  0  0  0  0  0  0  0
   24.3709    1.4883  -56.9131 H   0  0  0  1  0  0  0  0  0  0  0  0
   23.6749    2.9817  -57.4956 H   0  0  0  1  0  0  0  0  0  0  0  0
   25.7468    2.8896  -67.6617 H   0  0  0  1  0  0  0  0  0  0  0  0
   24.8094    4.3433  -67.9107 H   0  0  0  1  0  0  0  0  0  0  0  0
   23.0024    4.4238  -70.8693 H   0  0  0  1  0  0  0  0  0  0  0  0
   23.7053    5.6661  -72.8051 H   0  0  0  1  0  0  0  0  0  0  0  0
   27.5200    4.2554  -72.4533 H   0  0  0  1  0  0  0  0  0  0  0  0
   26.9307    2.9796  -70.4971 H   0  0  0  1  0  0  0  0  0  0  0  0
  1  3  4  0  0  0  0
  1 14  4  0  0  0  0
  1 21  1  0  0  0  0
  2 14  4  0  0  0  0
  2 15  4  0  0  0  0
  2 30  1  0  0  0  0
  3 16  4  0  0  0  0
  4  5  4  0  0  0  0
  4  7  4  0  0  0  0
  4 17  1  0  0  0  0
  5  9  4  0  0  0  0
  5 31  1  0  0  0  0
  6  7  4  0  0  0  0
  6  8  4  0  0  0  0
  6 32  1  0  0  0  0
  7 33  1  0  0  0  0
  8  9  4  0  0  0  0
  8 20  1  0  0  0  0
  9 34  1  0  0  0  0
 10 11  1  0  0  0  0
 10 21  1  0  0  0  0
 10 24  1  0  0  0  0
 10 35  1  0  0  0  0
 11 12  1  0  0  0  0
 11 36  1  0  0  0  0
 11 37  1  0  0  0  0
 12 23  1  0  0  0  0
 12 38  1  0  0  0  0
 12 39  1  0  0  0  0
 13 23  1  0  0  0  0
 13 25  4  0  0  0  0
 13 29  4  0  0  0  0
 15 16  4  0  0  0  0
 15 18  4  0  0  0  0
 16 17  4  0  0  0  0
 17 19  4  0  0  0  0
 18 19  4  0  0  0  0
 20 22  1  0  0  0  0
 21 40  1  0  0  0  0
 22 41  1  0  0  0  0
 22 42  1  0  0  0  0
 22 43  1  0  0  0  0
 23 24  1  0  0  0  0
 24 44  1  0  0  0  0
 24 45  1  0  0  0  0
 25 26  4  0  0  0  0
 25 46  1  0  0  0  0
 26 27  4  0  0  0  0
 26 47  1  0  0  0  0
 27 28  4  0  0  0  0
 28 29  4  0  0  0  0
 28 48  1  0  0  0  0
 29 49  1  0  0  0  0
M  END
> <ConfClashScore>
0 

> <ConfOneFourInteractionScore>
-0.983503 

> <ConfScore>
0.0587446 

> <ConfScorePBest>
0.00287351 

> <ConfTolerance>
0.448156 

> <HETNAM>
     OWQ A 303  OWQ                                                       

> <pdb_OW>
Q_303 -16.5129 3.80749 7.62812 0.15963 1.39178 -0.28144 -3.20151 0 0 0 -1.30514 0 0 0 0 0 0 0 0 -8.31393

$$$$
6yky_lig_1.pdb
 OpenBabel04162415593D

 49 53  0  0  0  0  0  0  0  0999 V2000
   25.1048    1.8135  -65.3759 C   0  0  0  1  0  0  0  0  0  0  0  0
   26.9167    0.5034  -65.9326 C   0  0  0  1  0  0  0  0  0  0  0  0
   25.4178    1.8283  -64.0982 N   0  0  0  1  0  0  0  0  0  0  0  0
   26.6855    1.4949  -61.1608 C   0  0  0  1  0  0  0  0  0  0  0  0
   27.5166    1.3285  -60.0691 C   0  0  0  1  0  0  0  0  0  0  0  0
   25.0069    2.4497  -59.7402 C   0  0  0  1  0  0  0  0  0  0  0  0
   25.4278    2.0539  -60.9958 C   0  0  0  1  0  0  0  0  0  0  0  0
   25.8403    2.2829  -58.6452 C   0  0  0  1  0  0  0  0  0  0  0  0
   27.0943    1.7254  -58.8099 C   0  0  0  1  0  0  0  0  0  0  0  0
   23.4611    2.5914  -67.1344 C   0  0  0  1  0  0  0  0  0  0  0  0
   24.5563    3.0171  -68.1124 C   0  0  0  1  0  0  0  0  0  0  0  0
   24.4556    4.5519  -68.1285 C   0  0  0  1  0  0  0  0  0  0  0  0
   22.2815    5.6610  -68.8406 C   0  0  0  1  0  0  0  0  0  0  0  0
   25.8297    1.1708  -66.2747 N   0  0  0  1  0  0  0  0  0  0  0  0
   27.2965    0.4857  -64.5856 C   0  0  0  1  0  0  0  0  0  0  0  0
   26.4936    1.1852  -63.6614 C   0  0  0  1  0  0  0  0  0  0  0  0
   27.0810    1.0062  -62.4395 N   0  0  0  1  0  0  0  0  0  0  0  0
   28.3159   -0.0766  -63.9004 N   0  0  0  1  0  0  0  0  0  0  0  0
   28.2164    0.2092  -62.6490 N   0  0  0  1  0  0  0  0  0  0  0  0
   25.3188    2.7020  -57.4678 O   0  0  0  1  0  0  0  0  0  0  0  0
   24.0122    2.4734  -65.7820 N   0  0  0  1  0  0  0  0  0  0  0  0
   26.1299    2.5354  -56.2944 C   0  0  0  1  0  0  0  0  0  0  0  0
   22.9960    4.7006  -68.0952 N   0  0  0  1  0  0  0  0  0  0  0  0
   22.3561    3.7055  -67.1708 C   0  0  0  1  0  0  0  0  0  0  0  0
   22.0342    6.9176  -68.3196 C   0  0  0  1  0  0  0  0  0  0  0  0
   21.2534    7.7965  -69.0461 C   0  0  0  1  0  0  0  0  0  0  0  0
   20.7176    7.4950  -70.2328 N   0  0  0  1  0  0  0  0  0  0  0  0
   20.9619    6.2718  -70.7240 C   0  0  0  1  0  0  0  0  0  0  0  0
   21.7352    5.3315  -70.0657 C   0  0  0  1  0  0  0  0  0  0  0  0
   27.4789    0.0014  -66.6491 H   0  0  0  1  0  0  0  0  0  0  0  0
   28.4586    0.9054  -60.1923 H   0  0  0  1  0  0  0  0  0  0  0  0
   24.0649    2.8728  -59.6170 H   0  0  0  1  0  0  0  0  0  0  0  0
   24.8010    2.1755  -61.8168 H   0  0  0  1  0  0  0  0  0  0  0  0
   27.7212    1.6039  -57.9890 H   0  0  0  1  0  0  0  0  0  0  0  0
   23.0458    1.6520  -67.4340 H   0  0  0  1  0  0  0  0  0  0  0  0
   25.5190    2.7018  -67.7675 H   0  0  0  1  0  0  0  0  0  0  0  0
   24.3759    2.6128  -69.0864 H   0  0  0  1  0  0  0  0  0  0  0  0
   24.8788    4.9699  -69.0179 H   0  0  0  1  0  0  0  0  0  0  0  0
   24.9208    4.9912  -67.2710 H   0  0  0  1  0  0  0  0  0  0  0  0
   23.5140    2.9406  -65.0791 H   0  0  0  1  0  0  0  0  0  0  0  0
   25.6005    2.9009  -55.4394 H   0  0  0  1  0  0  0  0  0  0  0  0
   27.0413    3.0838  -56.4105 H   0  0  0  1  0  0  0  0  0  0  0  0
   26.3522    1.4976  -56.1592 H   0  0  0  1  0  0  0  0  0  0  0  0
   21.4347    3.3340  -67.5680 H   0  0  0  1  0  0  0  0  0  0  0  0
   22.1845    4.1224  -66.2004 H   0  0  0  1  0  0  0  0  0  0  0  0
   22.4282    7.1962  -67.3983 H   0  0  0  1  0  0  0  0  0  0  0  0
   21.0738    8.7407  -68.6492 H   0  0  0  1  0  0  0  0  0  0  0  0
   20.5505    6.0170  -71.6445 H   0  0  0  1  0  0  0  0  0  0  0  0
   21.9016    4.3946  -70.4854 H   0  0  0  1  0  0  0  0  0  0  0  0
  1  3  4  0  0  0  0
  1 14  4  0  0  0  0
  1 21  1  0  0  0  0
  2 14  4  0  0  0  0
  2 15  4  0  0  0  0
  2 30  1  0  0  0  0
  3 16  4  0  0  0  0
  4  5  4  0  0  0  0
  4  7  4  0  0  0  0
  4 17  1  0  0  0  0
  5  9  4  0  0  0  0
  5 31  1  0  0  0  0
  6  7  4  0  0  0  0
  6  8  4  0  0  0  0
  6 32  1  0  0  0  0
  7 33  1  0  0  0  0
  8  9  4  0  0  0  0
  8 20  1  0  0  0  0
  9 34  1  0  0  0  0
 10 11  1  0  0  0  0
 10 21  1  0  0  0  0
 10 24  1  0  0  0  0
 10 35  1  0  0  0  0
 11 12  1  0  0  0  0
 11 36  1  0  0  0  0
 11 37  1  0  0  0  0
 12 23  1  0  0  0  0
 12 38  1  0  0  0  0
 12 39  1  0  0  0  0
 13 23  1  0  0  0  0
 13 25  4  0  0  0  0
 13 29  4  0  0  0  0
 15 16  4  0  0  0  0
 15 18  4  0  0  0  0
 16 17  4  0  0  0  0
 17 19  4  0  0  0  0
 18 19  4  0  0  0  0
 20 22  1  0  0  0  0
 21 40  1  0  0  0  0
 22 41  1  0  0  0  0
 22 42  1  0  0  0  0
 22 43  1  0  0  0  0
 23 24  1  0  0  0  0
 24 44  1  0  0  0  0
 24 45  1  0  0  0  0
 25 26  4  0  0  0  0
 25 46  1  0  0  0  0
 26 27  4  0  0  0  0
 26 47  1  0  0  0  0
 27 28  4  0  0  0  0
 28 29  4  0  0  0  0
 28 48  1  0  0  0  0
 29 49  1  0  0  0  0
M  END
> <ConfClashScore>
0 

> <ConfOneFourInteractionScore>
-0.987833 

> <ConfScore>
0.059758 

> <ConfScorePBest>
0.00286018 

> <ConfTolerance>
0.558938 

> <HETNAM>
     OWQ A 303  OWQ                                                       

> <pdb_OW>
Q_303 -16.5129 3.80749 7.62812 0.15963 1.39178 -0.28144 -3.20151 0 0 0 -1.30514 0 0 0 0 0 0 0 0 -8.31393

$$$$
6yky_lig_1.pdb
 OpenBabel04162415593D

 49 53  0  0  0  0  0  0  0  0999 V2000
   25.1047    1.8134  -65.3759 C   0  0  0  1  0  0  0  0  0  0  0  0
   26.9167    0.5034  -65.9325 C   0  0  0  1  0  0  0  0  0  0  0  0
   25.4177    1.8283  -64.0981 N   0  0  0  1  0  0  0  0  0  0  0  0
   26.7285    1.4698  -61.1391 C   0  0  0  1  0  0  0  0  0  0  0  0
   25.4323    1.8696  -60.8746 C   0  0  0  1  0  0  0  0  0  0  0  0
   27.3870    2.1378  -58.9327 C   0  0  0  1  0  0  0  0  0  0  0  0
   27.7080    1.6065  -60.1677 C   0  0  0  1  0  0  0  0  0  0  0  0
   26.0868    2.5388  -58.6674 C   0  0  0  1  0  0  0  0  0  0  0  0
   25.1104    2.4023  -59.6361 C   0  0  0  1  0  0  0  0  0  0  0  0
   23.6118    2.5434  -67.1901 C   0  0  0  1  0  0  0  0  0  0  0  0
   24.7349    3.1364  -68.0355 C   0  0  0  1  0  0  0  0  0  0  0  0
   24.5828    4.6349  -67.8201 C   0  0  0  1  0  0  0  0  0  0  0  0
   22.5039    6.0319  -67.5712 C   0  0  0  1  0  0  0  0  0  0  0  0
   25.8296    1.1707  -66.2747 N   0  0  0  1  0  0  0  0  0  0  0  0
   27.2965    0.4857  -64.5857 C   0  0  0  1  0  0  0  0  0  0  0  0
   26.4936    1.1851  -63.6614 C   0  0  0  1  0  0  0  0  0  0  0  0
   27.0809    1.0060  -62.4394 N   0  0  0  1  0  0  0  0  0  0  0  0
   28.3159   -0.0766  -63.9005 N   0  0  0  1  0  0  0  0  0  0  0  0
   28.2164    0.2092  -62.6490 N   0  0  0  1  0  0  0  0  0  0  0  0
   25.6561    3.0756  -57.5011 O   0  0  0  1  0  0  0  0  0  0  0  0
   23.9918    2.4854  -65.7894 N   0  0  0  1  0  0  0  0  0  0  0  0
   26.6368    3.2839  -56.4729 C   0  0  0  1  0  0  0  0  0  0  0  0
   23.1393    4.8090  -67.5961 N   0  0  0  1  0  0  0  0  0  0  0  0
   22.4534    3.5170  -67.4015 C   0  0  0  1  0  0  0  0  0  0  0  0
   21.1270    6.0518  -67.4467 C   0  0  0  1  0  0  0  0  0  0  0  0
   20.4798    7.2724  -67.4167 C   0  0  0  1  0  0  0  0  0  0  0  0
   21.1166    8.4440  -67.5051 N   0  0  0  1  0  0  0  0  0  0  0  0
   22.4510    8.4100  -67.6299 C   0  0  0  1  0  0  0  0  0  0  0  0
   23.1788    7.2334  -67.6648 C   0  0  0  1  0  0  0  0  0  0  0  0
   27.4790    0.0013  -66.6492 H   0  0  0  1  0  0  0  0  0  0  0  0
   24.6983    1.7707  -61.6048 H   0  0  0  1  0  0  0  0  0  0  0  0
   28.1209    2.2367  -58.2026 H   0  0  0  1  0  0  0  0  0  0  0  0
   28.6843    1.3094  -60.3681 H   0  0  0  1  0  0  0  0  0  0  0  0
   24.1341    2.6995  -59.4357 H   0  0  0  1  0  0  0  0  0  0  0  0
   23.3538    1.5626  -67.5312 H   0  0  0  1  0  0  0  0  0  0  0  0
   25.6906    2.7957  -67.6958 H   0  0  0  1  0  0  0  0  0  0  0  0
   24.6117    2.8834  -69.0678 H   0  0  0  1  0  0  0  0  0  0  0  0
   24.9034    5.1792  -68.6837 H   0  0  0  1  0  0  0  0  0  0  0  0
   25.1428    4.9567  -66.9669 H   0  0  0  1  0  0  0  0  0  0  0  0
   23.4345    2.9408  -65.1243 H   0  0  0  1  0  0  0  0  0  0  0  0
   27.3416    4.0214  -56.7957 H   0  0  0  1  0  0  0  0  0  0  0  0
   27.1477    2.3645  -56.2762 H   0  0  0  1  0  0  0  0  0  0  0  0
   26.1517    3.6208  -55.5807 H   0  0  0  1  0  0  0  0  0  0  0  0
   21.8804    3.2515  -68.2652 H   0  0  0  1  0  0  0  0  0  0  0  0
   21.8141    3.5461  -66.5439 H   0  0  0  1  0  0  0  0  0  0  0  0
   20.5885    5.1647  -67.3769 H   0  0  0  1  0  0  0  0  0  0  0  0
   19.4443    7.2796  -67.3202 H   0  0  0  1  0  0  0  0  0  0  0  0
   22.9641    9.3115  -67.7040 H   0  0  0  1  0  0  0  0  0  0  0  0
   24.2142    7.2534  -67.7598 H   0  0  0  1  0  0  0  0  0  0  0  0
  1  3  4  0  0  0  0
  1 14  4  0  0  0  0
  1 21  1  0  0  0  0
  2 14  4  0  0  0  0
  2 15  4  0  0  0  0
  2 30  1  0  0  0  0
  3 16  4  0  0  0  0
  4  5  4  0  0  0  0
  4  7  4  0  0  0  0
  4 17  1  0  0  0  0
  5  9  4  0  0  0  0
  5 31  1  0  0  0  0
  6  7  4  0  0  0  0
  6  8  4  0  0  0  0
  6 32  1  0  0  0  0
  7 33  1  0  0  0  0
  8  9  4  0  0  0  0
  8 20  1  0  0  0  0
  9 34  1  0  0  0  0
 10 11  1  0  0  0  0
 10 21  1  0  0  0  0
 10 24  1  0  0  0  0
 10 35  1  0  0  0  0
 11 12  1  0  0  0  0
 11 36  1  0  0  0  0
 11 37  1  0  0  0  0
 12 23  1  0  0  0  0
 12 38  1  0  0  0  0
 12 39  1  0  0  0  0
 13 23  1  0  0  0  0
 13 25  4  0  0  0  0
 13 29  4  0  0  0  0
 15 16  4  0  0  0  0
 15 18  4  0  0  0  0
 16 17  4  0  0  0  0
 17 19  4  0  0  0  0
 18 19  4  0  0  0  0
 20 22  1  0  0  0  0
 21 40  1  0  0  0  0
 22 41  1  0  0  0  0
 22 42  1  0  0  0  0
 22 43  1  0  0  0  0
 23 24  1  0  0  0  0
 24 44  1  0  0  0  0
 24 45  1  0  0  0  0
 25 26  4  0  0  0  0
 25 46  1  0  0  0  0
 26 27  4  0  0  0  0
 26 47  1  0  0  0  0
 27 28  4  0  0  0  0
 28 29  4  0  0  0  0
 28 48  1  0  0  0  0
 29 49  1  0  0  0  0
M  END
> <ConfClashScore>
0 

> <ConfOneFourInteractionScore>
-0.987833 

> <ConfScore>
0.0597797 

> <ConfScorePBest>
0.00284685 

> <ConfTolerance>
0.689163 

> <HETNAM>
     OWQ A 303  OWQ                                                       

> <pdb_OW>
Q_303 -16.5129 3.80749 7.62812 0.15963 1.39178 -0.28144 -3.20151 0 0 0 -1.30514 0 0 0 0 0 0 0 0 -8.31393

$$$$
6yky_lig_1.pdb
 OpenBabel04162415593D

 49 53  0  0  0  0  0  0  0  0999 V2000
   25.1049    1.8136  -65.3760 C   0  0  0  1  0  0  0  0  0  0  0  0
   26.9167    0.5034  -65.9325 C   0  0  0  1  0  0  0  0  0  0  0  0
   25.4179    1.8284  -64.0982 N   0  0  0  1  0  0  0  0  0  0  0  0
   26.7866    1.5431  -61.1529 C   0  0  0  1  0  0  0  0  0  0  0  0
   27.0723    0.7608  -60.0499 C   0  0  0  1  0  0  0  0  0  0  0  0
   25.8043    3.2002  -59.7259 C   0  0  0  1  0  0  0  0  0  0  0  0
   26.1492    2.7635  -60.9910 C   0  0  0  1  0  0  0  0  0  0  0  0
   26.0909    2.4157  -58.6195 C   0  0  0  1  0  0  0  0  0  0  0  0
   26.7263    1.1990  -58.7812 C   0  0  0  1  0  0  0  0  0  0  0  0
   23.6223    2.5618  -67.1974 C   0  0  0  1  0  0  0  0  0  0  0  0
   23.8896    3.9632  -67.7694 C   0  0  0  1  0  0  0  0  0  0  0  0
   22.9282    3.9991  -68.9675 C   0  0  0  1  0  0  0  0  0  0  0  0
   21.3043    2.1443  -69.8268 C   0  0  0  1  0  0  0  0  0  0  0  0
   25.8297    1.1707  -66.2747 N   0  0  0  1  0  0  0  0  0  0  0  0
   27.2965    0.4858  -64.5857 C   0  0  0  1  0  0  0  0  0  0  0  0
   26.4937    1.1852  -63.6614 C   0  0  0  1  0  0  0  0  0  0  0  0
   27.0809    1.0062  -62.4395 N   0  0  0  1  0  0  0  0  0  0  0  0
   28.3159   -0.0766  -63.9005 N   0  0  0  1  0  0  0  0  0  0  0  0
   28.2164    0.2093  -62.6490 N   0  0  0  1  0  0  0  0  0  0  0  0
   25.8358    2.8809  -57.3736 O   0  0  0  1  0  0  0  0  0  0  0  0
   23.9921    2.4856  -65.7895 N   0  0  0  1  0  0  0  0  0  0  0  0
   25.3875    4.2406  -57.2599 C   0  0  0  1  0  0  0  0  0  0  0  0
   22.0540    2.7987  -68.8065 N   0  0  0  1  0  0  0  0  0  0  0  0
   22.1213    2.4256  -67.3814 C   0  0  0  1  0  0  0  0  0  0  0  0
   20.3311    1.2393  -69.4456 C   0  0  0  1  0  0  0  0  0  0  0  0
   19.5954    0.6019  -70.4265 C   0  0  0  1  0  0  0  0  0  0  0  0
   19.7764    0.8118  -71.7339 N   0  0  0  1  0  0  0  0  0  0  0  0
   20.7261    1.6886  -72.0894 C   0  0  0  1  0  0  0  0  0  0  0  0
   21.5060    2.3735  -71.1739 C   0  0  0  1  0  0  0  0  0  0  0  0
   27.4789    0.0013  -66.6492 H   0  0  0  1  0  0  0  0  0  0  0  0
   27.5468   -0.1566  -60.1719 H   0  0  0  1  0  0  0  0  0  0  0  0
   25.3298    4.1175  -59.6039 H   0  0  0  1  0  0  0  0  0  0  0  0
   25.9306    3.3502  -61.8213 H   0  0  0  1  0  0  0  0  0  0  0  0
   26.9450    0.6122  -57.9509 H   0  0  0  1  0  0  0  0  0  0  0  0
   24.1508    1.8108  -67.7467 H   0  0  0  1  0  0  0  0  0  0  0  0
   24.9072    4.0688  -68.0828 H   0  0  0  1  0  0  0  0  0  0  0  0
   23.6540    4.7264  -67.0575 H   0  0  0  1  0  0  0  0  0  0  0  0
   23.4730    3.9454  -69.8869 H   0  0  0  1  0  0  0  0  0  0  0  0
   22.3424    4.8944  -68.9512 H   0  0  0  1  0  0  0  0  0  0  0  0
   23.4266    2.9287  -65.1229 H   0  0  0  1  0  0  0  0  0  0  0  0
   25.0951    4.4370  -56.2495 H   0  0  0  1  0  0  0  0  0  0  0  0
   24.5514    4.3958  -57.9094 H   0  0  0  1  0  0  0  0  0  0  0  0
   26.1819    4.9021  -57.5362 H   0  0  0  1  0  0  0  0  0  0  0  0
   21.7810    1.4261  -67.2078 H   0  0  0  1  0  0  0  0  0  0  0  0
   21.5739    3.1024  -66.7592 H   0  0  0  1  0  0  0  0  0  0  0  0
   20.1561    1.0418  -68.4396 H   0  0  0  1  0  0  0  0  0  0  0  0
   18.8634   -0.0758  -70.1322 H   0  0  0  1  0  0  0  0  0  0  0  0
   20.8846    1.8626  -73.1024 H   0  0  0  1  0  0  0  0  0  0  0  0
   22.2302    3.0477  -71.4941 H   0  0  0  1  0  0  0  0  0  0  0  0
  1  3  4  0  0  0  0
  1 14  4  0  0  0  0
  1 21  1  0  0  0  0
  2 14  4  0  0  0  0
  2 15  4  0  0  0  0
  2 30  1  0  0  0  0
  3 16  4  0  0  0  0
  4  5  4  0  0  0  0
  4  7  4  0  0  0  0
  4 17  1  0  0  0  0
  5  9  4  0  0  0  0
  5 31  1  0  0  0  0
  6  7  4  0  0  0  0
  6  8  4  0  0  0  0
  6 32  1  0  0  0  0
  7 33  1  0  0  0  0
  8  9  4  0  0  0  0
  8 20  1  0  0  0  0
  9 34  1  0  0  0  0
 10 11  1  0  0  0  0
 10 21  1  0  0  0  0
 10 24  1  0  0  0  0
 10 35  1  0  0  0  0
 11 12  1  0  0  0  0
 11 36  1  0  0  0  0
 11 37  1  0  0  0  0
 12 23  1  0  0  0  0
 12 38  1  0  0  0  0
 12 39  1  0  0  0  0
 13 23  1  0  0  0  0
 13 25  4  0  0  0  0
 13 29  4  0  0  0  0
 15 16  4  0  0  0  0
 15 18  4  0  0  0  0
 16 17  4  0  0  0  0
 17 19  4  0  0  0  0
 18 19  4  0  0  0  0
 20 22  1  0  0  0  0
 21 40  1  0  0  0  0
 22 41  1  0  0  0  0
 22 42  1  0  0  0  0
 22 43  1  0  0  0  0
 23 24  1  0  0  0  0
 24 44  1  0  0  0  0
 24 45  1  0  0  0  0
 25 26  4  0  0  0  0
 25 46  1  0  0  0  0
 26 27  4  0  0  0  0
 26 47  1  0  0  0  0
 27 28  4  0  0  0  0
 28 29  4  0  0  0  0
 28 48  1  0  0  0  0
 29 49  1  0  0  0  0
M  END
> <ConfClashScore>
0 

> <ConfOneFourInteractionScore>
-0.986948 

> <ConfScore>
0.0598296 

> <ConfScorePBest>
0.00283353 

> <ConfTolerance>
0.444099 

> <HETNAM>
     OWQ A 303  OWQ                                                       

> <pdb_OW>
Q_303 -16.5129 3.80749 7.62812 0.15963 1.39178 -0.28144 -3.20151 0 0 0 -1.30514 0 0 0 0 0 0 0 0 -8.31393

$$$$
6yky_lig_1.pdb
 OpenBabel04162415593D

 49 53  0  0  0  0  0  0  0  0999 V2000
   25.1048    1.8136  -65.3759 C   0  0  0  1  0  0  0  0  0  0  0  0
   26.9167    0.5034  -65.9326 C   0  0  0  1  0  0  0  0  0  0  0  0
   25.4179    1.8285  -64.0982 N   0  0  0  1  0  0  0  0  0  0  0  0
   26.6711    1.3257  -61.1128 C   0  0  0  1  0  0  0  0  0  0  0  0
   25.9985    2.5068  -60.8619 C   0  0  0  1  0  0  0  0  0  0  0  0
   26.7092    0.8459  -58.7643 C   0  0  0  1  0  0  0  0  0  0  0  0
   27.0293    0.4953  -60.0623 C   0  0  0  1  0  0  0  0  0  0  0  0
   26.0346    2.0304  -58.5124 C   0  0  0  1  0  0  0  0  0  0  0  0
   25.6775    2.8583  -59.5600 C   0  0  0  1  0  0  0  0  0  0  0  0
   23.6715    2.4957  -67.2205 C   0  0  0  1  0  0  0  0  0  0  0  0
   22.4127    3.3479  -67.5419 C   0  0  0  1  0  0  0  0  0  0  0  0
   21.7706    2.7639  -68.8178 C   0  0  0  1  0  0  0  0  0  0  0  0
   22.2363    0.5359  -69.9941 C   0  0  0  1  0  0  0  0  0  0  0  0
   25.8296    1.1708  -66.2748 N   0  0  0  1  0  0  0  0  0  0  0  0
   27.2965    0.4858  -64.5857 C   0  0  0  1  0  0  0  0  0  0  0  0
   26.4937    1.1852  -63.6614 C   0  0  0  1  0  0  0  0  0  0  0  0
   27.0810    1.0062  -62.4395 N   0  0  0  1  0  0  0  0  0  0  0  0
   28.3159   -0.0766  -63.9004 N   0  0  0  1  0  0  0  0  0  0  0  0
   28.2164    0.2092  -62.6490 N   0  0  0  1  0  0  0  0  0  0  0  0
   25.6731    2.4799  -57.2872 O   0  0  0  1  0  0  0  0  0  0  0  0
   23.9766    2.4950  -65.7952 N   0  0  0  1  0  0  0  0  0  0  0  0
   26.0935    1.7047  -56.1535 C   0  0  0  1  0  0  0  0  0  0  0  0
   22.3891    1.4110  -68.9075 N   0  0  0  1  0  0  0  0  0  0  0  0
   23.1819    1.1164  -67.7026 C   0  0  0  1  0  0  0  0  0  0  0  0
   21.4993    0.9102  -71.1024 C   0  0  0  1  0  0  0  0  0  0  0  0
   21.3776    0.0193  -72.1516 C   0  0  0  1  0  0  0  0  0  0  0  0
   21.9353   -1.1953  -72.1528 N   0  0  0  1  0  0  0  0  0  0  0  0
   22.6435   -1.5468  -71.0701 C   0  0  0  1  0  0  0  0  0  0  0  0
   22.8193   -0.7161  -69.9772 C   0  0  0  1  0  0  0  0  0  0  0  0
   27.4789    0.0014  -66.6492 H   0  0  0  1  0  0  0  0  0  0  0  0
   25.7333    3.1317  -61.6497 H   0  0  0  1  0  0  0  0  0  0  0  0
   26.9744    0.2210  -57.9764 H   0  0  0  1  0  0  0  0  0  0  0  0
   27.5391   -0.3915  -60.2508 H   0  0  0  1  0  0  0  0  0  0  0  0
   25.1678    3.7450  -59.3715 H   0  0  0  1  0  0  0  0  0  0  0  0
   24.5280    2.8281  -67.7690 H   0  0  0  1  0  0  0  0  0  0  0  0
   22.6942    4.3667  -67.7082 H   0  0  0  1  0  0  0  0  0  0  0  0
   21.7197    3.2971  -66.7282 H   0  0  0  1  0  0  0  0  0  0  0  0
   22.0115    3.3556  -69.6761 H   0  0  0  1  0  0  0  0  0  0  0  0
   20.7075    2.6959  -68.7179 H   0  0  0  1  0  0  0  0  0  0  0  0
   23.4009    2.9625  -65.1546 H   0  0  0  1  0  0  0  0  0  0  0  0
   26.0146    2.2977  -55.2664 H   0  0  0  1  0  0  0  0  0  0  0  0
   27.1099    1.3985  -56.2883 H   0  0  0  1  0  0  0  0  0  0  0  0
   25.4693    0.8405  -56.0614 H   0  0  0  1  0  0  0  0  0  0  0  0
   24.0103    0.4823  -67.9402 H   0  0  0  1  0  0  0  0  0  0  0  0
   22.5758    0.6475  -66.9559 H   0  0  0  1  0  0  0  0  0  0  0  0
   21.0450    1.8448  -71.1455 H   0  0  0  1  0  0  0  0  0  0  0  0
   20.8238    0.3087  -72.9830 H   0  0  0  1  0  0  0  0  0  0  0  0
   23.0821   -2.4897  -71.0504 H   0  0  0  1  0  0  0  0  0  0  0  0
   23.3798   -1.0286  -69.1588 H   0  0  0  1  0  0  0  0  0  0  0  0
  1  3  4  0  0  0  0
  1 14  4  0  0  0  0
  1 21  1  0  0  0  0
  2 14  4  0  0  0  0
  2 15  4  0  0  0  0
  2 30  1  0  0  0  0
  3 16  4  0  0  0  0
  4  5  4  0  0  0  0
  4  7  4  0  0  0  0
  4 17  1  0  0  0  0
  5  9  4  0  0  0  0
  5 31  1  0  0  0  0
  6  7  4  0  0  0  0
  6  8  4  0  0  0  0
  6 32  1  0  0  0  0
  7 33  1  0  0  0  0
  8  9  4  0  0  0  0
  8 20  1  0  0  0  0
  9 34  1  0  0  0  0
 10 11  1  0  0  0  0
 10 21  1  0  0  0  0
 10 24  1  0  0  0  0
 10 35  1  0  0  0  0
 11 12  1  0  0  0  0
 11 36  1  0  0  0  0
 11 37  1  0  0  0  0
 12 23  1  0  0  0  0
 12 38  1  0  0  0  0
 12 39  1  0  0  0  0
 13 23  1  0  0  0  0
 13 25  4  0  0  0  0
 13 29  4  0  0  0  0
 15 16  4  0  0  0  0
 15 18  4  0  0  0  0
 16 17  4  0  0  0  0
 17 19  4  0  0  0  0
 18 19  4  0  0  0  0
 20 22  1  0  0  0  0
 21 40  1  0  0  0  0
 22 41  1  0  0  0  0
 22 42  1  0  0  0  0
 22 43  1  0  0  0  0
 23 24  1  0  0  0  0
 24 44  1  0  0  0  0
 24 45  1  0  0  0  0
 25 26  4  0  0  0  0
 25 46  1  0  0  0  0
 26 27  4  0  0  0  0
 26 47  1  0  0  0  0
 27 28  4  0  0  0  0
 28 29  4  0  0  0  0
 28 48  1  0  0  0  0
 29 49  1  0  0  0  0
M  END
> <ConfClashScore>
0 

> <ConfOneFourInteractionScore>
-0.984874 

> <ConfScore>
0.0599835 

> <ConfScorePBest>
0.0028202 

> <ConfTolerance>
0.423394 

> <HETNAM>
     OWQ A 303  OWQ                                                       

> <pdb_OW>
Q_303 -16.5129 3.80749 7.62812 0.15963 1.39178 -0.28144 -3.20151 0 0 0 -1.30514 0 0 0 0 0 0 0 0 -8.31393

$$$$
6yky_lig_1.pdb
 OpenBabel04162415593D

 49 53  0  0  0  0  0  0  0  0999 V2000
   25.1048    1.8135  -65.3760 C   0  0  0  1  0  0  0  0  0  0  0  0
   26.9167    0.5034  -65.9326 C   0  0  0  1  0  0  0  0  0  0  0  0
   25.4178    1.8283  -64.0982 N   0  0  0  1  0  0  0  0  0  0  0  0
   26.7286    1.4700  -61.1391 C   0  0  0  1  0  0  0  0  0  0  0  0
   25.4984    1.1463  -60.5988 C   0  0  0  1  0  0  0  0  0  0  0  0
   27.2069    2.8433  -59.2332 C   0  0  0  1  0  0  0  0  0  0  0  0
   27.5831    2.3218  -60.4567 C   0  0  0  1  0  0  0  0  0  0  0  0
   25.9730    2.5189  -58.6912 C   0  0  0  1  0  0  0  0  0  0  0  0
   25.1212    1.6694  -59.3718 C   0  0  0  1  0  0  0  0  0  0  0  0
   23.1682    3.2410  -64.8623 C   0  0  0  1  0  0  0  0  0  0  0  0
   21.9863    2.3930  -64.3159 C   0  0  0  1  0  0  0  0  0  0  0  0
   20.8426    3.3660  -63.9606 C   0  0  0  1  0  0  0  0  0  0  0  0
   20.5677    5.8405  -64.5713 C   0  0  0  1  0  0  0  0  0  0  0  0
   25.8296    1.1707  -66.2747 N   0  0  0  1  0  0  0  0  0  0  0  0
   27.2964    0.4857  -64.5857 C   0  0  0  1  0  0  0  0  0  0  0  0
   26.4936    1.1851  -63.6614 C   0  0  0  1  0  0  0  0  0  0  0  0
   27.0810    1.0062  -62.4395 N   0  0  0  1  0  0  0  0  0  0  0  0
   28.3158   -0.0766  -63.9004 N   0  0  0  1  0  0  0  0  0  0  0  0
   28.2164    0.2092  -62.6490 N   0  0  0  1  0  0  0  0  0  0  0  0
   25.6631    3.0673  -57.4924 O   0  0  0  1  0  0  0  0  0  0  0  0
   23.9919    2.4856  -65.7895 N   0  0  0  1  0  0  0  0  0  0  0  0
   26.4826    4.1552  -57.0369 C   0  0  0  1  0  0  0  0  0  0  0  0
   21.2236    4.6042  -64.6971 N   0  0  0  1  0  0  0  0  0  0  0  0
   22.3800    4.3574  -65.5740 C   0  0  0  1  0  0  0  0  0  0  0  0
   20.4689    6.6989  -65.6507 C   0  0  0  1  0  0  0  0  0  0  0  0
   19.8119    7.9032  -65.4841 C   0  0  0  1  0  0  0  0  0  0  0  0
   19.2651    8.2880  -64.3270 N   0  0  0  1  0  0  0  0  0  0  0  0
   19.3721    7.4479  -63.2877 C   0  0  0  1  0  0  0  0  0  0  0  0
   20.0092    6.2220  -63.3671 C   0  0  0  1  0  0  0  0  0  0  0  0
   27.4789    0.0013  -66.6492 H   0  0  0  1  0  0  0  0  0  0  0  0
   24.8557    0.5104  -61.1128 H   0  0  0  1  0  0  0  0  0  0  0  0
   27.8496    3.4792  -58.7193 H   0  0  0  1  0  0  0  0  0  0  0  0
   28.5072    2.5684  -60.8652 H   0  0  0  1  0  0  0  0  0  0  0  0
   24.1972    1.4228  -58.9633 H   0  0  0  1  0  0  0  0  0  0  0  0
   23.7798    3.6263  -64.0734 H   0  0  0  1  0  0  0  0  0  0  0  0
   21.6579    1.7005  -65.0626 H   0  0  0  1  0  0  0  0  0  0  0  0
   22.2944    1.8571  -63.4425 H   0  0  0  1  0  0  0  0  0  0  0  0
   19.8989    2.9914  -64.2985 H   0  0  0  1  0  0  0  0  0  0  0  0
   20.8000    3.5422  -62.9061 H   0  0  0  1  0  0  0  0  0  0  0  0
   23.7420    2.4578  -66.7367 H   0  0  0  1  0  0  0  0  0  0  0  0
   26.5925    4.8729  -57.8229 H   0  0  0  1  0  0  0  0  0  0  0  0
   27.4458    3.7829  -56.7570 H   0  0  0  1  0  0  0  0  0  0  0  0
   26.0199    4.6204  -56.1916 H   0  0  0  1  0  0  0  0  0  0  0  0
   22.9772    5.2401  -65.6707 H   0  0  0  1  0  0  0  0  0  0  0  0
   22.0587    4.0357  -66.5426 H   0  0  0  1  0  0  0  0  0  0  0  0
   20.8812    6.4431  -66.5706 H   0  0  0  1  0  0  0  0  0  0  0  0
   19.7393    8.5427  -66.3011 H   0  0  0  1  0  0  0  0  0  0  0  0
   18.9562    7.7314  -62.3776 H   0  0  0  1  0  0  0  0  0  0  0  0
   20.0663    5.5997  -62.5358 H   0  0  0  1  0  0  0  0  0  0  0  0
  1  3  4  0  0  0  0
  1 14  4  0  0  0  0
  1 21  1  0  0  0  0
  2 14  4  0  0  0  0
  2 15  4  0  0  0  0
  2 30  1  0  0  0  0
  3 16  4  0  0  0  0
  4  5  4  0  0  0  0
  4  7  4  0  0  0  0
  4 17  1  0  0  0  0
  5  9  4  0  0  0  0
  5 31  1  0  0  0  0
  6  7  4  0  0  0  0
  6  8  4  0  0  0  0
  6 32  1  0  0  0  0
  7 33  1  0  0  0  0
  8  9  4  0  0  0  0
  8 20  1  0  0  0  0
  9 34  1  0  0  0  0
 10 11  1  0  0  0  0
 10 21  1  0  0  0  0
 10 24  1  0  0  0  0
 10 35  1  0  0  0  0
 11 12  1  0  0  0  0
 11 36  1  0  0  0  0
 11 37  1  0  0  0  0
 12 23  1  0  0  0  0
 12 38  1  0  0  0  0
 12 39  1  0  0  0  0
 13 23  1  0  0  0  0
 13 25  4  0  0  0  0
 13 29  4  0  0  0  0
 15 16  4  0  0  0  0
 15 18  4  0  0  0  0
 16 17  4  0  0  0  0
 17 19  4  0  0  0  0
 18 19  4  0  0  0  0
 20 22  1  0  0  0  0
 21 40  1  0  0  0  0
 22 41  1  0  0  0  0
 22 42  1  0  0  0  0
 22 43  1  0  0  0  0
 23 24  1  0  0  0  0
 24 44  1  0  0  0  0
 24 45  1  0  0  0  0
 25 26  4  0  0  0  0
 25 46  1  0  0  0  0
 26 27  4  0  0  0  0
 26 47  1  0  0  0  0
 27 28  4  0  0  0  0
 28 29  4  0  0  0  0
 28 48  1  0  0  0  0
 29 49  1  0  0  0  0
M  END
> <ConfClashScore>
0 

> <ConfOneFourInteractionScore>
-0.986948 

> <ConfScore>
0.060124 

> <ConfScorePBest>
0.00280687 

> <ConfTolerance>
0.453868 

> <HETNAM>
     OWQ A 303  OWQ                                                       

> <pdb_OW>
Q_303 -16.5129 3.80749 7.62812 0.15963 1.39178 -0.28144 -3.20151 0 0 0 -1.30514 0 0 0 0 0 0 0 0 -8.31393

$$$$
6yky_lig_1.pdb
 OpenBabel04162415593D

 49 53  0  0  0  0  0  0  0  0999 V2000
   25.1048    1.8135  -65.3760 C   0  0  0  1  0  0  0  0  0  0  0  0
   26.9167    0.5034  -65.9326 C   0  0  0  1  0  0  0  0  0  0  0  0
   25.4179    1.8283  -64.0981 N   0  0  0  1  0  0  0  0  0  0  0  0
   26.7670    1.4473  -61.1215 C   0  0  0  1  0  0  0  0  0  0  0  0
   27.6998    2.1566  -60.3886 C   0  0  0  1  0  0  0  0  0  0  0  0
   25.2892    1.4360  -59.2338 C   0  0  0  1  0  0  0  0  0  0  0  0
   25.5610    1.0841  -60.5425 C   0  0  0  1  0  0  0  0  0  0  0  0
   26.2246    2.1473  -58.4987 C   0  0  0  1  0  0  0  0  0  0  0  0
   27.4270    2.5094  -59.0762 C   0  0  0  1  0  0  0  0  0  0  0  0
   23.1012    3.1425  -64.7935 C   0  0  0  1  0  0  0  0  0  0  0  0
   21.6355    3.1659  -65.3085 C   0  0  0  1  0  0  0  0  0  0  0  0
   20.9435    4.3950  -64.6826 C   0  0  0  1  0  0  0  0  0  0  0  0
   21.9807    6.3908  -63.4517 C   0  0  0  1  0  0  0  0  0  0  0  0
   25.8296    1.1707  -66.2747 N   0  0  0  1  0  0  0  0  0  0  0  0
   27.2966    0.4857  -64.5857 C   0  0  0  1  0  0  0  0  0  0  0  0
   26.4936    1.1852  -63.6613 C   0  0  0  1  0  0  0  0  0  0  0  0
   27.0810    1.0061  -62.4395 N   0  0  0  1  0  0  0  0  0  0  0  0
   28.3159   -0.0766  -63.9004 N   0  0  0  1  0  0  0  0  0  0  0  0
   28.2164    0.2093  -62.6490 N   0  0  0  1  0  0  0  0  0  0  0  0
   26.0748    2.5374  -57.2275 O   0  0  0  1  0  0  0  0  0  0  0  0
   23.9950    2.4928  -65.7364 N   0  0  0  1  0  0  0  0  0  0  0  0
   24.8384    2.2765  -56.4817 C   0  0  0  1  0  0  0  0  0  0  0  0
   22.0950    5.2244  -64.2276 N   0  0  0  1  0  0  0  0  0  0  0  0
   23.3685    4.6572  -64.7006 C   0  0  0  1  0  0  0  0  0  0  0  0
   21.4868    7.5800  -63.9552 C   0  0  0  1  0  0  0  0  0  0  0  0
   21.3156    8.6466  -63.0934 C   0  0  0  1  0  0  0  0  0  0  0  0
   21.6064    8.5922  -61.7900 N   0  0  0  1  0  0  0  0  0  0  0  0
   22.0886    7.4344  -61.3162 C   0  0  0  1  0  0  0  0  0  0  0  0
   22.2876    6.3163  -62.1071 C   0  0  0  1  0  0  0  0  0  0  0  0
   27.4789    0.0014  -66.6492 H   0  0  0  1  0  0  0  0  0  0  0  0
   28.6062    2.4256  -60.8218 H   0  0  0  1  0  0  0  0  0  0  0  0
   24.3827    1.1670  -58.8007 H   0  0  0  1  0  0  0  0  0  0  0  0
   24.8608    0.5469  -61.0928 H   0  0  0  1  0  0  0  0  0  0  0  0
   28.1272    3.0465  -58.5259 H   0  0  0  1  0  0  0  0  0  0  0  0
   23.1804    2.6650  -63.8393 H   0  0  0  1  0  0  0  0  0  0  0  0
   21.6244    3.2447  -66.3755 H   0  0  0  1  0  0  0  0  0  0  0  0
   21.1295    2.2712  -65.0112 H   0  0  0  1  0  0  0  0  0  0  0  0
   20.3551    4.9171  -65.4079 H   0  0  0  1  0  0  0  0  0  0  0  0
   20.3239    4.1102  -63.8580 H   0  0  0  1  0  0  0  0  0  0  0  0
   23.7798    2.5510  -66.6908 H   0  0  0  1  0  0  0  0  0  0  0  0
   24.2012    3.1344  -56.5352 H   0  0  0  1  0  0  0  0  0  0  0  0
   25.0758    2.0720  -55.4585 H   0  0  0  1  0  0  0  0  0  0  0  0
   24.3366    1.4327  -56.9074 H   0  0  0  1  0  0  0  0  0  0  0  0
   23.6276    5.0556  -65.6593 H   0  0  0  1  0  0  0  0  0  0  0  0
   24.1554    4.8609  -64.0047 H   0  0  0  1  0  0  0  0  0  0  0  0
   21.2486    7.6701  -64.9635 H   0  0  0  1  0  0  0  0  0  0  0  0
   20.9414    9.5370  -63.4787 H   0  0  0  1  0  0  0  0  0  0  0  0
   22.3245    7.3736  -60.3051 H   0  0  0  1  0  0  0  0  0  0  0  0
   22.6612    5.4367  -61.6967 H   0  0  0  1  0  0  0  0  0  0  0  0
  1  3  4  0  0  0  0
  1 14  4  0  0  0  0
  1 21  1  0  0  0  0
  2 14  4  0  0  0  0
  2 15  4  0  0  0  0
  2 30  1  0  0  0  0
  3 16  4  0  0  0  0
  4  5  4  0  0  0  0
  4  7  4  0  0  0  0
  4 17  1  0  0  0  0
  5  9  4  0  0  0  0
  5 31  1  0  0  0  0
  6  7  4  0  0  0  0
  6  8  4  0  0  0  0
  6 32  1  0  0  0  0
  7 33  1  0  0  0  0
  8  9  4  0  0  0  0
  8 20  1  0  0  0  0
  9 34  1  0  0  0  0
 10 11  1  0  0  0  0
 10 21  1  0  0  0  0
 10 24  1  0  0  0  0
 10 35  1  0  0  0  0
 11 12  1  0  0  0  0
 11 36  1  0  0  0  0
 11 37  1  0  0  0  0
 12 23  1  0  0  0  0
 12 38  1  0  0  0  0
 12 39  1  0  0  0  0
 13 23  1  0  0  0  0
 13 25  4  0  0  0  0
 13 29  4  0  0  0  0
 15 16  4  0  0  0  0
 15 18  4  0  0  0  0
 16 17  4  0  0  0  0
 17 19  4  0  0  0  0
 18 19  4  0  0  0  0
 20 22  1  0  0  0  0
 21 40  1  0  0  0  0
 22 41  1  0  0  0  0
 22 42  1  0  0  0  0
 22 43  1  0  0  0  0
 23 24  1  0  0  0  0
 24 44  1  0  0  0  0
 24 45  1  0  0  0  0
 25 26  4  0  0  0  0
 25 46  1  0  0  0  0
 26 27  4  0  0  0  0
 26 47  1  0  0  0  0
 27 28  4  0  0  0  0
 28 29  4  0  0  0  0
 28 48  1  0  0  0  0
 29 49  1  0  0  0  0
M  END
> <ConfClashScore>
0 

> <ConfOneFourInteractionScore>
-0.986948 

> <ConfScore>
0.0602534 

> <ConfScorePBest>
0.00279354 

> <ConfTolerance>
0.48072 

> <HETNAM>
     OWQ A 303  OWQ                                                       

> <pdb_OW>
Q_303 -16.5129 3.80749 7.62812 0.15963 1.39178 -0.28144 -3.20151 0 0 0 -1.30514 0 0 0 0 0 0 0 0 -8.31393

$$$$
6yky_lig_1.pdb
 OpenBabel04162415593D

 49 53  0  0  0  0  0  0  0  0999 V2000
   25.1048    1.8136  -65.3760 C   0  0  0  1  0  0  0  0  0  0  0  0
   26.9167    0.5034  -65.9326 C   0  0  0  1  0  0  0  0  0  0  0  0
   25.4179    1.8284  -64.0983 N   0  0  0  1  0  0  0  0  0  0  0  0
   26.6542    1.4120  -61.1421 C   0  0  0  1  0  0  0  0  0  0  0  0
   25.7978    2.4875  -61.0002 C   0  0  0  1  0  0  0  0  0  0  0  0
   26.8279    1.2330  -58.7578 C   0  0  0  1  0  0  0  0  0  0  0  0
   27.1722    0.7855  -60.0193 C   0  0  0  1  0  0  0  0  0  0  0  0
   25.9689    2.3117  -58.6153 C   0  0  0  1  0  0  0  0  0  0  0  0
   25.4526    2.9362  -59.7350 C   0  0  0  1  0  0  0  0  0  0  0  0
   23.1092    3.2542  -64.9483 C   0  0  0  1  0  0  0  0  0  0  0  0
   21.9147    2.4099  -64.4765 C   0  0  0  1  0  0  0  0  0  0  0  0
   20.8691    3.4933  -64.1703 C   0  0  0  1  0  0  0  0  0  0  0  0
   21.0973    6.0524  -64.3698 C   0  0  0  1  0  0  0  0  0  0  0  0
   25.8297    1.1707  -66.2748 N   0  0  0  1  0  0  0  0  0  0  0  0
   27.2965    0.4857  -64.5857 C   0  0  0  1  0  0  0  0  0  0  0  0
   26.4937    1.1852  -63.6615 C   0  0  0  1  0  0  0  0  0  0  0  0
   27.0809    1.0062  -62.4395 N   0  0  0  1  0  0  0  0  0  0  0  0
   28.3159   -0.0766  -63.9004 N   0  0  0  1  0  0  0  0  0  0  0  0
   28.2164    0.2092  -62.6490 N   0  0  0  1  0  0  0  0  0  0  0  0
   25.6357    2.7533  -57.3793 O   0  0  0  1  0  0  0  0  0  0  0  0
   24.0075    2.4763  -65.7838 N   0  0  0  1  0  0  0  0  0  0  0  0
   26.0101    1.9287  -56.2647 C   0  0  0  1  0  0  0  0  0  0  0  0
   21.4357    4.7564  -64.7312 N   0  0  0  1  0  0  0  0  0  0  0  0
   22.4265    4.3514  -65.7455 C   0  0  0  1  0  0  0  0  0  0  0  0
   21.7593    7.1335  -64.9216 C   0  0  0  1  0  0  0  0  0  0  0  0
   21.3876    8.4077  -64.5366 C   0  0  0  1  0  0  0  0  0  0  0  0
   20.4176    8.6540  -63.6508 N   0  0  0  1  0  0  0  0  0  0  0  0
   19.7872    7.5964  -63.1205 C   0  0  0  1  0  0  0  0  0  0  0  0
   20.0925    6.2878  -63.4519 C   0  0  0  1  0  0  0  0  0  0  0  0
   27.4789    0.0013  -66.6492 H   0  0  0  1  0  0  0  0  0  0  0  0
   25.4124    2.9600  -61.8427 H   0  0  0  1  0  0  0  0  0  0  0  0
   27.2132    0.7604  -57.9152 H   0  0  0  1  0  0  0  0  0  0  0  0
   27.8197   -0.0212  -60.1261 H   0  0  0  1  0  0  0  0  0  0  0  0
   24.8049    3.7429  -59.6281 H   0  0  0  1  0  0  0  0  0  0  0  0
   23.6520    3.6570  -64.1188 H   0  0  0  1  0  0  0  0  0  0  0  0
   22.1582    1.8446  -63.6013 H   0  0  0  1  0  0  0  0  0  0  0  0
   21.5766    1.7483  -65.2465 H   0  0  0  1  0  0  0  0  0  0  0  0
   19.9374    3.2588  -64.6415 H   0  0  0  1  0  0  0  0  0  0  0  0
   20.7223    3.5848  -63.1144 H   0  0  0  1  0  0  0  0  0  0  0  0
   23.7930    2.4298  -66.7388 H   0  0  0  1  0  0  0  0  0  0  0  0
   25.6119    0.9447  -56.3988 H   0  0  0  1  0  0  0  0  0  0  0  0
   25.6203    2.3510  -55.3621 H   0  0  0  1  0  0  0  0  0  0  0  0
   27.0770    1.8761  -56.2028 H   0  0  0  1  0  0  0  0  0  0  0  0
   23.0970    5.1464  -65.9970 H   0  0  0  1  0  0  0  0  0  0  0  0
   21.9653    3.9779  -66.6359 H   0  0  0  1  0  0  0  0  0  0  0  0
   22.5225    6.9907  -65.6134 H   0  0  0  1  0  0  0  0  0  0  0  0
   21.8883    9.2161  -64.9577 H   0  0  0  1  0  0  0  0  0  0  0  0
   19.0319    7.7675  -62.4263 H   0  0  0  1  0  0  0  0  0  0  0  0
   19.5752    5.4968  -63.0180 H   0  0  0  1  0  0  0  0  0  0  0  0
  1  3  4  0  0  0  0
  1 14  4  0  0  0  0
  1 21  1  0  0  0  0
  2 14  4  0  0  0  0
  2 15  4  0  0  0  0
  2 30  1  0  0  0  0
  3 16  4  0  0  0  0
  4  5  4  0  0  0  0
  4  7  4  0  0  0  0
  4 17  1  0  0  0  0
  5  9  4  0  0  0  0
  5 31  1  0  0  0  0
  6  7  4  0  0  0  0
  6  8  4  0  0  0  0
  6 32  1  0  0  0  0
  7 33  1  0  0  0  0
  8  9  4  0  0  0  0
  8 20  1  0  0  0  0
  9 34  1  0  0  0  0
 10 11  1  0  0  0  0
 10 21  1  0  0  0  0
 10 24  1  0  0  0  0
 10 35  1  0  0  0  0
 11 12  1  0  0  0  0
 11 36  1  0  0  0  0
 11 37  1  0  0  0  0
 12 23  1  0  0  0  0
 12 38  1  0  0  0  0
 12 39  1  0  0  0  0
 13 23  1  0  0  0  0
 13 25  4  0  0  0  0
 13 29  4  0  0  0  0
 15 16  4  0  0  0  0
 15 18  4  0  0  0  0
 16 17  4  0  0  0  0
 17 19  4  0  0  0  0
 18 19  4  0  0  0  0
 20 22  1  0  0  0  0
 21 40  1  0  0  0  0
 22 41  1  0  0  0  0
 22 42  1  0  0  0  0
 22 43  1  0  0  0  0
 23 24  1  0  0  0  0
 24 44  1  0  0  0  0
 24 45  1  0  0  0  0
 25 26  4  0  0  0  0
 25 46  1  0  0  0  0
 26 27  4  0  0  0  0
 26 47  1  0  0  0  0
 27 28  4  0  0  0  0
 28 29  4  0  0  0  0
 28 48  1  0  0  0  0
 29 49  1  0  0  0  0
M  END
> <ConfClashScore>
0 

> <ConfOneFourInteractionScore>
-0.986948 

> <ConfScore>
0.060492 

> <ConfScorePBest>
0.00278021 

> <ConfTolerance>
0.471133 

> <HETNAM>
     OWQ A 303  OWQ                                                       

> <pdb_OW>
Q_303 -16.5129 3.80749 7.62812 0.15963 1.39178 -0.28144 -3.20151 0 0 0 -1.30514 0 0 0 0 0 0 0 0 -8.31393

$$$$
6yky_lig_1.pdb
 OpenBabel04162415593D

 49 53  0  0  0  0  0  0  0  0999 V2000
   25.1048    1.8135  -65.3760 C   0  0  0  1  0  0  0  0  0  0  0  0
   26.9167    0.5034  -65.9326 C   0  0  0  1  0  0  0  0  0  0  0  0
   25.4178    1.8284  -64.0982 N   0  0  0  1  0  0  0  0  0  0  0  0
   26.8385    1.5661  -61.1518 C   0  0  0  1  0  0  0  0  0  0  0  0
   26.1442    2.7595  -61.0911 C   0  0  0  1  0  0  0  0  0  0  0  0
   27.1652    1.6326  -58.7778 C   0  0  0  1  0  0  0  0  0  0  0  0
   27.3522    1.0031  -59.9940 C   0  0  0  1  0  0  0  0  0  0  0  0
   26.4688    2.8297  -58.7166 C   0  0  0  1  0  0  0  0  0  0  0  0
   25.9568    3.3908  -59.8713 C   0  0  0  1  0  0  0  0  0  0  0  0
   23.5788    2.5601  -67.1743 C   0  0  0  1  0  0  0  0  0  0  0  0
   22.5106    3.6489  -67.3643 C   0  0  0  1  0  0  0  0  0  0  0  0
   21.8090    3.1765  -68.6470 C   0  0  0  1  0  0  0  0  0  0  0  0
   22.3307    1.1179  -70.0928 C   0  0  0  1  0  0  0  0  0  0  0  0
   25.8297    1.1707  -66.2748 N   0  0  0  1  0  0  0  0  0  0  0  0
   27.2965    0.4857  -64.5857 C   0  0  0  1  0  0  0  0  0  0  0  0
   26.4937    1.1851  -63.6614 C   0  0  0  1  0  0  0  0  0  0  0  0
   27.0809    1.0061  -62.4395 N   0  0  0  1  0  0  0  0  0  0  0  0
   28.3158   -0.0766  -63.9004 N   0  0  0  1  0  0  0  0  0  0  0  0
   28.2164    0.2092  -62.6490 N   0  0  0  1  0  0  0  0  0  0  0  0
   26.2243    3.5491  -57.5705 O   0  0  0  1  0  0  0  0  0  0  0  0
   24.0074    2.4762  -65.7838 N   0  0  0  1  0  0  0  0  0  0  0  0
   26.7893    3.0488  -56.3487 C   0  0  0  1  0  0  0  0  0  0  0  0
   22.3267    1.7973  -68.8934 N   0  0  0  1  0  0  0  0  0  0  0  0
   22.8329    1.3072  -67.5979 C   0  0  0  1  0  0  0  0  0  0  0  0
   23.3436    1.3853  -70.9950 C   0  0  0  1  0  0  0  0  0  0  0  0
   23.3072    0.7764  -72.2350 C   0  0  0  1  0  0  0  0  0  0  0  0
   22.3371   -0.0611  -72.6141 N   0  0  0  1  0  0  0  0  0  0  0  0
   21.3591   -0.3081  -71.7310 C   0  0  0  1  0  0  0  0  0  0  0  0
   21.3192    0.2552  -70.4675 C   0  0  0  1  0  0  0  0  0  0  0  0
   27.4789    0.0014  -66.6492 H   0  0  0  1  0  0  0  0  0  0  0  0
   25.7623    3.1839  -61.9604 H   0  0  0  1  0  0  0  0  0  0  0  0
   27.5471    1.2083  -57.9085 H   0  0  0  1  0  0  0  0  0  0  0  0
   27.8781    0.1070  -60.0403 H   0  0  0  1  0  0  0  0  0  0  0  0
   25.4308    4.2868  -59.8250 H   0  0  0  1  0  0  0  0  0  0  0  0
   24.4286    2.7365  -67.8001 H   0  0  0  1  0  0  0  0  0  0  0  0
   21.8325    3.6783  -66.5372 H   0  0  0  1  0  0  0  0  0  0  0  0
   22.9557    4.6130  -67.4958 H   0  0  0  1  0  0  0  0  0  0  0  0
   22.0526    3.8203  -69.4662 H   0  0  0  1  0  0  0  0  0  0  0  0
   20.7480    3.1595  -68.5092 H   0  0  0  1  0  0  0  0  0  0  0  0
   23.4640    2.9294  -65.1057 H   0  0  0  1  0  0  0  0  0  0  0  0
   27.8453    2.9239  -56.4683 H   0  0  0  1  0  0  0  0  0  0  0  0
   26.3437    2.1058  -56.1098 H   0  0  0  1  0  0  0  0  0  0  0  0
   26.6001    3.7440  -55.5576 H   0  0  0  1  0  0  0  0  0  0  0  0
   22.0417    1.0588  -66.9217 H   0  0  0  1  0  0  0  0  0  0  0  0
   23.4846    0.4661  -67.7096 H   0  0  0  1  0  0  0  0  0  0  0  0
   24.1185    2.0325  -70.7452 H   0  0  0  1  0  0  0  0  0  0  0  0
   24.0737    0.9803  -72.9077 H   0  0  0  1  0  0  0  0  0  0  0  0
   20.5931   -0.9543  -72.0089 H   0  0  0  1  0  0  0  0  0  0  0  0
   20.5424    0.0332  -69.8126 H   0  0  0  1  0  0  0  0  0  0  0  0
  1  3  4  0  0  0  0
  1 14  4  0  0  0  0
  1 21  1  0  0  0  0
  2 14  4  0  0  0  0
  2 15  4  0  0  0  0
  2 30  1  0  0  0  0
  3 16  4  0  0  0  0
  4  5  4  0  0  0  0
  4  7  4  0  0  0  0
  4 17  1  0  0  0  0
  5  9  4  0  0  0  0
  5 31  1  0  0  0  0
  6  7  4  0  0  0  0
  6  8  4  0  0  0  0
  6 32  1  0  0  0  0
  7 33  1  0  0  0  0
  8  9  4  0  0  0  0
  8 20  1  0  0  0  0
  9 34  1  0  0  0  0
 10 11  1  0  0  0  0
 10 21  1  0  0  0  0
 10 24  1  0  0  0  0
 10 35  1  0  0  0  0
 11 12  1  0  0  0  0
 11 36  1  0  0  0  0
 11 37  1  0  0  0  0
 12 23  1  0  0  0  0
 12 38  1  0  0  0  0
 12 39  1  0  0  0  0
 13 23  1  0  0  0  0
 13 25  4  0  0  0  0
 13 29  4  0  0  0  0
 15 16  4  0  0  0  0
 15 18  4  0  0  0  0
 16 17  4  0  0  0  0
 17 19  4  0  0  0  0
 18 19  4  0  0  0  0
 20 22  1  0  0  0  0
 21 40  1  0  0  0  0
 22 41  1  0  0  0  0
 22 42  1  0  0  0  0
 22 43  1  0  0  0  0
 23 24  1  0  0  0  0
 24 44  1  0  0  0  0
 24 45  1  0  0  0  0
 25 26  4  0  0  0  0
 25 46  1  0  0  0  0
 26 27  4  0  0  0  0
 26 47  1  0  0  0  0
 27 28  4  0  0  0  0
 28 29  4  0  0  0  0
 28 48  1  0  0  0  0
 29 49  1  0  0  0  0
M  END
> <ConfClashScore>
0 

> <ConfOneFourInteractionScore>
-0.986948 

> <ConfScore>
0.0604973 

> <ConfScorePBest>
0.00276689 

> <ConfTolerance>
0.434304 

> <HETNAM>
     OWQ A 303  OWQ                                                       

> <pdb_OW>
Q_303 -16.5129 3.80749 7.62812 0.15963 1.39178 -0.28144 -3.20151 0 0 0 -1.30514 0 0 0 0 0 0 0 0 -8.31393

$$$$
6yky_lig_1.pdb
 OpenBabel04162415593D

 49 53  0  0  0  0  0  0  0  0999 V2000
   25.1048    1.8137  -65.3760 C   0  0  0  1  0  0  0  0  0  0  0  0
   26.9167    0.5034  -65.9326 C   0  0  0  1  0  0  0  0  0  0  0  0
   25.4179    1.8285  -64.0983 N   0  0  0  1  0  0  0  0  0  0  0  0
   26.7287    1.4701  -61.1392 C   0  0  0  1  0  0  0  0  0  0  0  0
   26.2065    2.7451  -61.0319 C   0  0  0  1  0  0  0  0  0  0  0  0
   26.7017    1.2558  -58.7515 C   0  0  0  1  0  0  0  0  0  0  0  0
   26.9792    0.7252  -59.9972 C   0  0  0  1  0  0  0  0  0  0  0  0
   26.1779    2.5347  -58.6438 C   0  0  0  1  0  0  0  0  0  0  0  0
   25.9282    3.2772  -59.7825 C   0  0  0  1  0  0  0  0  0  0  0  0
   23.5610    2.7452  -67.1485 C   0  0  0  1  0  0  0  0  0  0  0  0
   23.5236    1.4509  -67.9911 C   0  0  0  1  0  0  0  0  0  0  0  0
   24.0513    1.7870  -69.3632 C   0  0  0  1  0  0  0  0  0  0  0  0
   25.4348    3.8372  -70.0680 C   0  0  0  1  0  0  0  0  0  0  0  0
   25.8297    1.1708  -66.2748 N   0  0  0  1  0  0  0  0  0  0  0  0
   27.2965    0.4857  -64.5857 C   0  0  0  1  0  0  0  0  0  0  0  0
   26.4937    1.1852  -63.6614 C   0  0  0  1  0  0  0  0  0  0  0  0
   27.0810    1.0063  -62.4395 N   0  0  0  1  0  0  0  0  0  0  0  0
   28.3159   -0.0766  -63.9004 N   0  0  0  1  0  0  0  0  0  0  0  0
   28.2164    0.2092  -62.6490 N   0  0  0  1  0  0  0  0  0  0  0  0
   25.9529    2.9479  -57.3775 O   0  0  0  1  0  0  0  0  0  0  0  0
   24.0137    2.4728  -65.7815 N   0  0  0  1  0  0  0  0  0  0  0  0
   25.2055    4.1528  -57.1491 C   0  0  0  1  0  0  0  0  0  0  0  0
   24.7235    3.1521  -69.1000 N   0  0  0  1  0  0  0  0  0  0  0  0
   24.5645    3.6010  -67.8961 C   0  0  0  1  0  0  0  0  0  0  0  0
   25.7082    3.3668  -71.3391 C   0  0  0  1  0  0  0  0  0  0  0  0
   26.4300    4.1679  -72.2032 C   0  0  0  1  0  0  0  0  0  0  0  0
   26.8846    5.3809  -71.8741 N   0  0  0  1  0  0  0  0  0  0  0  0
   26.6162    5.8225  -70.6372 C   0  0  0  1  0  0  0  0  0  0  0  0
   25.8975    5.0883  -69.7098 C   0  0  0  1  0  0  0  0  0  0  0  0
   27.4789    0.0013  -66.6492 H   0  0  0  1  0  0  0  0  0  0  0  0
   26.0223    3.3055  -61.8885 H   0  0  0  1  0  0  0  0  0  0  0  0
   26.8859    0.6954  -57.8950 H   0  0  0  1  0  0  0  0  0  0  0  0
   27.3760   -0.2328  -60.0778 H   0  0  0  1  0  0  0  0  0  0  0  0
   25.5314    4.2351  -59.7019 H   0  0  0  1  0  0  0  0  0  0  0  0
   22.5998    3.2145  -67.1196 H   0  0  0  1  0  0  0  0  0  0  0  0
   24.1382    0.7019  -67.5371 H   0  0  0  1  0  0  0  0  0  0  0  0
   22.5183    1.0920  -68.0645 H   0  0  0  1  0  0  0  0  0  0  0  0
   24.7601    1.0594  -69.6996 H   0  0  0  1  0  0  0  0  0  0  0  0
   23.2595    1.8713  -70.0779 H   0  0  0  1  0  0  0  0  0  0  0  0
   23.4391    2.8205  -65.0678 H   0  0  0  1  0  0  0  0  0  0  0  0
   25.0280    4.2696  -56.1004 H   0  0  0  1  0  0  0  0  0  0  0  0
   24.2697    4.0948  -57.6647 H   0  0  0  1  0  0  0  0  0  0  0  0
   25.7619    4.9916  -57.5121 H   0  0  0  1  0  0  0  0  0  0  0  0
   24.2077    4.6088  -67.9387 H   0  0  0  1  0  0  0  0  0  0  0  0
   25.5029    3.5758  -67.3825 H   0  0  0  1  0  0  0  0  0  0  0  0
   25.3768    2.4278  -71.6392 H   0  0  0  1  0  0  0  0  0  0  0  0
   26.6297    3.8087  -73.1586 H   0  0  0  1  0  0  0  0  0  0  0  0
   26.9649    6.7626  -70.3609 H   0  0  0  1  0  0  0  0  0  0  0  0
   25.7095    5.4713  -68.7615 H   0  0  0  1  0  0  0  0  0  0  0  0
  1  3  4  0  0  0  0
  1 14  4  0  0  0  0
  1 21  1  0  0  0  0
  2 14  4  0  0  0  0
  2 15  4  0  0  0  0
  2 30  1  0  0  0  0
  3 16  4  0  0  0  0
  4  5  4  0  0  0  0
  4  7  4  0  0  0  0
  4 17  1  0  0  0  0
  5  9  4  0  0  0  0
  5 31  1  0  0  0  0
  6  7  4  0  0  0  0
  6  8  4  0  0  0  0
  6 32  1  0  0  0  0
  7 33  1  0  0  0  0
  8  9  4  0  0  0  0
  8 20  1  0  0  0  0
  9 34  1  0  0  0  0
 10 11  1  0  0  0  0
 10 21  1  0  0  0  0
 10 24  1  0  0  0  0
 10 35  1  0  0  0  0
 11 12  1  0  0  0  0
 11 36  1  0  0  0  0
 11 37  1  0  0  0  0
 12 23  1  0  0  0  0
 12 38  1  0  0  0  0
 12 39  1  0  0  0  0
 13 23  1  0  0  0  0
 13 25  4  0  0  0  0
 13 29  4  0  0  0  0
 15 16  4  0  0  0  0
 15 18  4  0  0  0  0
 16 17  4  0  0  0  0
 17 19  4  0  0  0  0
 18 19  4  0  0  0  0
 20 22  1  0  0  0  0
 21 40  1  0  0  0  0
 22 41  1  0  0  0  0
 22 42  1  0  0  0  0
 22 43  1  0  0  0  0
 23 24  1  0  0  0  0
 24 44  1  0  0  0  0
 24 45  1  0  0  0  0
 25 26  4  0  0  0  0
 25 46  1  0  0  0  0
 26 27  4  0  0  0  0
 26 47  1  0  0  0  0
 27 28  4  0  0  0  0
 28 29  4  0  0  0  0
 28 48  1  0  0  0  0
 29 49  1  0  0  0  0
M  END
> <ConfClashScore>
0 

> <ConfOneFourInteractionScore>
-0.983503 

> <ConfScore>
0.0608816 

> <ConfScorePBest>
0.00275356 

> <ConfTolerance>
0.521474 

> <HETNAM>
     OWQ A 303  OWQ                                                       

> <pdb_OW>
Q_303 -16.5129 3.80749 7.62812 0.15963 1.39178 -0.28144 -3.20151 0 0 0 -1.30514 0 0 0 0 0 0 0 0 -8.31393

$$$$
6yky_lig_1.pdb
 OpenBabel04162415593D

 49 53  0  0  0  0  0  0  0  0999 V2000
   25.1048    1.8137  -65.3761 C   0  0  0  1  0  0  0  0  0  0  0  0
   26.9167    0.5034  -65.9326 C   0  0  0  1  0  0  0  0  0  0  0  0
   25.4179    1.8285  -64.0982 N   0  0  0  1  0  0  0  0  0  0  0  0
   26.7866    1.5430  -61.1529 C   0  0  0  1  0  0  0  0  0  0  0  0
   27.0510    0.8019  -60.0167 C   0  0  0  1  0  0  0  0  0  0  0  0
   25.7843    3.2543  -59.8059 C   0  0  0  1  0  0  0  0  0  0  0  0
   26.1499    2.7699  -61.0477 C   0  0  0  1  0  0  0  0  0  0  0  0
   26.0495    2.5111  -58.6663 C   0  0  0  1  0  0  0  0  0  0  0  0
   26.6843    1.2878  -58.7714 C   0  0  0  1  0  0  0  0  0  0  0  0
   23.1750    3.2811  -64.9066 C   0  0  0  1  0  0  0  0  0  0  0  0
   21.7829    3.5118  -65.5158 C   0  0  0  1  0  0  0  0  0  0  0  0
   21.3338    4.7902  -64.7914 C   0  0  0  1  0  0  0  0  0  0  0  0
   22.5910    6.1453  -63.0082 C   0  0  0  1  0  0  0  0  0  0  0  0
   25.8297    1.1709  -66.2747 N   0  0  0  1  0  0  0  0  0  0  0  0
   27.2965    0.4857  -64.5857 C   0  0  0  1  0  0  0  0  0  0  0  0
   26.4937    1.1853  -63.6615 C   0  0  0  1  0  0  0  0  0  0  0  0
   27.0809    1.0062  -62.4396 N   0  0  0  1  0  0  0  0  0  0  0  0
   28.3159   -0.0766  -63.9004 N   0  0  0  1  0  0  0  0  0  0  0  0
   28.2164    0.2093  -62.6490 N   0  0  0  1  0  0  0  0  0  0  0  0
   25.7367    2.8769  -57.4080 O   0  0  0  1  0  0  0  0  0  0  0  0
   24.0076    2.4765  -65.7837 N   0  0  0  1  0  0  0  0  0  0  0  0
   25.1416    4.1893  -57.2821 C   0  0  0  1  0  0  0  0  0  0  0  0
   22.5530    5.2939  -64.0904 N   0  0  0  1  0  0  0  0  0  0  0  0
   23.7076    4.6979  -64.7879 C   0  0  0  1  0  0  0  0  0  0  0  0
   21.4193    6.6246  -62.4522 C   0  0  0  1  0  0  0  0  0  0  0  0
   21.4936    7.3971  -61.3088 C   0  0  0  1  0  0  0  0  0  0  0  0
   22.6451    7.7113  -60.7076 N   0  0  0  1  0  0  0  0  0  0  0  0
   23.7737    7.2435  -61.2599 C   0  0  0  1  0  0  0  0  0  0  0  0
   23.7909    6.4607  -62.4010 C   0  0  0  1  0  0  0  0  0  0  0  0
   27.4789    0.0014  -66.6492 H   0  0  0  1  0  0  0  0  0  0  0  0
   27.5251   -0.1204  -60.0962 H   0  0  0  1  0  0  0  0  0  0  0  0
   25.3102    4.1766  -59.7266 H   0  0  0  1  0  0  0  0  0  0  0  0
   25.9473    3.3258  -61.9030 H   0  0  0  1  0  0  0  0  0  0  0  0
   26.8869    0.7320  -57.9161 H   0  0  0  1  0  0  0  0  0  0  0  0
   23.1064    2.8101  -63.9482 H   0  0  0  1  0  0  0  0  0  0  0  0
   21.8402    3.6627  -66.5735 H   0  0  0  1  0  0  0  0  0  0  0  0
   21.1253    2.6939  -65.3068 H   0  0  0  1  0  0  0  0  0  0  0  0
   20.5602    4.5694  -64.0860 H   0  0  0  1  0  0  0  0  0  0  0  0
   20.9797    5.5148  -65.4946 H   0  0  0  1  0  0  0  0  0  0  0  0
   23.7550    2.4128  -66.7285 H   0  0  0  1  0  0  0  0  0  0  0  0
   25.7707    4.9137  -57.7559 H   0  0  0  1  0  0  0  0  0  0  0  0
   25.0341    4.4340  -56.2460 H   0  0  0  1  0  0  0  0  0  0  0  0
   24.1799    4.1911  -57.7512 H   0  0  0  1  0  0  0  0  0  0  0  0
   24.6027    4.7466  -64.2037 H   0  0  0  1  0  0  0  0  0  0  0  0
   23.8797    5.1474  -65.7434 H   0  0  0  1  0  0  0  0  0  0  0  0
   20.4995    6.4079  -62.8864 H   0  0  0  1  0  0  0  0  0  0  0  0
   20.6080    7.7520  -60.8948 H   0  0  0  1  0  0  0  0  0  0  0  0
   24.6803    7.4805  -60.8087 H   0  0  0  1  0  0  0  0  0  0  0  0
   24.6902    6.1164  -62.7939 H   0  0  0  1  0  0  0  0  0  0  0  0
  1  3  4  0  0  0  0
  1 14  4  0  0  0  0
  1 21  1  0  0  0  0
  2 14  4  0  0  0  0
  2 15  4  0  0  0  0
  2 30  1  0  0  0  0
  3 16  4  0  0  0  0
  4  5  4  0  0  0  0
  4  7  4  0  0  0  0
  4 17  1  0  0  0  0
  5  9  4  0  0  0  0
  5 31  1  0  0  0  0
  6  7  4  0  0  0  0
  6  8  4  0  0  0  0
  6 32  1  0  0  0  0
  7 33  1  0  0  0  0
  8  9  4  0  0  0  0
  8 20  1  0  0  0  0
  9 34  1  0  0  0  0
 10 11  1  0  0  0  0
 10 21  1  0  0  0  0
 10 24  1  0  0  0  0
 10 35  1  0  0  0  0
 11 12  1  0  0  0  0
 11 36  1  0  0  0  0
 11 37  1  0  0  0  0
 12 23  1  0  0  0  0
 12 38  1  0  0  0  0
 12 39  1  0  0  0  0
 13 23  1  0  0  0  0
 13 25  4  0  0  0  0
 13 29  4  0  0  0  0
 15 16  4  0  0  0  0
 15 18  4  0  0  0  0
 16 17  4  0  0  0  0
 17 19  4  0  0  0  0
 18 19  4  0  0  0  0
 20 22  1  0  0  0  0
 21 40  1  0  0  0  0
 22 41  1  0  0  0  0
 22 42  1  0  0  0  0
 22 43  1  0  0  0  0
 23 24  1  0  0  0  0
 24 44  1  0  0  0  0
 24 45  1  0  0  0  0
 25 26  4  0  0  0  0
 25 46  1  0  0  0  0
 26 27  4  0  0  0  0
 26 47  1  0  0  0  0
 27 28  4  0  0  0  0
 28 29  4  0  0  0  0
 28 48  1  0  0  0  0
 29 49  1  0  0  0  0
M  END
> <ConfClashScore>
0 

> <ConfOneFourInteractionScore>
-0.984874 

> <ConfScore>
0.0641697 

> <ConfScorePBest>
0.00274023 

> <ConfTolerance>
0.491314 

> <HETNAM>
     OWQ A 303  OWQ                                                       

> <pdb_OW>
Q_303 -16.5129 3.80749 7.62812 0.15963 1.39178 -0.28144 -3.20151 0 0 0 -1.30514 0 0 0 0 0 0 0 0 -8.31393

$$$$
6yky_lig_1.pdb
 OpenBabel04162415593D

 49 53  0  0  0  0  0  0  0  0999 V2000
   25.1047    1.8134  -65.3760 C   0  0  0  1  0  0  0  0  0  0  0  0
   26.9167    0.5034  -65.9326 C   0  0  0  1  0  0  0  0  0  0  0  0
   25.4178    1.8282  -64.0982 N   0  0  0  1  0  0  0  0  0  0  0  0
   26.7286    1.4699  -61.1391 C   0  0  0  1  0  0  0  0  0  0  0  0
   27.4958    1.1138  -60.0461 C   0  0  0  1  0  0  0  0  0  0  0  0
   25.1735    2.5779  -59.6895 C   0  0  0  1  0  0  0  0  0  0  0  0
   25.5643    2.2006  -60.9604 C   0  0  0  1  0  0  0  0  0  0  0  0
   25.9429    2.2209  -58.5931 C   0  0  0  1  0  0  0  0  0  0  0  0
   27.1038    1.4922  -58.7715 C   0  0  0  1  0  0  0  0  0  0  0  0
   22.9724    3.1341  -65.0476 C   0  0  0  1  0  0  0  0  0  0  0  0
   21.5909    2.9661  -65.7185 C   0  0  0  1  0  0  0  0  0  0  0  0
   20.8696    4.2858  -65.6092 C   0  0  0  1  0  0  0  0  0  0  0  0
   21.8673    6.6416  -65.1019 C   0  0  0  1  0  0  0  0  0  0  0  0
   25.8297    1.1706  -66.2747 N   0  0  0  1  0  0  0  0  0  0  0  0
   27.2965    0.4857  -64.5857 C   0  0  0  1  0  0  0  0  0  0  0  0
   26.4936    1.1851  -63.6614 C   0  0  0  1  0  0  0  0  0  0  0  0
   27.0809    1.0061  -62.4395 N   0  0  0  1  0  0  0  0  0  0  0  0
   28.3159   -0.0766  -63.9004 N   0  0  0  1  0  0  0  0  0  0  0  0
   28.2164    0.2092  -62.6490 N   0  0  0  1  0  0  0  0  0  0  0  0
   25.4608    2.6389  -57.4067 O   0  0  0  1  0  0  0  0  0  0  0  0
   24.0200    2.4613  -65.8201 N   0  0  0  1  0  0  0  0  0  0  0  0
   26.2847    2.3150  -56.2626 C   0  0  0  1  0  0  0  0  0  0  0  0
   22.0313    5.2326  -65.2365 N   0  0  0  1  0  0  0  0  0  0  0  0
   23.1668    4.6375  -65.0567 C   0  0  0  1  0  0  0  0  0  0  0  0
   22.6654    7.5164  -65.8155 C   0  0  0  1  0  0  0  0  0  0  0  0
   22.5338    8.8730  -65.5875 C   0  0  0  1  0  0  0  0  0  0  0  0
   21.6726    9.3898  -64.7056 N   0  0  0  1  0  0  0  0  0  0  0  0
   20.9083    8.5298  -64.0176 C   0  0  0  1  0  0  0  0  0  0  0  0
   20.9719    7.1576  -64.1855 C   0  0  0  1  0  0  0  0  0  0  0  0
   27.4790    0.0013  -66.6492 H   0  0  0  1  0  0  0  0  0  0  0  0
   28.3672    0.5621  -60.1798 H   0  0  0  1  0  0  0  0  0  0  0  0
   24.3021    3.1296  -59.5557 H   0  0  0  1  0  0  0  0  0  0  0  0
   24.9849    2.4650  -61.7826 H   0  0  0  1  0  0  0  0  0  0  0  0
   27.6832    1.2278  -57.9493 H   0  0  0  1  0  0  0  0  0  0  0  0
   22.9647    2.7522  -64.0481 H   0  0  0  1  0  0  0  0  0  0  0  0
   21.0326    2.2024  -65.2184 H   0  0  0  1  0  0  0  0  0  0  0  0
   21.7147    2.7018  -66.7479 H   0  0  0  1  0  0  0  0  0  0  0  0
   20.4196    4.5647  -66.5391 H   0  0  0  1  0  0  0  0  0  0  0  0
   20.1224    4.2620  -64.8437 H   0  0  0  1  0  0  0  0  0  0  0  0
   23.9123    2.4892  -66.7939 H   0  0  0  1  0  0  0  0  0  0  0  0
   26.3039    1.2540  -56.1252 H   0  0  0  1  0  0  0  0  0  0  0  0
   25.8795    2.7803  -55.3883 H   0  0  0  1  0  0  0  0  0  0  0  0
   27.2800    2.6711  -56.4279 H   0  0  0  1  0  0  0  0  0  0  0  0
   23.8346    4.9029  -65.8495 H   0  0  0  1  0  0  0  0  0  0  0  0
   23.5834    4.9459  -64.1207 H   0  0  0  1  0  0  0  0  0  0  0  0
   23.3518    7.1603  -66.5110 H   0  0  0  1  0  0  0  0  0  0  0  0
   23.1356    9.5253  -66.1297 H   0  0  0  1  0  0  0  0  0  0  0  0
   20.2345    8.9126  -63.3238 H   0  0  0  1  0  0  0  0  0  0  0  0
   20.3573    6.5270  -63.6322 H   0  0  0  1  0  0  0  0  0  0  0  0
  1  3  4  0  0  0  0
  1 14  4  0  0  0  0
  1 21  1  0  0  0  0
  2 14  4  0  0  0  0
  2 15  4  0  0  0  0
  2 30  1  0  0  0  0
  3 16  4  0  0  0  0
  4  5  4  0  0  0  0
  4  7  4  0  0  0  0
  4 17  1  0  0  0  0
  5  9  4  0  0  0  0
  5 31  1  0  0  0  0
  6  7  4  0  0  0  0
  6  8  4  0  0  0  0
  6 32  1  0  0  0  0
  7 33  1  0  0  0  0
  8  9  4  0  0  0  0
  8 20  1  0  0  0  0
  9 34  1  0  0  0  0
 10 11  1  0  0  0  0
 10 21  1  0  0  0  0
 10 24  1  0  0  0  0
 10 35  1  0  0  0  0
 11 12  1  0  0  0  0
 11 36  1  0  0  0  0
 11 37  1  0  0  0  0
 12 23  1  0  0  0  0
 12 38  1  0  0  0  0
 12 39  1  0  0  0  0
 13 23  1  0  0  0  0
 13 25  4  0  0  0  0
 13 29  4  0  0  0  0
 15 16  4  0  0  0  0
 15 18  4  0  0  0  0
 16 17  4  0  0  0  0
 17 19  4  0  0  0  0
 18 19  4  0  0  0  0
 20 22  1  0  0  0  0
 21 40  1  0  0  0  0
 22 41  1  0  0  0  0
 22 42  1  0  0  0  0
 22 43  1  0  0  0  0
 23 24  1  0  0  0  0
 24 44  1  0  0  0  0
 24 45  1  0  0  0  0
 25 26  4  0  0  0  0
 25 46  1  0  0  0  0
 26 27  4  0  0  0  0
 26 47  1  0  0  0  0
 27 28  4  0  0  0  0
 28 29  4  0  0  0  0
 28 48  1  0  0  0  0
 29 49  1  0  0  0  0
M  END
> <ConfClashScore>
0 

> <ConfOneFourInteractionScore>
-0.986948 

> <ConfScore>
0.0644474 

> <ConfScorePBest>
0.0027269 

> <ConfTolerance>
0.645339 

> <HETNAM>
     OWQ A 303  OWQ                                                       

> <pdb_OW>
Q_303 -16.5129 3.80749 7.62812 0.15963 1.39178 -0.28144 -3.20151 0 0 0 -1.30514 0 0 0 0 0 0 0 0 -8.31393

$$$$
6yky_lig_1.pdb
 OpenBabel04162415593D

 49 53  0  0  0  0  0  0  0  0999 V2000
   25.1048    1.8137  -65.3760 C   0  0  0  1  0  0  0  0  0  0  0  0
   26.9167    0.5034  -65.9326 C   0  0  0  1  0  0  0  0  0  0  0  0
   25.4179    1.8285  -64.0982 N   0  0  0  1  0  0  0  0  0  0  0  0
   26.8117    1.5874  -61.1666 C   0  0  0  1  0  0  0  0  0  0  0  0
   25.5839    2.1955  -60.9852 C   0  0  0  1  0  0  0  0  0  0  0  0
   27.4867    2.2916  -58.9767 C   0  0  0  1  0  0  0  0  0  0  0  0
   27.7656    1.6378  -60.1620 C   0  0  0  1  0  0  0  0  0  0  0  0
   26.2552    2.9016  -58.7946 C   0  0  0  1  0  0  0  0  0  0  0  0
   25.3044    2.8511  -59.7963 C   0  0  0  1  0  0  0  0  0  0  0  0
   23.0791    3.1370  -64.8829 C   0  0  0  1  0  0  0  0  0  0  0  0
   23.8120    4.1423  -63.9669 C   0  0  0  1  0  0  0  0  0  0  0  0
   23.2166    4.0169  -62.5872 C   0  0  0  1  0  0  0  0  0  0  0  0
   21.7833    2.0691  -61.6106 C   0  0  0  1  0  0  0  0  0  0  0  0
   25.8297    1.1707  -66.2748 N   0  0  0  1  0  0  0  0  0  0  0  0
   27.2965    0.4857  -64.5857 C   0  0  0  1  0  0  0  0  0  0  0  0
   26.4937    1.1853  -63.6614 C   0  0  0  1  0  0  0  0  0  0  0  0
   27.0810    1.0062  -62.4395 N   0  0  0  1  0  0  0  0  0  0  0  0
   28.3159   -0.0766  -63.9004 N   0  0  0  1  0  0  0  0  0  0  0  0
   28.2164    0.2092  -62.6490 N   0  0  0  1  0  0  0  0  0  0  0  0
   25.9853    3.5433  -57.6412 O   0  0  0  1  0  0  0  0  0  0  0  0
   24.0076    2.4764  -65.7838 N   0  0  0  1  0  0  0  0  0  0  0  0
   24.6056    3.9433  -57.4717 C   0  0  0  1  0  0  0  0  0  0  0  0
   22.4577    2.6775  -62.7086 N   0  0  0  1  0  0  0  0  0  0  0  0
   22.4862    2.1543  -63.8924 C   0  0  0  1  0  0  0  0  0  0  0  0
   21.1538    0.8478  -61.7649 C   0  0  0  1  0  0  0  0  0  0  0  0
   20.5951    0.2431  -60.6550 C   0  0  0  1  0  0  0  0  0  0  0  0
   20.6273    0.7799  -59.4314 N   0  0  0  1  0  0  0  0  0  0  0  0
   21.2370    1.9662  -59.2972 C   0  0  0  1  0  0  0  0  0  0  0  0
   21.8258    2.6394  -60.3534 C   0  0  0  1  0  0  0  0  0  0  0  0
   27.4789    0.0013  -66.6491 H   0  0  0  1  0  0  0  0  0  0  0  0
   24.8699    2.1610  -61.7405 H   0  0  0  1  0  0  0  0  0  0  0  0
   28.2007    2.3261  -58.2214 H   0  0  0  1  0  0  0  0  0  0  0  0
   28.6909    1.1837  -60.3002 H   0  0  0  1  0  0  0  0  0  0  0  0
   24.3790    3.3053  -59.6582 H   0  0  0  1  0  0  0  0  0  0  0  0
   22.3129    3.6211  -65.4516 H   0  0  0  1  0  0  0  0  0  0  0  0
   23.6753    5.1378  -64.3345 H   0  0  0  1  0  0  0  0  0  0  0  0
   24.8568    3.9134  -63.9359 H   0  0  0  1  0  0  0  0  0  0  0  0
   23.9764    3.9703  -61.8352 H   0  0  0  1  0  0  0  0  0  0  0  0
   22.5509    4.8267  -62.3725 H   0  0  0  1  0  0  0  0  0  0  0  0
   23.8237    2.5158  -66.7455 H   0  0  0  1  0  0  0  0  0  0  0  0
   24.0068    3.0815  -57.2633 H   0  0  0  1  0  0  0  0  0  0  0  0
   24.2572    4.4108  -58.3689 H   0  0  0  1  0  0  0  0  0  0  0  0
   24.5320    4.6338  -56.6575 H   0  0  0  1  0  0  0  0  0  0  0  0
   21.4898    1.9065  -64.1935 H   0  0  0  1  0  0  0  0  0  0  0  0
   23.0844    1.2674  -63.8728 H   0  0  0  1  0  0  0  0  0  0  0  0
   21.1018    0.3926  -62.6986 H   0  0  0  1  0  0  0  0  0  0  0  0
   20.1254   -0.6766  -60.7781 H   0  0  0  1  0  0  0  0  0  0  0  0
   21.2692    2.4020  -58.3534 H   0  0  0  1  0  0  0  0  0  0  0  0
   22.2912    3.5573  -60.2034 H   0  0  0  1  0  0  0  0  0  0  0  0
  1  3  4  0  0  0  0
  1 14  4  0  0  0  0
  1 21  1  0  0  0  0
  2 14  4  0  0  0  0
  2 15  4  0  0  0  0
  2 30  1  0  0  0  0
  3 16  4  0  0  0  0
  4  5  4  0  0  0  0
  4  7  4  0  0  0  0
  4 17  1  0  0  0  0
  5  9  4  0  0  0  0
  5 31  1  0  0  0  0
  6  7  4  0  0  0  0
  6  8  4  0  0  0  0
  6 32  1  0  0  0  0
  7 33  1  0  0  0  0
  8  9  4  0  0  0  0
  8 20  1  0  0  0  0
  9 34  1  0  0  0  0
 10 11  1  0  0  0  0
 10 21  1  0  0  0  0
 10 24  1  0  0  0  0
 10 35  1  0  0  0  0
 11 12  1  0  0  0  0
 11 36  1  0  0  0  0
 11 37  1  0  0  0  0
 12 23  1  0  0  0  0
 12 38  1  0  0  0  0
 12 39  1  0  0  0  0
 13 23  1  0  0  0  0
 13 25  4  0  0  0  0
 13 29  4  0  0  0  0
 15 16  4  0  0  0  0
 15 18  4  0  0  0  0
 16 17  4  0  0  0  0
 17 19  4  0  0  0  0
 18 19  4  0  0  0  0
 20 22  1  0  0  0  0
 21 40  1  0  0  0  0
 22 41  1  0  0  0  0
 22 42  1  0  0  0  0
 22 43  1  0  0  0  0
 23 24  1  0  0  0  0
 24 44  1  0  0  0  0
 24 45  1  0  0  0  0
 25 26  4  0  0  0  0
 25 46  1  0  0  0  0
 26 27  4  0  0  0  0
 26 47  1  0  0  0  0
 27 28  4  0  0  0  0
 28 29  4  0  0  0  0
 28 48  1  0  0  0  0
 29 49  1  0  0  0  0
M  END
> <ConfClashScore>
0 

> <ConfOneFourInteractionScore>
-0.983503 

> <ConfScore>
0.0647981 

> <ConfScorePBest>
0.00271357 

> <ConfTolerance>
0.558622 

> <HETNAM>
     OWQ A 303  OWQ                                                       

> <pdb_OW>
Q_303 -16.5129 3.80749 7.62812 0.15963 1.39178 -0.28144 -3.20151 0 0 0 -1.30514 0 0 0 0 0 0 0 0 -8.31393

$$$$
6yky_lig_1.pdb
 OpenBabel04162415593D

 49 53  0  0  0  0  0  0  0  0999 V2000
   25.1047    1.8134  -65.3760 C   0  0  0  1  0  0  0  0  0  0  0  0
   26.9167    0.5034  -65.9326 C   0  0  0  1  0  0  0  0  0  0  0  0
   25.4177    1.8283  -64.0982 N   0  0  0  1  0  0  0  0  0  0  0  0
   26.7517    1.5716  -61.1737 C   0  0  0  1  0  0  0  0  0  0  0  0
   25.6560    1.1060  -60.4717 C   0  0  0  1  0  0  0  0  0  0  0  0
   27.1066    3.2572  -59.5064 C   0  0  0  1  0  0  0  0  0  0  0  0
   27.4766    2.6504  -60.6918 C   0  0  0  1  0  0  0  0  0  0  0  0
   26.0076    2.7904  -58.8022 C   0  0  0  1  0  0  0  0  0  0  0  0
   25.2850    1.7147  -59.2829 C   0  0  0  1  0  0  0  0  0  0  0  0
   23.5212    2.4808  -67.1556 C   0  0  0  1  0  0  0  0  0  0  0  0
   23.1912    1.0488  -67.6320 C   0  0  0  1  0  0  0  0  0  0  0  0
   23.6777    0.9199  -69.0535 C   0  0  0  1  0  0  0  0  0  0  0  0
   25.3792    2.4243  -70.3173 C   0  0  0  1  0  0  0  0  0  0  0  0
   25.8296    1.1706  -66.2748 N   0  0  0  1  0  0  0  0  0  0  0  0
   27.2964    0.4857  -64.5857 C   0  0  0  1  0  0  0  0  0  0  0  0
   26.4936    1.1852  -63.6614 C   0  0  0  1  0  0  0  0  0  0  0  0
   27.0809    1.0061  -62.4395 N   0  0  0  1  0  0  0  0  0  0  0  0
   28.3159   -0.0766  -63.9004 N   0  0  0  1  0  0  0  0  0  0  0  0
   28.2164    0.2092  -62.6490 N   0  0  0  1  0  0  0  0  0  0  0  0
   25.5509    3.3026  -57.6428 O   0  0  0  1  0  0  0  0  0  0  0  0
   24.0033    2.4785  -65.7852 N   0  0  0  1  0  0  0  0  0  0  0  0
   26.4153    4.2842  -57.0247 C   0  0  0  1  0  0  0  0  0  0  0  0
   24.6043    2.1503  -69.1661 N   0  0  0  1  0  0  0  0  0  0  0  0
   24.6115    2.9095  -68.1176 C   0  0  0  1  0  0  0  0  0  0  0  0
   24.8493    3.1515  -71.3670 C   0  0  0  1  0  0  0  0  0  0  0  0
   25.6425    3.3997  -72.4710 C   0  0  0  1  0  0  0  0  0  0  0  0
   26.9030    2.9695  -72.5819 N   0  0  0  1  0  0  0  0  0  0  0  0
   27.4026    2.2620  -71.5586 C   0  0  0  1  0  0  0  0  0  0  0  0
   26.6803    1.9708  -70.4146 C   0  0  0  1  0  0  0  0  0  0  0  0
   27.4790    0.0014  -66.6491 H   0  0  0  1  0  0  0  0  0  0  0  0
   25.1099    0.2992  -60.8354 H   0  0  0  1  0  0  0  0  0  0  0  0
   27.6528    4.0640  -59.1427 H   0  0  0  1  0  0  0  0  0  0  0  0
   28.2987    3.0032  -61.2222 H   0  0  0  1  0  0  0  0  0  0  0  0
   24.4629    1.3619  -58.7525 H   0  0  0  1  0  0  0  0  0  0  0  0
   22.6662    3.1195  -67.2322 H   0  0  0  1  0  0  0  0  0  0  0  0
   22.1346    0.8849  -67.5916 H   0  0  0  1  0  0  0  0  0  0  0  0
   23.6877    0.3336  -67.0101 H   0  0  0  1  0  0  0  0  0  0  0  0
   24.2173    0.0079  -69.2020 H   0  0  0  1  0  0  0  0  0  0  0  0
   22.8683    0.9736  -69.7512 H   0  0  0  1  0  0  0  0  0  0  0  0
   23.4993    2.9900  -65.1184 H   0  0  0  1  0  0  0  0  0  0  0  0
   25.9312    4.6939  -56.1629 H   0  0  0  1  0  0  0  0  0  0  0  0
   26.6219    5.0675  -57.7236 H   0  0  0  1  0  0  0  0  0  0  0  0
   27.3318    3.8171  -56.7305 H   0  0  0  1  0  0  0  0  0  0  0  0
   25.5619    2.8328  -67.6320 H   0  0  0  1  0  0  0  0  0  0  0  0
   24.4428    3.9236  -68.4142 H   0  0  0  1  0  0  0  0  0  0  0  0
   23.8720    3.5050  -71.3266 H   0  0  0  1  0  0  0  0  0  0  0  0
   25.2380    3.9495  -73.2557 H   0  0  0  1  0  0  0  0  0  0  0  0
   28.3806    1.9152  -71.6278 H   0  0  0  1  0  0  0  0  0  0  0  0
   27.1088    1.4209  -69.6429 H   0  0  0  1  0  0  0  0  0  0  0  0
  1  3  4  0  0  0  0
  1 14  4  0  0  0  0
  1 21  1  0  0  0  0
  2 14  4  0  0  0  0
  2 15  4  0  0  0  0
  2 30  1  0  0  0  0
  3 16  4  0  0  0  0
  4  5  4  0  0  0  0
  4  7  4  0  0  0  0
  4 17  1  0  0  0  0
  5  9  4  0  0  0  0
  5 31  1  0  0  0  0
  6  7  4  0  0  0  0
  6  8  4  0  0  0  0
  6 32  1  0  0  0  0
  7 33  1  0  0  0  0
  8  9  4  0  0  0  0
  8 20  1  0  0  0  0
  9 34  1  0  0  0  0
 10 11  1  0  0  0  0
 10 21  1  0  0  0  0
 10 24  1  0  0  0  0
 10 35  1  0  0  0  0
 11 12  1  0  0  0  0
 11 36  1  0  0  0  0
 11 37  1  0  0  0  0
 12 23  1  0  0  0  0
 12 38  1  0  0  0  0
 12 39  1  0  0  0  0
 13 23  1  0  0  0  0
 13 25  4  0  0  0  0
 13 29  4  0  0  0  0
 15 16  4  0  0  0  0
 15 18  4  0  0  0  0
 16 17  4  0  0  0  0
 17 19  4  0  0  0  0
 18 19  4  0  0  0  0
 20 22  1  0  0  0  0
 21 40  1  0  0  0  0
 22 41  1  0  0  0  0
 22 42  1  0  0  0  0
 22 43  1  0  0  0  0
 23 24  1  0  0  0  0
 24 44  1  0  0  0  0
 24 45  1  0  0  0  0
 25 26  4  0  0  0  0
 25 46  1  0  0  0  0
 26 27  4  0  0  0  0
 26 47  1  0  0  0  0
 27 28  4  0  0  0  0
 28 29  4  0  0  0  0
 28 48  1  0  0  0  0
 29 49  1  0  0  0  0
M  END
> <ConfClashScore>
0 

> <ConfOneFourInteractionScore>
-0.983503 

> <ConfScore>
0.0651223 

> <ConfScorePBest>
0.00270024 

> <ConfTolerance>
0.531931 

> <HETNAM>
     OWQ A 303  OWQ                                                       

> <pdb_OW>
Q_303 -16.5129 3.80749 7.62812 0.15963 1.39178 -0.28144 -3.20151 0 0 0 -1.30514 0 0 0 0 0 0 0 0 -8.31393

$$$$
6yky_lig_1.pdb
 OpenBabel04162415593D

 49 53  0  0  0  0  0  0  0  0999 V2000
   25.1048    1.8136  -65.3760 C   0  0  0  1  0  0  0  0  0  0  0  0
   26.9167    0.5034  -65.9326 C   0  0  0  1  0  0  0  0  0  0  0  0
   25.4178    1.8283  -64.0981 N   0  0  0  1  0  0  0  0  0  0  0  0
   26.7287    1.4699  -61.1391 C   0  0  0  1  0  0  0  0  0  0  0  0
   25.4303    1.9001  -60.9407 C   0  0  0  1  0  0  0  0  0  0  0  0
   27.2896    2.1241  -58.9020 C   0  0  0  1  0  0  0  0  0  0  0  0
   27.6605    1.5844  -60.1192 C   0  0  0  1  0  0  0  0  0  0  0  0
   25.9874    2.5556  -58.7029 C   0  0  0  1  0  0  0  0  0  0  0  0
   25.0585    2.4413  -59.7199 C   0  0  0  1  0  0  0  0  0  0  0  0
   23.5473    2.5191  -67.1637 C   0  0  0  1  0  0  0  0  0  0  0  0
   23.9225    3.8588  -67.8354 C   0  0  0  1  0  0  0  0  0  0  0  0
   22.7477    4.2896  -68.6767 C   0  0  0  1  0  0  0  0  0  0  0  0
   20.3021    3.4638  -68.5448 C   0  0  0  1  0  0  0  0  0  0  0  0
   25.8297    1.1708  -66.2747 N   0  0  0  1  0  0  0  0  0  0  0  0
   27.2965    0.4858  -64.5857 C   0  0  0  1  0  0  0  0  0  0  0  0
   26.4937    1.1851  -63.6614 C   0  0  0  1  0  0  0  0  0  0  0  0
   27.0810    1.0061  -62.4395 N   0  0  0  1  0  0  0  0  0  0  0  0
   28.3159   -0.0766  -63.9004 N   0  0  0  1  0  0  0  0  0  0  0  0
   28.2164    0.2092  -62.6490 N   0  0  0  1  0  0  0  0  0  0  0  0
   25.7432    3.0704  -57.4743 O   0  0  0  1  0  0  0  0  0  0  0  0
   24.0034    2.4788  -65.7851 N   0  0  0  1  0  0  0  0  0  0  0  0
   24.4256    3.5864  -57.2291 C   0  0  0  1  0  0  0  0  0  0  0  0
   21.6320    3.3757  -68.1243 N   0  0  0  1  0  0  0  0  0  0  0  0
   22.0332    2.5212  -67.2385 C   0  0  0  1  0  0  0  0  0  0  0  0
   19.3185    2.7068  -67.9355 C   0  0  0  1  0  0  0  0  0  0  0  0
   18.0157    2.8277  -68.3802 C   0  0  0  1  0  0  0  0  0  0  0  0
   17.6518    3.6403  -69.3770 N   0  0  0  1  0  0  0  0  0  0  0  0
   18.6163    4.3650  -69.9616 C   0  0  0  1  0  0  0  0  0  0  0  0
   19.9447    4.3087  -69.5774 C   0  0  0  1  0  0  0  0  0  0  0  0
   27.4789    0.0014  -66.6492 H   0  0  0  1  0  0  0  0  0  0  0  0
   24.7323    1.8177  -61.7073 H   0  0  0  1  0  0  0  0  0  0  0  0
   27.9876    2.2064  -58.1354 H   0  0  0  1  0  0  0  0  0  0  0  0
   28.6384    1.2643  -60.2698 H   0  0  0  1  0  0  0  0  0  0  0  0
   24.0805    2.7613  -59.5693 H   0  0  0  1  0  0  0  0  0  0  0  0
   23.9589    1.6900  -67.7004 H   0  0  0  1  0  0  0  0  0  0  0  0
   24.1269    4.5971  -67.0884 H   0  0  0  1  0  0  0  0  0  0  0  0
   24.7858    3.7279  -68.4538 H   0  0  0  1  0  0  0  0  0  0  0  0
   22.5169    5.3237  -68.5275 H   0  0  0  1  0  0  0  0  0  0  0  0
   22.9230    4.1092  -69.7167 H   0  0  0  1  0  0  0  0  0  0  0  0
   23.4808    2.9631  -65.1123 H   0  0  0  1  0  0  0  0  0  0  0  0
   23.7168    3.0561  -57.8300 H   0  0  0  1  0  0  0  0  0  0  0  0
   24.3978    4.6263  -57.4794 H   0  0  0  1  0  0  0  0  0  0  0  0
   24.1806    3.4613  -56.1950 H   0  0  0  1  0  0  0  0  0  0  0  0
   21.6323    2.7877  -66.2829 H   0  0  0  1  0  0  0  0  0  0  0  0
   21.6912    1.5441  -67.5094 H   0  0  0  1  0  0  0  0  0  0  0  0
   19.5547    2.0588  -67.1572 H   0  0  0  1  0  0  0  0  0  0  0  0
   17.2808    2.2572  -67.9155 H   0  0  0  1  0  0  0  0  0  0  0  0
   18.3535    5.0005  -70.7419 H   0  0  0  1  0  0  0  0  0  0  0  0
   20.6602    4.8914  -70.0572 H   0  0  0  1  0  0  0  0  0  0  0  0
  1  3  4  0  0  0  0
  1 14  4  0  0  0  0
  1 21  1  0  0  0  0
  2 14  4  0  0  0  0
  2 15  4  0  0  0  0
  2 30  1  0  0  0  0
  3 16  4  0  0  0  0
  4  5  4  0  0  0  0
  4  7  4  0  0  0  0
  4 17  1  0  0  0  0
  5  9  4  0  0  0  0
  5 31  1  0  0  0  0
  6  7  4  0  0  0  0
  6  8  4  0  0  0  0
  6 32  1  0  0  0  0
  7 33  1  0  0  0  0
  8  9  4  0  0  0  0
  8 20  1  0  0  0  0
  9 34  1  0  0  0  0
 10 11  1  0  0  0  0
 10 21  1  0  0  0  0
 10 24  1  0  0  0  0
 10 35  1  0  0  0  0
 11 12  1  0  0  0  0
 11 36  1  0  0  0  0
 11 37  1  0  0  0  0
 12 23  1  0  0  0  0
 12 38  1  0  0  0  0
 12 39  1  0  0  0  0
 13 23  1  0  0  0  0
 13 25  4  0  0  0  0
 13 29  4  0  0  0  0
 15 16  4  0  0  0  0
 15 18  4  0  0  0  0
 16 17  4  0  0  0  0
 17 19  4  0  0  0  0
 18 19  4  0  0  0  0
 20 22  1  0  0  0  0
 21 40  1  0  0  0  0
 22 41  1  0  0  0  0
 22 42  1  0  0  0  0
 22 43  1  0  0  0  0
 23 24  1  0  0  0  0
 24 44  1  0  0  0  0
 24 45  1  0  0  0  0
 25 26  4  0  0  0  0
 25 46  1  0  0  0  0
 26 27  4  0  0  0  0
 26 47  1  0  0  0  0
 27 28  4  0  0  0  0
 28 29  4  0  0  0  0
 28 48  1  0  0  0  0
 29 49  1  0  0  0  0
M  END
> <ConfClashScore>
0 

> <ConfOneFourInteractionScore>
-0.986948 

> <ConfScore>
0.0655568 

> <ConfScorePBest>
0.00268692 

> <ConfTolerance>
0.547271 

> <HETNAM>
     OWQ A 303  OWQ                                                       

> <pdb_OW>
Q_303 -16.5129 3.80749 7.62812 0.15963 1.39178 -0.28144 -3.20151 0 0 0 -1.30514 0 0 0 0 0 0 0 0 -8.31393

$$$$
6yky_lig_1.pdb
 OpenBabel04162415593D

 49 53  0  0  0  0  0  0  0  0999 V2000
   25.1048    1.8136  -65.3760 C   0  0  0  1  0  0  0  0  0  0  0  0
   26.9167    0.5034  -65.9325 C   0  0  0  1  0  0  0  0  0  0  0  0
   25.4179    1.8284  -64.0983 N   0  0  0  1  0  0  0  0  0  0  0  0
   26.6877    1.3785  -61.1216 C   0  0  0  1  0  0  0  0  0  0  0  0
   27.5311    2.1430  -60.3378 C   0  0  0  1  0  0  0  0  0  0  0  0
   25.1567    1.1829  -59.2872 C   0  0  0  1  0  0  0  0  0  0  0  0
   25.4999    0.8955  -60.5947 C   0  0  0  1  0  0  0  0  0  0  0  0
   26.0025    1.9495  -58.5008 C   0  0  0  1  0  0  0  0  0  0  0  0
   27.1868    2.4310  -59.0263 C   0  0  0  1  0  0  0  0  0  0  0  0
   23.1253    3.2848  -64.9441 C   0  0  0  1  0  0  0  0  0  0  0  0
   22.5846    2.4674  -63.7498 C   0  0  0  1  0  0  0  0  0  0  0  0
   21.1304    2.8259  -63.5753 C   0  0  0  1  0  0  0  0  0  0  0  0
   19.5538    3.9720  -65.2733 C   0  0  0  1  0  0  0  0  0  0  0  0
   25.8297    1.1707  -66.2748 N   0  0  0  1  0  0  0  0  0  0  0  0
   27.2964    0.4858  -64.5857 C   0  0  0  1  0  0  0  0  0  0  0  0
   26.4937    1.1852  -63.6614 C   0  0  0  1  0  0  0  0  0  0  0  0
   27.0809    1.0062  -62.4395 N   0  0  0  1  0  0  0  0  0  0  0  0
   28.3158   -0.0766  -63.9004 N   0  0  0  1  0  0  0  0  0  0  0  0
   28.2164    0.2092  -62.6490 N   0  0  0  1  0  0  0  0  0  0  0  0
   25.5845    2.2900  -57.2621 O   0  0  0  1  0  0  0  0  0  0  0  0
   24.0136    2.4727  -65.7815 N   0  0  0  1  0  0  0  0  0  0  0  0
   24.3870    1.6997  -56.7330 C   0  0  0  1  0  0  0  0  0  0  0  0
   20.8302    3.5239  -64.9198 N   0  0  0  1  0  0  0  0  0  0  0  0
   21.8606    3.6590  -65.6917 C   0  0  0  1  0  0  0  0  0  0  0  0
   18.6943    3.0809  -65.8890 C   0  0  0  1  0  0  0  0  0  0  0  0
   17.4290    3.5118  -66.2392 C   0  0  0  1  0  0  0  0  0  0  0  0
   16.9877    4.7536  -66.0164 N   0  0  0  1  0  0  0  0  0  0  0  0
   17.8328    5.6083  -65.4227 C   0  0  0  1  0  0  0  0  0  0  0  0
   19.1151    5.2600  -65.0357 C   0  0  0  1  0  0  0  0  0  0  0  0
   27.4789    0.0013  -66.6492 H   0  0  0  1  0  0  0  0  0  0  0  0
   28.4241    2.5019  -60.7318 H   0  0  0  1  0  0  0  0  0  0  0  0
   24.2636    0.8239  -58.8931 H   0  0  0  1  0  0  0  0  0  0  0  0
   24.8672    0.3169  -61.1835 H   0  0  0  1  0  0  0  0  0  0  0  0
   27.8195    3.0096  -58.4377 H   0  0  0  1  0  0  0  0  0  0  0  0
   23.6479    4.1565  -64.6097 H   0  0  0  1  0  0  0  0  0  0  0  0
   22.6811    1.4208  -63.9503 H   0  0  0  1  0  0  0  0  0  0  0  0
   23.1301    2.7128  -62.8626 H   0  0  0  1  0  0  0  0  0  0  0  0
   20.5248    1.9537  -63.4427 H   0  0  0  1  0  0  0  0  0  0  0  0
   20.9868    3.4896  -62.7484 H   0  0  0  1  0  0  0  0  0  0  0  0
   23.7854    2.4061  -66.7322 H   0  0  0  1  0  0  0  0  0  0  0  0
   23.9989    2.3189  -55.9514 H   0  0  0  1  0  0  0  0  0  0  0  0
   24.6109    0.7295  -56.3412 H   0  0  0  1  0  0  0  0  0  0  0  0
   23.6590    1.6110  -57.5121 H   0  0  0  1  0  0  0  0  0  0  0  0
   21.7509    3.0201  -66.5430 H   0  0  0  1  0  0  0  0  0  0  0  0
   21.9291    4.6766  -66.0152 H   0  0  0  1  0  0  0  0  0  0  0  0
   18.9947    2.1046  -66.0849 H   0  0  0  1  0  0  0  0  0  0  0  0
   16.7872    2.8353  -66.6997 H   0  0  0  1  0  0  0  0  0  0  0  0
   17.5091    6.5804  -65.2442 H   0  0  0  1  0  0  0  0  0  0  0  0
   19.7367    5.9549  -64.5748 H   0  0  0  1  0  0  0  0  0  0  0  0
  1  3  4  0  0  0  0
  1 14  4  0  0  0  0
  1 21  1  0  0  0  0
  2 14  4  0  0  0  0
  2 15  4  0  0  0  0
  2 30  1  0  0  0  0
  3 16  4  0  0  0  0
  4  5  4  0  0  0  0
  4  7  4  0  0  0  0
  4 17  1  0  0  0  0
  5  9  4  0  0  0  0
  5 31  1  0  0  0  0
  6  7  4  0  0  0  0
  6  8  4  0  0  0  0
  6 32  1  0  0  0  0
  7 33  1  0  0  0  0
  8  9  4  0  0  0  0
  8 20  1  0  0  0  0
  9 34  1  0  0  0  0
 10 11  1  0  0  0  0
 10 21  1  0  0  0  0
 10 24  1  0  0  0  0
 10 35  1  0  0  0  0
 11 12  1  0  0  0  0
 11 36  1  0  0  0  0
 11 37  1  0  0  0  0
 12 23  1  0  0  0  0
 12 38  1  0  0  0  0
 12 39  1  0  0  0  0
 13 23  1  0  0  0  0
 13 25  4  0  0  0  0
 13 29  4  0  0  0  0
 15 16  4  0  0  0  0
 15 18  4  0  0  0  0
 16 17  4  0  0  0  0
 17 19  4  0  0  0  0
 18 19  4  0  0  0  0
 20 22  1  0  0  0  0
 21 40  1  0  0  0  0
 22 41  1  0  0  0  0
 22 42  1  0  0  0  0
 22 43  1  0  0  0  0
 23 24  1  0  0  0  0
 24 44  1  0  0  0  0
 24 45  1  0  0  0  0
 25 26  4  0  0  0  0
 25 46  1  0  0  0  0
 26 27  4  0  0  0  0
 26 47  1  0  0  0  0
 27 28  4  0  0  0  0
 28 29  4  0  0  0  0
 28 48  1  0  0  0  0
 29 49  1  0  0  0  0
M  END
> <ConfClashScore>
0 

> <ConfOneFourInteractionScore>
-0.987833 

> <ConfScore>
0.0660426 

> <ConfScorePBest>
0.00267359 

> <ConfTolerance>
0.518442 

> <HETNAM>
     OWQ A 303  OWQ                                                       

> <pdb_OW>
Q_303 -16.5129 3.80749 7.62812 0.15963 1.39178 -0.28144 -3.20151 0 0 0 -1.30514 0 0 0 0 0 0 0 0 -8.31393

$$$$
6yky_lig_1.pdb
 OpenBabel04162415593D

 49 53  0  0  0  0  0  0  0  0999 V2000
   25.1048    1.8136  -65.3760 C   0  0  0  1  0  0  0  0  0  0  0  0
   26.9167    0.5034  -65.9326 C   0  0  0  1  0  0  0  0  0  0  0  0
   25.4178    1.8284  -64.0982 N   0  0  0  1  0  0  0  0  0  0  0  0
   26.7669    1.4474  -61.1215 C   0  0  0  1  0  0  0  0  0  0  0  0
   25.5888    1.0469  -60.5200 C   0  0  0  1  0  0  0  0  0  0  0  0
   27.2544    2.8490  -59.2387 C   0  0  0  1  0  0  0  0  0  0  0  0
   27.5997    2.3517  -60.4811 C   0  0  0  1  0  0  0  0  0  0  0  0
   26.0727    2.4475  -58.6353 C   0  0  0  1  0  0  0  0  0  0  0  0
   25.2425    1.5457  -59.2739 C   0  0  0  1  0  0  0  0  0  0  0  0
   23.1274    3.2199  -64.8946 C   0  0  0  1  0  0  0  0  0  0  0  0
   21.8600    2.4035  -64.5189 C   0  0  0  1  0  0  0  0  0  0  0  0
   20.7326    3.4119  -64.2134 C   0  0  0  1  0  0  0  0  0  0  0  0
   20.6462    5.9014  -64.6919 C   0  0  0  1  0  0  0  0  0  0  0  0
   25.8297    1.1707  -66.2747 N   0  0  0  1  0  0  0  0  0  0  0  0
   27.2965    0.4858  -64.5857 C   0  0  0  1  0  0  0  0  0  0  0  0
   26.4936    1.1852  -63.6614 C   0  0  0  1  0  0  0  0  0  0  0  0
   27.0809    1.0061  -62.4395 N   0  0  0  1  0  0  0  0  0  0  0  0
   28.3158   -0.0766  -63.9005 N   0  0  0  1  0  0  0  0  0  0  0  0
   28.2164    0.2092  -62.6490 N   0  0  0  1  0  0  0  0  0  0  0  0
   25.8382    3.0046  -57.4235 O   0  0  0  1  0  0  0  0  0  0  0  0
   24.0034    2.4787  -65.7852 N   0  0  0  1  0  0  0  0  0  0  0  0
   24.6222    2.6340  -56.7552 C   0  0  0  1  0  0  0  0  0  0  0  0
   21.2407    4.6700  -64.8297 N   0  0  0  1  0  0  0  0  0  0  0  0
   22.4653    4.4158  -65.6060 C   0  0  0  1  0  0  0  0  0  0  0  0
   19.3319    5.9498  -64.2654 C   0  0  0  1  0  0  0  0  0  0  0  0
   18.7254    7.1829  -64.1196 C   0  0  0  1  0  0  0  0  0  0  0  0
   19.3436    8.3404  -64.3729 N   0  0  0  1  0  0  0  0  0  0  0  0
   20.6163    8.2786  -64.7897 C   0  0  0  1  0  0  0  0  0  0  0  0
   21.3009    7.0878  -64.9592 C   0  0  0  1  0  0  0  0  0  0  0  0
   27.4790    0.0013  -66.6492 H   0  0  0  1  0  0  0  0  0  0  0  0
   24.9621    0.3715  -61.0024 H   0  0  0  1  0  0  0  0  0  0  0  0
   27.8812    3.5245  -58.7565 H   0  0  0  1  0  0  0  0  0  0  0  0
   28.4843    2.6560  -60.9356 H   0  0  0  1  0  0  0  0  0  0  0  0
   24.3580    1.2413  -58.8195 H   0  0  0  1  0  0  0  0  0  0  0  0
   23.6754    3.5259  -64.0279 H   0  0  0  1  0  0  0  0  0  0  0  0
   22.0556    1.8020  -63.6560 H   0  0  0  1  0  0  0  0  0  0  0  0
   21.5754    1.7742  -65.3360 H   0  0  0  1  0  0  0  0  0  0  0  0
   19.8107    3.1073  -64.6631 H   0  0  0  1  0  0  0  0  0  0  0  0
   20.5944    3.5277  -63.1586 H   0  0  0  1  0  0  0  0  0  0  0  0
   23.7818    2.4604  -66.7397 H   0  0  0  1  0  0  0  0  0  0  0  0
   24.5541    1.5675  -56.7031 H   0  0  0  1  0  0  0  0  0  0  0  0
   23.7851    3.0186  -57.2993 H   0  0  0  1  0  0  0  0  0  0  0  0
   24.6217    3.0399  -55.7652 H   0  0  0  1  0  0  0  0  0  0  0  0
   23.1089    5.2704  -65.5887 H   0  0  0  1  0  0  0  0  0  0  0  0
   22.2267    4.1687  -66.6194 H   0  0  0  1  0  0  0  0  0  0  0  0
   18.8096    5.0746  -64.0585 H   0  0  0  1  0  0  0  0  0  0  0  0
   17.7374    7.2116  -63.7961 H   0  0  0  1  0  0  0  0  0  0  0  0
   21.1131    9.1686  -64.9957 H   0  0  0  1  0  0  0  0  0  0  0  0
   22.2897    7.0864  -65.2819 H   0  0  0  1  0  0  0  0  0  0  0  0
  1  3  4  0  0  0  0
  1 14  4  0  0  0  0
  1 21  1  0  0  0  0
  2 14  4  0  0  0  0
  2 15  4  0  0  0  0
  2 30  1  0  0  0  0
  3 16  4  0  0  0  0
  4  5  4  0  0  0  0
  4  7  4  0  0  0  0
  4 17  1  0  0  0  0
  5  9  4  0  0  0  0
  5 31  1  0  0  0  0
  6  7  4  0  0  0  0
  6  8  4  0  0  0  0
  6 32  1  0  0  0  0
  7 33  1  0  0  0  0
  8  9  4  0  0  0  0
  8 20  1  0  0  0  0
  9 34  1  0  0  0  0
 10 11  1  0  0  0  0
 10 21  1  0  0  0  0
 10 24  1  0  0  0  0
 10 35  1  0  0  0  0
 11 12  1  0  0  0  0
 11 36  1  0  0  0  0
 11 37  1  0  0  0  0
 12 23  1  0  0  0  0
 12 38  1  0  0  0  0
 12 39  1  0  0  0  0
 13 23  1  0  0  0  0
 13 25  4  0  0  0  0
 13 29  4  0  0  0  0
 15 16  4  0  0  0  0
 15 18  4  0  0  0  0
 16 17  4  0  0  0  0
 17 19  4  0  0  0  0
 18 19  4  0  0  0  0
 20 22  1  0  0  0  0
 21 40  1  0  0  0  0
 22 41  1  0  0  0  0
 22 42  1  0  0  0  0
 22 43  1  0  0  0  0
 23 24  1  0  0  0  0
 24 44  1  0  0  0  0
 24 45  1  0  0  0  0
 25 26  4  0  0  0  0
 25 46  1  0  0  0  0
 26 27  4  0  0  0  0
 26 47  1  0  0  0  0
 27 28  4  0  0  0  0
 28 29  4  0  0  0  0
 28 48  1  0  0  0  0
 29 49  1  0  0  0  0
M  END
> <ConfClashScore>
0 

> <ConfOneFourInteractionScore>
-0.986948 

> <ConfScore>
0.0662627 

> <ConfScorePBest>
0.00266026 

> <ConfTolerance>
0.479084 

> <HETNAM>
     OWQ A 303  OWQ                                                       

> <pdb_OW>
Q_303 -16.5129 3.80749 7.62812 0.15963 1.39178 -0.28144 -3.20151 0 0 0 -1.30514 0 0 0 0 0 0 0 0 -8.31393

$$$$
6yky_lig_1.pdb
 OpenBabel04162415593D

 49 53  0  0  0  0  0  0  0  0999 V2000
   25.1047    1.8134  -65.3760 C   0  0  0  1  0  0  0  0  0  0  0  0
   26.9167    0.5034  -65.9326 C   0  0  0  1  0  0  0  0  0  0  0  0
   25.4177    1.8282  -64.0983 N   0  0  0  1  0  0  0  0  0  0  0  0
   26.7284    1.4698  -61.1391 C   0  0  0  1  0  0  0  0  0  0  0  0
   27.7389    1.9712  -60.3406 C   0  0  0  1  0  0  0  0  0  0  0  0
   25.1713    1.7281  -59.3347 C   0  0  0  1  0  0  0  0  0  0  0  0
   25.4433    1.3455  -60.6346 C   0  0  0  1  0  0  0  0  0  0  0  0
   26.1846    2.2311  -58.5337 C   0  0  0  1  0  0  0  0  0  0  0  0
   27.4660    2.3550  -59.0369 C   0  0  0  1  0  0  0  0  0  0  0  0
   23.6096    2.4453  -67.2488 C   0  0  0  1  0  0  0  0  0  0  0  0
   22.1119    2.8226  -67.4186 C   0  0  0  1  0  0  0  0  0  0  0  0
   21.6034    2.1358  -68.7033 C   0  0  0  1  0  0  0  0  0  0  0  0
   22.7039    0.3028  -70.0892 C   0  0  0  1  0  0  0  0  0  0  0  0
   25.8296    1.1706  -66.2748 N   0  0  0  1  0  0  0  0  0  0  0  0
   27.2965    0.4857  -64.5857 C   0  0  0  1  0  0  0  0  0  0  0  0
   26.4936    1.1850  -63.6614 C   0  0  0  1  0  0  0  0  0  0  0  0
   27.0809    1.0061  -62.4395 N   0  0  0  1  0  0  0  0  0  0  0  0
   28.3159   -0.0766  -63.9004 N   0  0  0  1  0  0  0  0  0  0  0  0
   28.2164    0.2092  -62.6490 N   0  0  0  1  0  0  0  0  0  0  0  0
   25.8027    2.5652  -57.2857 O   0  0  0  1  0  0  0  0  0  0  0  0
   24.0169    2.4581  -65.8493 N   0  0  0  1  0  0  0  0  0  0  0  0
   26.8533    3.0979  -56.4460 C   0  0  0  1  0  0  0  0  0  0  0  0
   22.6394    1.0936  -68.9512 N   0  0  0  1  0  0  0  0  0  0  0  0
   23.5850    1.0167  -67.8256 C   0  0  0  1  0  0  0  0  0  0  0  0
   21.8692    0.5453  -71.1643 C   0  0  0  1  0  0  0  0  0  0  0  0
   21.9696   -0.2644  -72.2796 C   0  0  0  1  0  0  0  0  0  0  0  0
   22.8341   -1.2791  -72.3756 N   0  0  0  1  0  0  0  0  0  0  0  0
   23.6343   -1.5057  -71.3242 C   0  0  0  1  0  0  0  0  0  0  0  0
   23.6033   -0.7424  -70.1701 C   0  0  0  1  0  0  0  0  0  0  0  0
   27.4789    0.0014  -66.6492 H   0  0  0  1  0  0  0  0  0  0  0  0
   28.7039    2.0607  -60.7179 H   0  0  0  1  0  0  0  0  0  0  0  0
   24.2063    1.6386  -58.9575 H   0  0  0  1  0  0  0  0  0  0  0  0
   24.6839    0.9643  -61.2344 H   0  0  0  1  0  0  0  0  0  0  0  0
   28.2255    2.7362  -58.4372 H   0  0  0  1  0  0  0  0  0  0  0  0
   24.2493    3.0914  -67.8129 H   0  0  0  1  0  0  0  0  0  0  0  0
   21.5510    2.4795  -66.5745 H   0  0  0  1  0  0  0  0  0  0  0  0
   22.0105    3.8841  -67.5072 H   0  0  0  1  0  0  0  0  0  0  0  0
   20.6412    1.6939  -68.5492 H   0  0  0  1  0  0  0  0  0  0  0  0
   21.5518    2.8293  -69.5166 H   0  0  0  1  0  0  0  0  0  0  0  0
   23.4687    2.9647  -65.2143 H   0  0  0  1  0  0  0  0  0  0  0  0
   26.4786    3.2436  -55.4544 H   0  0  0  1  0  0  0  0  0  0  0  0
   27.1861    4.0343  -56.8424 H   0  0  0  1  0  0  0  0  0  0  0  0
   27.6722    2.4097  -56.4199 H   0  0  0  1  0  0  0  0  0  0  0  0
   24.5575    0.7293  -68.1671 H   0  0  0  1  0  0  0  0  0  0  0  0
   23.2433    0.3176  -67.0912 H   0  0  0  1  0  0  0  0  0  0  0  0
   21.1788    1.3225  -71.1343 H   0  0  0  1  0  0  0  0  0  0  0  0
   21.3402   -0.0745  -73.0856 H   0  0  0  1  0  0  0  0  0  0  0  0
   24.3113   -2.2933  -71.3783 H   0  0  0  1  0  0  0  0  0  0  0  0
   24.2451   -0.9518  -69.3790 H   0  0  0  1  0  0  0  0  0  0  0  0
  1  3  4  0  0  0  0
  1 14  4  0  0  0  0
  1 21  1  0  0  0  0
  2 14  4  0  0  0  0
  2 15  4  0  0  0  0
  2 30  1  0  0  0  0
  3 16  4  0  0  0  0
  4  5  4  0  0  0  0
  4  7  4  0  0  0  0
  4 17  1  0  0  0  0
  5  9  4  0  0  0  0
  5 31  1  0  0  0  0
  6  7  4  0  0  0  0
  6  8  4  0  0  0  0
  6 32  1  0  0  0  0
  7 33  1  0  0  0  0
  8  9  4  0  0  0  0
  8 20  1  0  0  0  0
  9 34  1  0  0  0  0
 10 11  1  0  0  0  0
 10 21  1  0  0  0  0
 10 24  1  0  0  0  0
 10 35  1  0  0  0  0
 11 12  1  0  0  0  0
 11 36  1  0  0  0  0
 11 37  1  0  0  0  0
 12 23  1  0  0  0  0
 12 38  1  0  0  0  0
 12 39  1  0  0  0  0
 13 23  1  0  0  0  0
 13 25  4  0  0  0  0
 13 29  4  0  0  0  0
 15 16  4  0  0  0  0
 15 18  4  0  0  0  0
 16 17  4  0  0  0  0
 17 19  4  0  0  0  0
 18 19  4  0  0  0  0
 20 22  1  0  0  0  0
 21 40  1  0  0  0  0
 22 41  1  0  0  0  0
 22 42  1  0  0  0  0
 22 43  1  0  0  0  0
 23 24  1  0  0  0  0
 24 44  1  0  0  0  0
 24 45  1  0  0  0  0
 25 26  4  0  0  0  0
 25 46  1  0  0  0  0
 26 27  4  0  0  0  0
 26 47  1  0  0  0  0
 27 28  4  0  0  0  0
 28 29  4  0  0  0  0
 28 48  1  0  0  0  0
 29 49  1  0  0  0  0
M  END
> <ConfClashScore>
0 

> <ConfOneFourInteractionScore>
-0.987833 

> <ConfScore>
0.0670853 

> <ConfScorePBest>
0.00264693 

> <ConfTolerance>
0.461592 

> <HETNAM>
     OWQ A 303  OWQ                                                       

> <pdb_OW>
Q_303 -16.5129 3.80749 7.62812 0.15963 1.39178 -0.28144 -3.20151 0 0 0 -1.30514 0 0 0 0 0 0 0 0 -8.31393

$$$$
6yky_lig_1.pdb
 OpenBabel04162415593D

 49 53  0  0  0  0  0  0  0  0999 V2000
   25.1047    1.8135  -65.3759 C   0  0  0  1  0  0  0  0  0  0  0  0
   26.9167    0.5034  -65.9326 C   0  0  0  1  0  0  0  0  0  0  0  0
   25.4178    1.8283  -64.0981 N   0  0  0  1  0  0  0  0  0  0  0  0
   26.7865    1.5429  -61.1528 C   0  0  0  1  0  0  0  0  0  0  0  0
   27.4563    1.0750  -60.0380 C   0  0  0  1  0  0  0  0  0  0  0  0
   25.4168    2.9251  -59.7526 C   0  0  0  1  0  0  0  0  0  0  0  0
   25.7635    2.4673  -61.0098 C   0  0  0  1  0  0  0  0  0  0  0  0
   26.0884    2.4561  -58.6344 C   0  0  0  1  0  0  0  0  0  0  0  0
   27.1084    1.5343  -58.7773 C   0  0  0  1  0  0  0  0  0  0  0  0
   23.6648    2.4891  -67.2310 C   0  0  0  1  0  0  0  0  0  0  0  0
   22.9280    3.7721  -67.6471 C   0  0  0  1  0  0  0  0  0  0  0  0
   22.2051    3.3162  -68.9240 C   0  0  0  1  0  0  0  0  0  0  0  0
   22.2614    1.0146  -70.0576 C   0  0  0  1  0  0  0  0  0  0  0  0
   25.8296    1.1707  -66.2747 N   0  0  0  1  0  0  0  0  0  0  0  0
   27.2965    0.4857  -64.5857 C   0  0  0  1  0  0  0  0  0  0  0  0
   26.4937    1.1851  -63.6613 C   0  0  0  1  0  0  0  0  0  0  0  0
   27.0810    1.0060  -62.4395 N   0  0  0  1  0  0  0  0  0  0  0  0
   28.3159   -0.0766  -63.9004 N   0  0  0  1  0  0  0  0  0  0  0  0
   28.2164    0.2092  -62.6490 N   0  0  0  1  0  0  0  0  0  0  0  0
   25.8349    2.8263  -57.3567 O   0  0  0  1  0  0  0  0  0  0  0  0
   23.9765    2.4948  -65.7951 N   0  0  0  1  0  0  0  0  0  0  0  0
   24.7038    3.6827  -57.1338 C   0  0  0  1  0  0  0  0  0  0  0  0
   22.3621    1.8311  -68.9558 N   0  0  0  1  0  0  0  0  0  0  0  0
   22.6465    1.4150  -67.5698 C   0  0  0  1  0  0  0  0  0  0  0  0
   21.8487    1.4683  -71.2969 C   0  0  0  1  0  0  0  0  0  0  0  0
   21.7835    0.5706  -72.3454 C   0  0  0  1  0  0  0  0  0  0  0  0
   22.0969   -0.7231  -72.2258 N   0  0  0  1  0  0  0  0  0  0  0  0
   22.4910   -1.1503  -71.0177 C   0  0  0  1  0  0  0  0  0  0  0  0
   22.5885   -0.3197  -69.9150 C   0  0  0  1  0  0  0  0  0  0  0  0
   27.4789    0.0014  -66.6492 H   0  0  0  1  0  0  0  0  0  0  0  0
   28.2210    0.3785  -60.1451 H   0  0  0  1  0  0  0  0  0  0  0  0
   24.6520    3.6217  -59.6456 H   0  0  0  1  0  0  0  0  0  0  0  0
   25.2568    2.8163  -61.8483 H   0  0  0  1  0  0  0  0  0  0  0  0
   27.6150    1.1853  -57.9387 H   0  0  0  1  0  0  0  0  0  0  0  0
   24.5668    2.3600  -67.7919 H   0  0  0  1  0  0  0  0  0  0  0  0
   22.2327    4.0837  -66.8957 H   0  0  0  1  0  0  0  0  0  0  0  0
   23.6143    4.5675  -67.8505 H   0  0  0  1  0  0  0  0  0  0  0  0
   21.1697    3.5829  -68.8841 H   0  0  0  1  0  0  0  0  0  0  0  0
   22.6552    3.7591  -69.7879 H   0  0  0  1  0  0  0  0  0  0  0  0
   23.4033    2.9662  -65.1550 H   0  0  0  1  0  0  0  0  0  0  0  0
   23.8153    3.1987  -57.4821 H   0  0  0  1  0  0  0  0  0  0  0  0
   24.8415    4.6007  -57.6659 H   0  0  0  1  0  0  0  0  0  0  0  0
   24.6118    3.8867  -56.0875 H   0  0  0  1  0  0  0  0  0  0  0  0
   21.7794    1.4674  -66.9451 H   0  0  0  1  0  0  0  0  0  0  0  0
   23.0638    0.4311  -67.5198 H   0  0  0  1  0  0  0  0  0  0  0  0
   21.5924    2.4664  -71.4371 H   0  0  0  1  0  0  0  0  0  0  0  0
   21.4746    0.9196  -73.2751 H   0  0  0  1  0  0  0  0  0  0  0  0
   22.7355   -2.1547  -70.9036 H   0  0  0  1  0  0  0  0  0  0  0  0
   22.9021   -0.6931  -68.9964 H   0  0  0  1  0  0  0  0  0  0  0  0
  1  3  4  0  0  0  0
  1 14  4  0  0  0  0
  1 21  1  0  0  0  0
  2 14  4  0  0  0  0
  2 15  4  0  0  0  0
  2 30  1  0  0  0  0
  3 16  4  0  0  0  0
  4  5  4  0  0  0  0
  4  7  4  0  0  0  0
  4 17  1  0  0  0  0
  5  9  4  0  0  0  0
  5 31  1  0  0  0  0
  6  7  4  0  0  0  0
  6  8  4  0  0  0  0
  6 32  1  0  0  0  0
  7 33  1  0  0  0  0
  8  9  4  0  0  0  0
  8 20  1  0  0  0  0
  9 34  1  0  0  0  0
 10 11  1  0  0  0  0
 10 21  1  0  0  0  0
 10 24  1  0  0  0  0
 10 35  1  0  0  0  0
 11 12  1  0  0  0  0
 11 36  1  0  0  0  0
 11 37  1  0  0  0  0
 12 23  1  0  0  0  0
 12 38  1  0  0  0  0
 12 39  1  0  0  0  0
 13 23  1  0  0  0  0
 13 25  4  0  0  0  0
 13 29  4  0  0  0  0
 15 16  4  0  0  0  0
 15 18  4  0  0  0  0
 16 17  4  0  0  0  0
 17 19  4  0  0  0  0
 18 19  4  0  0  0  0
 20 22  1  0  0  0  0
 21 40  1  0  0  0  0
 22 41  1  0  0  0  0
 22 42  1  0  0  0  0
 22 43  1  0  0  0  0
 23 24  1  0  0  0  0
 24 44  1  0  0  0  0
 24 45  1  0  0  0  0
 25 26  4  0  0  0  0
 25 46  1  0  0  0  0
 26 27  4  0  0  0  0
 26 47  1  0  0  0  0
 27 28  4  0  0  0  0
 28 29  4  0  0  0  0
 28 48  1  0  0  0  0
 29 49  1  0  0  0  0
M  END
> <ConfClashScore>
0 

> <ConfOneFourInteractionScore>
-0.984874 

> <ConfScore>
0.0672916 

> <ConfScorePBest>
0.0026336 

> <ConfTolerance>
0.36377 

> <HETNAM>
     OWQ A 303  OWQ                                                       

> <pdb_OW>
Q_303 -16.5129 3.80749 7.62812 0.15963 1.39178 -0.28144 -3.20151 0 0 0 -1.30514 0 0 0 0 0 0 0 0 -8.31393

$$$$
6yky_lig_1.pdb
 OpenBabel04162415593D

 49 53  0  0  0  0  0  0  0  0999 V2000
   25.1048    1.8136  -65.3760 C   0  0  0  1  0  0  0  0  0  0  0  0
   26.9167    0.5034  -65.9326 C   0  0  0  1  0  0  0  0  0  0  0  0
   25.4179    1.8285  -64.0982 N   0  0  0  1  0  0  0  0  0  0  0  0
   26.8117    1.5874  -61.1666 C   0  0  0  1  0  0  0  0  0  0  0  0
   25.7718    2.4862  -61.0224 C   0  0  0  1  0  0  0  0  0  0  0  0
   27.4449    1.9499  -58.8831 C   0  0  0  1  0  0  0  0  0  0  0  0
   27.6512    1.3207  -60.0963 C   0  0  0  1  0  0  0  0  0  0  0  0
   26.4020    2.8515  -58.7382 C   0  0  0  1  0  0  0  0  0  0  0  0
   25.5651    3.1172  -59.8056 C   0  0  0  1  0  0  0  0  0  0  0  0
   23.5753    2.5635  -67.1761 C   0  0  0  1  0  0  0  0  0  0  0  0
   23.4003    1.1574  -67.8137 C   0  0  0  1  0  0  0  0  0  0  0  0
   23.6492    1.3013  -69.3297 C   0  0  0  1  0  0  0  0  0  0  0  0
   24.6754    3.2736  -70.6502 C   0  0  0  1  0  0  0  0  0  0  0  0
   25.8297    1.1708  -66.2748 N   0  0  0  1  0  0  0  0  0  0  0  0
   27.2965    0.4858  -64.5857 C   0  0  0  1  0  0  0  0  0  0  0  0
   26.4937    1.1853  -63.6614 C   0  0  0  1  0  0  0  0  0  0  0  0
   27.0810    1.0062  -62.4395 N   0  0  0  1  0  0  0  0  0  0  0  0
   28.3159   -0.0766  -63.9004 N   0  0  0  1  0  0  0  0  0  0  0  0
   28.2164    0.2092  -62.6490 N   0  0  0  1  0  0  0  0  0  0  0  0
   26.3025    3.4056  -57.5143 O   0  0  0  1  0  0  0  0  0  0  0  0
   24.0035    2.4789  -65.7853 N   0  0  0  1  0  0  0  0  0  0  0  0
   25.1148    4.2025  -57.2978 C   0  0  0  1  0  0  0  0  0  0  0  0
   24.3575    2.6091  -69.4239 N   0  0  0  1  0  0  0  0  0  0  0  0
   24.6861    3.1247  -68.0848 C   0  0  0  1  0  0  0  0  0  0  0  0
   25.8482    2.9867  -71.3238 C   0  0  0  1  0  0  0  0  0  0  0  0
   26.1141    3.6490  -72.5071 C   0  0  0  1  0  0  0  0  0  0  0  0
   25.2947    4.5613  -73.0388 N   0  0  0  1  0  0  0  0  0  0  0  0
   24.1633    4.8328  -72.3730 C   0  0  0  1  0  0  0  0  0  0  0  0
   23.8167    4.2143  -71.1843 C   0  0  0  1  0  0  0  0  0  0  0  0
   27.4789    0.0014  -66.6491 H   0  0  0  1  0  0  0  0  0  0  0  0
   25.1445    2.6892  -61.8267 H   0  0  0  1  0  0  0  0  0  0  0  0
   28.0723    1.7469  -58.0788 H   0  0  0  1  0  0  0  0  0  0  0  0
   28.4360    0.6473  -60.2061 H   0  0  0  1  0  0  0  0  0  0  0  0
   24.7802    3.7906  -59.6959 H   0  0  0  1  0  0  0  0  0  0  0  0
   22.6784    3.1436  -67.2390 H   0  0  0  1  0  0  0  0  0  0  0  0
   22.4076    0.7982  -67.6389 H   0  0  0  1  0  0  0  0  0  0  0  0
   24.1069    0.4742  -67.3907 H   0  0  0  1  0  0  0  0  0  0  0  0
   22.7268    1.3226  -69.8714 H   0  0  0  1  0  0  0  0  0  0  0  0
   24.2610    0.5041  -69.6973 H   0  0  0  1  0  0  0  0  0  0  0  0
   23.4599    2.9317  -65.1072 H   0  0  0  1  0  0  0  0  0  0  0  0
   24.7084    3.9829  -56.3326 H   0  0  0  1  0  0  0  0  0  0  0  0
   24.3897    3.9733  -58.0504 H   0  0  0  1  0  0  0  0  0  0  0  0
   25.3679    5.2407  -57.3501 H   0  0  0  1  0  0  0  0  0  0  0  0
   25.6466    2.7744  -67.7693 H   0  0  0  1  0  0  0  0  0  0  0  0
   24.6761    4.1947  -68.0782 H   0  0  0  1  0  0  0  0  0  0  0  0
   26.5177    2.2856  -70.9471 H   0  0  0  1  0  0  0  0  0  0  0  0
   26.9970    3.4264  -73.0096 H   0  0  0  1  0  0  0  0  0  0  0  0
   23.5145    5.5427  -72.7688 H   0  0  0  1  0  0  0  0  0  0  0  0
   22.9266    4.4534  -70.7025 H   0  0  0  1  0  0  0  0  0  0  0  0
  1  3  4  0  0  0  0
  1 14  4  0  0  0  0
  1 21  1  0  0  0  0
  2 14  4  0  0  0  0
  2 15  4  0  0  0  0
  2 30  1  0  0  0  0
  3 16  4  0  0  0  0
  4  5  4  0  0  0  0
  4  7  4  0  0  0  0
  4 17  1  0  0  0  0
  5  9  4  0  0  0  0
  5 31  1  0  0  0  0
  6  7  4  0  0  0  0
  6  8  4  0  0  0  0
  6 32  1  0  0  0  0
  7 33  1  0  0  0  0
  8  9  4  0  0  0  0
  8 20  1  0  0  0  0
  9 34  1  0  0  0  0
 10 11  1  0  0  0  0
 10 21  1  0  0  0  0
 10 24  1  0  0  0  0
 10 35  1  0  0  0  0
 11 12  1  0  0  0  0
 11 36  1  0  0  0  0
 11 37  1  0  0  0  0
 12 23  1  0  0  0  0
 12 38  1  0  0  0  0
 12 39  1  0  0  0  0
 13 23  1  0  0  0  0
 13 25  4  0  0  0  0
 13 29  4  0  0  0  0
 15 16  4  0  0  0  0
 15 18  4  0  0  0  0
 16 17  4  0  0  0  0
 17 19  4  0  0  0  0
 18 19  4  0  0  0  0
 20 22  1  0  0  0  0
 21 40  1  0  0  0  0
 22 41  1  0  0  0  0
 22 42  1  0  0  0  0
 22 43  1  0  0  0  0
 23 24  1  0  0  0  0
 24 44  1  0  0  0  0
 24 45  1  0  0  0  0
 25 26  4  0  0  0  0
 25 46  1  0  0  0  0
 26 27  4  0  0  0  0
 26 47  1  0  0  0  0
 27 28  4  0  0  0  0
 28 29  4  0  0  0  0
 28 48  1  0  0  0  0
 29 49  1  0  0  0  0
M  END
> <ConfClashScore>
0 

> <ConfOneFourInteractionScore>
-0.983503 

> <ConfScore>
0.0703065 

> <ConfScorePBest>
0.00262028 

> <ConfTolerance>
0.387916 

> <HETNAM>
     OWQ A 303  OWQ                                                       

> <pdb_OW>
Q_303 -16.5129 3.80749 7.62812 0.15963 1.39178 -0.28144 -3.20151 0 0 0 -1.30514 0 0 0 0 0 0 0 0 -8.31393

$$$$
6yky_lig_1.pdb
 OpenBabel04162415593D

 49 53  0  0  0  0  0  0  0  0999 V2000
   25.1048    1.8136  -65.3760 C   0  0  0  1  0  0  0  0  0  0  0  0
   26.9167    0.5034  -65.9326 C   0  0  0  1  0  0  0  0  0  0  0  0
   25.4178    1.8284  -64.0982 N   0  0  0  1  0  0  0  0  0  0  0  0
   26.7671    1.4474  -61.1215 C   0  0  0  1  0  0  0  0  0  0  0  0
   26.4830    2.7795  -60.8870 C   0  0  0  1  0  0  0  0  0  0  0  0
   26.6193    0.9998  -58.7710 C   0  0  0  1  0  0  0  0  0  0  0  0
   26.8379    0.5567  -60.0618 C   0  0  0  1  0  0  0  0  0  0  0  0
   26.3344    2.3359  -58.5356 C   0  0  0  1  0  0  0  0  0  0  0  0
   26.2638    3.2238  -59.5925 C   0  0  0  1  0  0  0  0  0  0  0  0
   23.4750    2.5332  -67.0922 C   0  0  0  1  0  0  0  0  0  0  0  0
   23.1741    1.1301  -67.5967 C   0  0  0  1  0  0  0  0  0  0  0  0
   23.2131    1.2942  -69.1056 C   0  0  0  1  0  0  0  0  0  0  0  0
   24.8839    2.5516  -70.5021 C   0  0  0  1  0  0  0  0  0  0  0  0
   25.8296    1.1707  -66.2747 N   0  0  0  1  0  0  0  0  0  0  0  0
   27.2965    0.4858  -64.5858 C   0  0  0  1  0  0  0  0  0  0  0  0
   26.4937    1.1852  -63.6614 C   0  0  0  1  0  0  0  0  0  0  0  0
   27.0809    1.0062  -62.4395 N   0  0  0  1  0  0  0  0  0  0  0  0
   28.3159   -0.0766  -63.9005 N   0  0  0  1  0  0  0  0  0  0  0  0
   28.2164    0.2093  -62.6490 N   0  0  0  1  0  0  0  0  0  0  0  0
   26.1459    2.6516  -57.2396 O   0  0  0  1  0  0  0  0  0  0  0  0
   23.9951    2.4930  -65.7365 N   0  0  0  1  0  0  0  0  0  0  0  0
   25.7320    4.0161  -56.9959 C   0  0  0  1  0  0  0  0  0  0  0  0
   24.2506    2.3172  -69.3016 N   0  0  0  1  0  0  0  0  0  0  0  0
   24.5325    3.0610  -68.0638 C   0  0  0  1  0  0  0  0  0  0  0  0
   25.8886    3.4967  -70.5962 C   0  0  0  1  0  0  0  0  0  0  0  0
   26.5000    3.6972  -71.8192 C   0  0  0  1  0  0  0  0  0  0  0  0
   26.1689    3.0244  -72.9255 N   0  0  0  1  0  0  0  0  0  0  0  0
   25.1903    2.1142  -72.8208 C   0  0  0  1  0  0  0  0  0  0  0  0
   24.5276    1.8471  -71.6355 C   0  0  0  1  0  0  0  0  0  0  0  0
   27.4789    0.0013  -66.6491 H   0  0  0  1  0  0  0  0  0  0  0  0
   26.4338    3.4485  -61.6818 H   0  0  0  1  0  0  0  0  0  0  0  0
   26.6685    0.3308  -57.9763 H   0  0  0  1  0  0  0  0  0  0  0  0
   27.0555   -0.4449  -60.2380 H   0  0  0  1  0  0  0  0  0  0  0  0
   26.0462    4.2254  -59.4163 H   0  0  0  1  0  0  0  0  0  0  0  0
   22.5963    3.1431  -67.1197 H   0  0  0  1  0  0  0  0  0  0  0  0
   23.9175    0.4351  -67.2663 H   0  0  0  1  0  0  0  0  0  0  0  0
   22.2092    0.8029  -67.2704 H   0  0  0  1  0  0  0  0  0  0  0  0
   22.2682    1.6286  -69.4803 H   0  0  0  1  0  0  0  0  0  0  0  0
   23.4830    0.3765  -69.5851 H   0  0  0  1  0  0  0  0  0  0  0  0
   23.5118    2.9881  -65.0425 H   0  0  0  1  0  0  0  0  0  0  0  0
   24.8945    4.2519  -57.6185 H   0  0  0  1  0  0  0  0  0  0  0  0
   26.5410    4.6794  -57.2206 H   0  0  0  1  0  0  0  0  0  0  0  0
   25.4547    4.1263  -55.9684 H   0  0  0  1  0  0  0  0  0  0  0  0
   25.5196    2.8526  -67.7072 H   0  0  0  1  0  0  0  0  0  0  0  0
   24.4227    4.1145  -68.2156 H   0  0  0  1  0  0  0  0  0  0  0  0
   26.1786    4.0464  -69.7624 H   0  0  0  1  0  0  0  0  0  0  0  0
   27.2567    4.4080  -71.8819 H   0  0  0  1  0  0  0  0  0  0  0  0
   24.9155    1.5830  -73.6716 H   0  0  0  1  0  0  0  0  0  0  0  0
   23.7757    1.1295  -71.5988 H   0  0  0  1  0  0  0  0  0  0  0  0
  1  3  4  0  0  0  0
  1 14  4  0  0  0  0
  1 21  1  0  0  0  0
  2 14  4  0  0  0  0
  2 15  4  0  0  0  0
  2 30  1  0  0  0  0
  3 16  4  0  0  0  0
  4  5  4  0  0  0  0
  4  7  4  0  0  0  0
  4 17  1  0  0  0  0
  5  9  4  0  0  0  0
  5 31  1  0  0  0  0
  6  7  4  0  0  0  0
  6  8  4  0  0  0  0
  6 32  1  0  0  0  0
  7 33  1  0  0  0  0
  8  9  4  0  0  0  0
  8 20  1  0  0  0  0
  9 34  1  0  0  0  0
 10 11  1  0  0  0  0
 10 21  1  0  0  0  0
 10 24  1  0  0  0  0
 10 35  1  0  0  0  0
 11 12  1  0  0  0  0
 11 36  1  0  0  0  0
 11 37  1  0  0  0  0
 12 23  1  0  0  0  0
 12 38  1  0  0  0  0
 12 39  1  0  0  0  0
 13 23  1  0  0  0  0
 13 25  4  0  0  0  0
 13 29  4  0  0  0  0
 15 16  4  0  0  0  0
 15 18  4  0  0  0  0
 16 17  4  0  0  0  0
 17 19  4  0  0  0  0
 18 19  4  0  0  0  0
 20 22  1  0  0  0  0
 21 40  1  0  0  0  0
 22 41  1  0  0  0  0
 22 42  1  0  0  0  0
 22 43  1  0  0  0  0
 23 24  1  0  0  0  0
 24 44  1  0  0  0  0
 24 45  1  0  0  0  0
 25 26  4  0  0  0  0
 25 46  1  0  0  0  0
 26 27  4  0  0  0  0
 26 47  1  0  0  0  0
 27 28  4  0  0  0  0
 28 29  4  0  0  0  0
 28 48  1  0  0  0  0
 29 49  1  0  0  0  0
M  END
> <ConfClashScore>
0 

> <ConfOneFourInteractionScore>
-0.983503 

> <ConfScore>
0.0733743 

> <ConfScorePBest>
0.00260695 

> <ConfTolerance>
0.459169 

> <HETNAM>
     OWQ A 303  OWQ                                                       

> <pdb_OW>
Q_303 -16.5129 3.80749 7.62812 0.15963 1.39178 -0.28144 -3.20151 0 0 0 -1.30514 0 0 0 0 0 0 0 0 -8.31393

$$$$
6yky_lig_1.pdb
 OpenBabel04162415593D

 49 53  0  0  0  0  0  0  0  0999 V2000
   25.1046    1.8134  -65.3760 C   0  0  0  1  0  0  0  0  0  0  0  0
   26.9167    0.5034  -65.9326 C   0  0  0  1  0  0  0  0  0  0  0  0
   25.4177    1.8282  -64.0982 N   0  0  0  1  0  0  0  0  0  0  0  0
   26.6541    1.4118  -61.1419 C   0  0  0  1  0  0  0  0  0  0  0  0
   26.0187    0.5102  -60.3092 C   0  0  0  1  0  0  0  0  0  0  0  0
   26.3026    3.1516  -59.5304 C   0  0  0  1  0  0  0  0  0  0  0  0
   26.7938    2.7351  -60.7534 C   0  0  0  1  0  0  0  0  0  0  0  0
   25.6654    2.2473  -58.6950 C   0  0  0  1  0  0  0  0  0  0  0  0
   25.5261    0.9281  -59.0827 C   0  0  0  1  0  0  0  0  0  0  0  0
   23.1153    3.2403  -65.0214 C   0  0  0  1  0  0  0  0  0  0  0  0
   23.8617    4.3740  -64.2652 C   0  0  0  1  0  0  0  0  0  0  0  0
   23.0761    4.6624  -62.9688 C   0  0  0  1  0  0  0  0  0  0  0  0
   21.2286    3.2998  -61.8834 C   0  0  0  1  0  0  0  0  0  0  0  0
   25.8297    1.1706  -66.2748 N   0  0  0  1  0  0  0  0  0  0  0  0
   27.2965    0.4858  -64.5857 C   0  0  0  1  0  0  0  0  0  0  0  0
   26.4935    1.1851  -63.6613 C   0  0  0  1  0  0  0  0  0  0  0  0
   27.0809    1.0061  -62.4395 N   0  0  0  1  0  0  0  0  0  0  0  0
   28.3159   -0.0766  -63.9003 N   0  0  0  1  0  0  0  0  0  0  0  0
   28.2164    0.2092  -62.6490 N   0  0  0  1  0  0  0  0  0  0  0  0
   25.1726    2.6625  -57.4821 O   0  0  0  1  0  0  0  0  0  0  0  0
   24.0168    2.4580  -65.8492 N   0  0  0  1  0  0  0  0  0  0  0  0
   25.6369    3.9807  -57.1090 C   0  0  0  1  0  0  0  0  0  0  0  0
   22.2241    3.4482  -62.8238 N   0  0  0  1  0  0  0  0  0  0  0  0
   22.5900    2.4292  -63.8210 C   0  0  0  1  0  0  0  0  0  0  0  0
   20.8418    4.3655  -61.0922 C   0  0  0  1  0  0  0  0  0  0  0  0
   19.8362    4.1737  -60.1640 C   0  0  0  1  0  0  0  0  0  0  0  0
   19.2141    3.0043  -59.9855 N   0  0  0  1  0  0  0  0  0  0  0  0
   19.6022    1.9784  -60.7563 C   0  0  0  1  0  0  0  0  0  0  0  0
   20.5974    2.0832  -61.7124 C   0  0  0  1  0  0  0  0  0  0  0  0
   27.4789    0.0014  -66.6492 H   0  0  0  1  0  0  0  0  0  0  0  0
   25.9104   -0.4816  -60.6025 H   0  0  0  1  0  0  0  0  0  0  0  0
   26.4110    4.1434  -59.2371 H   0  0  0  1  0  0  0  0  0  0  0  0
   27.2683    3.4143  -61.3819 H   0  0  0  1  0  0  0  0  0  0  0  0
   25.0516    0.2488  -58.4541 H   0  0  0  1  0  0  0  0  0  0  0  0
   22.3175    3.6217  -65.6238 H   0  0  0  1  0  0  0  0  0  0  0  0
   24.8568    4.0606  -64.0273 H   0  0  0  1  0  0  0  0  0  0  0  0
   23.9000    5.2543  -64.8724 H   0  0  0  1  0  0  0  0  0  0  0  0
   23.7365    4.7719  -62.1342 H   0  0  0  1  0  0  0  0  0  0  0  0
   22.4776    5.5437  -63.0687 H   0  0  0  1  0  0  0  0  0  0  0  0
   23.8241    2.3946  -66.8080 H   0  0  0  1  0  0  0  0  0  0  0  0
   26.7068    3.9954  -57.1082 H   0  0  0  1  0  0  0  0  0  0  0  0
   25.2764    4.2219  -56.1308 H   0  0  0  1  0  0  0  0  0  0  0  0
   25.2710    4.6997  -57.8119 H   0  0  0  1  0  0  0  0  0  0  0  0
   23.3515    1.7818  -63.4391 H   0  0  0  1  0  0  0  0  0  0  0  0
   21.7355    1.8492  -64.1008 H   0  0  0  1  0  0  0  0  0  0  0  0
   21.2989    5.2941  -61.1937 H   0  0  0  1  0  0  0  0  0  0  0  0
   19.5487    4.9806  -59.5740 H   0  0  0  1  0  0  0  0  0  0  0  0
   19.1326    1.0592  -60.6297 H   0  0  0  1  0  0  0  0  0  0  0  0
   20.8648    1.2615  -62.2911 H   0  0  0  1  0  0  0  0  0  0  0  0
  1  3  4  0  0  0  0
  1 14  4  0  0  0  0
  1 21  1  0  0  0  0
  2 14  4  0  0  0  0
  2 15  4  0  0  0  0
  2 30  1  0  0  0  0
  3 16  4  0  0  0  0
  4  5  4  0  0  0  0
  4  7  4  0  0  0  0
  4 17  1  0  0  0  0
  5  9  4  0  0  0  0
  5 31  1  0  0  0  0
  6  7  4  0  0  0  0
  6  8  4  0  0  0  0
  6 32  1  0  0  0  0
  7 33  1  0  0  0  0
  8  9  4  0  0  0  0
  8 20  1  0  0  0  0
  9 34  1  0  0  0  0
 10 11  1  0  0  0  0
 10 21  1  0  0  0  0
 10 24  1  0  0  0  0
 10 35  1  0  0  0  0
 11 12  1  0  0  0  0
 11 36  1  0  0  0  0
 11 37  1  0  0  0  0
 12 23  1  0  0  0  0
 12 38  1  0  0  0  0
 12 39  1  0  0  0  0
 13 23  1  0  0  0  0
 13 25  4  0  0  0  0
 13 29  4  0  0  0  0
 15 16  4  0  0  0  0
 15 18  4  0  0  0  0
 16 17  4  0  0  0  0
 17 19  4  0  0  0  0
 18 19  4  0  0  0  0
 20 22  1  0  0  0  0
 21 40  1  0  0  0  0
 22 41  1  0  0  0  0
 22 42  1  0  0  0  0
 22 43  1  0  0  0  0
 23 24  1  0  0  0  0
 24 44  1  0  0  0  0
 24 45  1  0  0  0  0
 25 26  4  0  0  0  0
 25 46  1  0  0  0  0
 26 27  4  0  0  0  0
 26 47  1  0  0  0  0
 27 28  4  0  0  0  0
 28 29  4  0  0  0  0
 28 48  1  0  0  0  0
 29 49  1  0  0  0  0
M  END
> <ConfClashScore>
0 

> <ConfOneFourInteractionScore>
-0.983503 

> <ConfScore>
0.0758048 

> <ConfScorePBest>
0.00259362 

> <ConfTolerance>
0.47321 

> <HETNAM>
     OWQ A 303  OWQ                                                       

> <pdb_OW>
Q_303 -16.5129 3.80749 7.62812 0.15963 1.39178 -0.28144 -3.20151 0 0 0 -1.30514 0 0 0 0 0 0 0 0 -8.31393

$$$$
6yky_lig_1.pdb
 OpenBabel04162415593D

 49 53  0  0  0  0  0  0  0  0999 V2000
   25.1049    1.8136  -65.3761 C   0  0  0  1  0  0  0  0  0  0  0  0
   26.9167    0.5034  -65.9326 C   0  0  0  1  0  0  0  0  0  0  0  0
   25.4179    1.8285  -64.0983 N   0  0  0  1  0  0  0  0  0  0  0  0
   26.7286    1.4701  -61.1391 C   0  0  0  1  0  0  0  0  0  0  0  0
   25.4552    1.2518  -60.6481 C   0  0  0  1  0  0  0  0  0  0  0  0
   27.2671    2.7456  -59.1821 C   0  0  0  1  0  0  0  0  0  0  0  0
   27.6351    2.2202  -60.4063 C   0  0  0  1  0  0  0  0  0  0  0  0
   25.9899    2.5269  -58.6895 C   0  0  0  1  0  0  0  0  0  0  0  0
   25.0863    1.7789  -59.4203 C   0  0  0  1  0  0  0  0  0  0  0  0
   23.6300    2.5712  -67.1935 C   0  0  0  1  0  0  0  0  0  0  0  0
   24.3066    3.7729  -67.8720 C   0  0  0  1  0  0  0  0  0  0  0  0
   23.3743    4.0213  -69.0677 C   0  0  0  1  0  0  0  0  0  0  0  0
   21.2379    2.7150  -69.7718 C   0  0  0  1  0  0  0  0  0  0  0  0
   25.8298    1.1707  -66.2748 N   0  0  0  1  0  0  0  0  0  0  0  0
   27.2965    0.4857  -64.5857 C   0  0  0  1  0  0  0  0  0  0  0  0
   26.4937    1.1852  -63.6614 C   0  0  0  1  0  0  0  0  0  0  0  0
   27.0809    1.0062  -62.4395 N   0  0  0  1  0  0  0  0  0  0  0  0
   28.3159   -0.0766  -63.9004 N   0  0  0  1  0  0  0  0  0  0  0  0
   28.2164    0.2092  -62.6490 N   0  0  0  1  0  0  0  0  0  0  0  0
   25.6913    3.0734  -57.4869 O   0  0  0  1  0  0  0  0  0  0  0  0
   23.9921    2.4857  -65.7897 N   0  0  0  1  0  0  0  0  0  0  0  0
   26.5957    4.0714  -56.9743 C   0  0  0  1  0  0  0  0  0  0  0  0
   22.1733    3.1702  -68.8134 N   0  0  0  1  0  0  0  0  0  0  0  0
   22.1572    2.8992  -67.3639 C   0  0  0  1  0  0  0  0  0  0  0  0
   20.1386    1.9707  -69.3856 C   0  0  0  1  0  0  0  0  0  0  0  0
   19.2476    1.5495  -70.3543 C   0  0  0  1  0  0  0  0  0  0  0  0
   19.3928    1.8217  -71.6546 N   0  0  0  1  0  0  0  0  0  0  0  0
   20.4654    2.5405  -72.0155 C   0  0  0  1  0  0  0  0  0  0  0  0
   21.4049    3.0054  -71.1118 C   0  0  0  1  0  0  0  0  0  0  0  0
   27.4790    0.0014  -66.6492 H   0  0  0  1  0  0  0  0  0  0  0  0
   24.7739    0.6924  -61.1999 H   0  0  0  1  0  0  0  0  0  0  0  0
   27.9486    3.3050  -58.6303 H   0  0  0  1  0  0  0  0  0  0  0  0
   28.5920    2.3876  -60.7777 H   0  0  0  1  0  0  0  0  0  0  0  0
   24.1294    1.6114  -59.0489 H   0  0  0  1  0  0  0  0  0  0  0  0
   23.8832    1.6547  -67.6842 H   0  0  0  1  0  0  0  0  0  0  0  0
   25.2980    3.5314  -68.1943 H   0  0  0  1  0  0  0  0  0  0  0  0
   24.3395    4.6210  -67.2205 H   0  0  0  1  0  0  0  0  0  0  0  0
   23.8513    3.7331  -69.9811 H   0  0  0  1  0  0  0  0  0  0  0  0
   23.0978    5.0536  -69.1194 H   0  0  0  1  0  0  0  0  0  0  0  0
   23.4224    2.9221  -65.1222 H   0  0  0  1  0  0  0  0  0  0  0  0
   26.5261    4.9567  -57.5713 H   0  0  0  1  0  0  0  0  0  0  0  0
   27.5971    3.6962  -57.0087 H   0  0  0  1  0  0  0  0  0  0  0  0
   26.3352    4.3024  -55.9626 H   0  0  0  1  0  0  0  0  0  0  0  0
   21.8647    3.7567  -66.7947 H   0  0  0  1  0  0  0  0  0  0  0  0
   21.5265    2.0720  -67.1135 H   0  0  0  1  0  0  0  0  0  0  0  0
   19.9852    1.7323  -68.3850 H   0  0  0  1  0  0  0  0  0  0  0  0
   18.4217    0.9921  -70.0560 H   0  0  0  1  0  0  0  0  0  0  0  0
   20.5979    2.7594  -73.0235 H   0  0  0  1  0  0  0  0  0  0  0  0
   22.2210    3.5628  -71.4355 H   0  0  0  1  0  0  0  0  0  0  0  0
  1  3  4  0  0  0  0
  1 14  4  0  0  0  0
  1 21  1  0  0  0  0
  2 14  4  0  0  0  0
  2 15  4  0  0  0  0
  2 30  1  0  0  0  0
  3 16  4  0  0  0  0
  4  5  4  0  0  0  0
  4  7  4  0  0  0  0
  4 17  1  0  0  0  0
  5  9  4  0  0  0  0
  5 31  1  0  0  0  0
  6  7  4  0  0  0  0
  6  8  4  0  0  0  0
  6 32  1  0  0  0  0
  7 33  1  0  0  0  0
  8  9  4  0  0  0  0
  8 20  1  0  0  0  0
  9 34  1  0  0  0  0
 10 11  1  0  0  0  0
 10 21  1  0  0  0  0
 10 24  1  0  0  0  0
 10 35  1  0  0  0  0
 11 12  1  0  0  0  0
 11 36  1  0  0  0  0
 11 37  1  0  0  0  0
 12 23  1  0  0  0  0
 12 38  1  0  0  0  0
 12 39  1  0  0  0  0
 13 23  1  0  0  0  0
 13 25  4  0  0  0  0
 13 29  4  0  0  0  0
 15 16  4  0  0  0  0
 15 18  4  0  0  0  0
 16 17  4  0  0  0  0
 17 19  4  0  0  0  0
 18 19  4  0  0  0  0
 20 22  1  0  0  0  0
 21 40  1  0  0  0  0
 22 41  1  0  0  0  0
 22 42  1  0  0  0  0
 22 43  1  0  0  0  0
 23 24  1  0  0  0  0
 24 44  1  0  0  0  0
 24 45  1  0  0  0  0
 25 26  4  0  0  0  0
 25 46  1  0  0  0  0
 26 27  4  0  0  0  0
 26 47  1  0  0  0  0
 27 28  4  0  0  0  0
 28 29  4  0  0  0  0
 28 48  1  0  0  0  0
 29 49  1  0  0  0  0
M  END
> <ConfClashScore>
0 

> <ConfOneFourInteractionScore>
-0.986948 

> <ConfScore>
0.0759831 

> <ConfScorePBest>
0.00258029 

> <ConfTolerance>
0.404172 

> <HETNAM>
     OWQ A 303  OWQ                                                       

> <pdb_OW>
Q_303 -16.5129 3.80749 7.62812 0.15963 1.39178 -0.28144 -3.20151 0 0 0 -1.30514 0 0 0 0 0 0 0 0 -8.31393

$$$$
6yky_lig_1.pdb
 OpenBabel04162415593D

 49 53  0  0  0  0  0  0  0  0999 V2000
   25.1047    1.8134  -65.3760 C   0  0  0  1  0  0  0  0  0  0  0  0
   26.9167    0.5034  -65.9326 C   0  0  0  1  0  0  0  0  0  0  0  0
   25.4178    1.8283  -64.0982 N   0  0  0  1  0  0  0  0  0  0  0  0
   26.7285    1.4698  -61.1390 C   0  0  0  1  0  0  0  0  0  0  0  0
   27.5610    1.2170  -60.0651 C   0  0  0  1  0  0  0  0  0  0  0  0
   25.1234    2.4662  -59.6632 C   0  0  0  1  0  0  0  0  0  0  0  0
   25.5068    2.0930  -60.9376 C   0  0  0  1  0  0  0  0  0  0  0  0
   25.9582    2.2126  -58.5859 C   0  0  0  1  0  0  0  0  0  0  0  0
   27.1763    1.5912  -58.7871 C   0  0  0  1  0  0  0  0  0  0  0  0
   23.1834    3.2632  -64.8672 C   0  0  0  1  0  0  0  0  0  0  0  0
   21.6834    3.0253  -65.1028 C   0  0  0  1  0  0  0  0  0  0  0  0
   21.0685    4.3023  -64.5098 C   0  0  0  1  0  0  0  0  0  0  0  0
   22.2619    6.3086  -63.3723 C   0  0  0  1  0  0  0  0  0  0  0  0
   25.8297    1.1706  -66.2748 N   0  0  0  1  0  0  0  0  0  0  0  0
   27.2964    0.4857  -64.5857 C   0  0  0  1  0  0  0  0  0  0  0  0
   26.4936    1.1852  -63.6613 C   0  0  0  1  0  0  0  0  0  0  0  0
   27.0808    1.0061  -62.4395 N   0  0  0  1  0  0  0  0  0  0  0  0
   28.3159   -0.0766  -63.9004 N   0  0  0  1  0  0  0  0  0  0  0  0
   28.2164    0.2092  -62.6490 N   0  0  0  1  0  0  0  0  0  0  0  0
   25.6257    2.6573  -57.3508 O   0  0  0  1  0  0  0  0  0  0  0  0
   23.9920    2.4855  -65.7895 N   0  0  0  1  0  0  0  0  0  0  0  0
   24.3425    3.2851  -57.2028 C   0  0  0  1  0  0  0  0  0  0  0  0
   22.2232    5.2173  -64.2636 N   0  0  0  1  0  0  0  0  0  0  0  0
   23.3146    4.7513  -65.1389 C   0  0  0  1  0  0  0  0  0  0  0  0
   21.8878    7.5531  -63.8446 C   0  0  0  1  0  0  0  0  0  0  0  0
   21.9180    8.6294  -62.9783 C   0  0  0  1  0  0  0  0  0  0  0  0
   22.2951    8.5332  -61.6998 N   0  0  0  1  0  0  0  0  0  0  0  0
   22.6594    7.3216  -61.2564 C   0  0  0  1  0  0  0  0  0  0  0  0
   22.6554    6.1903  -62.0536 C   0  0  0  1  0  0  0  0  0  0  0  0
   27.4790    0.0014  -66.6491 H   0  0  0  1  0  0  0  0  0  0  0  0
   28.4758    0.7458  -60.2158 H   0  0  0  1  0  0  0  0  0  0  0  0
   24.2086    2.9373  -59.5124 H   0  0  0  1  0  0  0  0  0  0  0  0
   24.8787    2.2796  -61.7451 H   0  0  0  1  0  0  0  0  0  0  0  0
   27.8044    1.4046  -57.9795 H   0  0  0  1  0  0  0  0  0  0  0  0
   23.4610    3.0260  -63.8614 H   0  0  0  1  0  0  0  0  0  0  0  0
   21.3414    2.1522  -64.5875 H   0  0  0  1  0  0  0  0  0  0  0  0
   21.4622    2.9341  -66.1458 H   0  0  0  1  0  0  0  0  0  0  0  0
   20.5616    4.0836  -63.5931 H   0  0  0  1  0  0  0  0  0  0  0  0
   20.3814    4.7436  -65.2012 H   0  0  0  1  0  0  0  0  0  0  0  0
   23.7313    2.4423  -66.7332 H   0  0  0  1  0  0  0  0  0  0  0  0
   24.2905    4.1454  -57.8369 H   0  0  0  1  0  0  0  0  0  0  0  0
   24.2075    3.5843  -56.1844 H   0  0  0  1  0  0  0  0  0  0  0  0
   23.5736    2.5933  -57.4768 H   0  0  0  1  0  0  0  0  0  0  0  0
   24.2670    5.1355  -64.8385 H   0  0  0  1  0  0  0  0  0  0  0  0
   23.1405    4.9923  -66.1668 H   0  0  0  1  0  0  0  0  0  0  0  0
   21.5892    7.6768  -64.8331 H   0  0  0  1  0  0  0  0  0  0  0  0
   21.6330    9.5619  -63.3399 H   0  0  0  1  0  0  0  0  0  0  0  0
   22.9597    7.2272  -60.2652 H   0  0  0  1  0  0  0  0  0  0  0  0
   22.9431    5.2687  -61.6671 H   0  0  0  1  0  0  0  0  0  0  0  0
  1  3  4  0  0  0  0
  1 14  4  0  0  0  0
  1 21  1  0  0  0  0
  2 14  4  0  0  0  0
  2 15  4  0  0  0  0
  2 30  1  0  0  0  0
  3 16  4  0  0  0  0
  4  5  4  0  0  0  0
  4  7  4  0  0  0  0
  4 17  1  0  0  0  0
  5  9  4  0  0  0  0
  5 31  1  0  0  0  0
  6  7  4  0  0  0  0
  6  8  4  0  0  0  0
  6 32  1  0  0  0  0
  7 33  1  0  0  0  0
  8  9  4  0  0  0  0
  8 20  1  0  0  0  0
  9 34  1  0  0  0  0
 10 11  1  0  0  0  0
 10 21  1  0  0  0  0
 10 24  1  0  0  0  0
 10 35  1  0  0  0  0
 11 12  1  0  0  0  0
 11 36  1  0  0  0  0
 11 37  1  0  0  0  0
 12 23  1  0  0  0  0
 12 38  1  0  0  0  0
 12 39  1  0  0  0  0
 13 23  1  0  0  0  0
 13 25  4  0  0  0  0
 13 29  4  0  0  0  0
 15 16  4  0  0  0  0
 15 18  4  0  0  0  0
 16 17  4  0  0  0  0
 17 19  4  0  0  0  0
 18 19  4  0  0  0  0
 20 22  1  0  0  0  0
 21 40  1  0  0  0  0
 22 41  1  0  0  0  0
 22 42  1  0  0  0  0
 22 43  1  0  0  0  0
 23 24  1  0  0  0  0
 24 44  1  0  0  0  0
 24 45  1  0  0  0  0
 25 26  4  0  0  0  0
 25 46  1  0  0  0  0
 26 27  4  0  0  0  0
 26 47  1  0  0  0  0
 27 28  4  0  0  0  0
 28 29  4  0  0  0  0
 28 48  1  0  0  0  0
 29 49  1  0  0  0  0
M  END
> <ConfClashScore>
0 

> <ConfOneFourInteractionScore>
-0.986948 

> <ConfScore>
0.0764548 

> <ConfScorePBest>
0.00256696 

> <ConfTolerance>
0.573641 

> <HETNAM>
     OWQ A 303  OWQ                                                       

> <pdb_OW>
Q_303 -16.5129 3.80749 7.62812 0.15963 1.39178 -0.28144 -3.20151 0 0 0 -1.30514 0 0 0 0 0 0 0 0 -8.31393

$$$$
6yky_lig_1.pdb
 OpenBabel04162415593D

 49 53  0  0  0  0  0  0  0  0999 V2000
   25.1047    1.8135  -65.3759 C   0  0  0  1  0  0  0  0  0  0  0  0
   26.9167    0.5034  -65.9326 C   0  0  0  1  0  0  0  0  0  0  0  0
   25.4178    1.8283  -64.0981 N   0  0  0  1  0  0  0  0  0  0  0  0
   26.6877    1.3784  -61.1215 C   0  0  0  1  0  0  0  0  0  0  0  0
   27.0088    0.5182  -60.0885 C   0  0  0  1  0  0  0  0  0  0  0  0
   25.4943    2.7803  -59.5860 C   0  0  0  1  0  0  0  0  0  0  0  0
   25.9270    2.5097  -60.8704 C   0  0  0  1  0  0  0  0  0  0  0  0
   25.8164    1.9176  -58.5498 C   0  0  0  1  0  0  0  0  0  0  0  0
   26.5748    0.7896  -58.8003 C   0  0  0  1  0  0  0  0  0  0  0  0
   23.0426    3.2536  -65.1120 C   0  0  0  1  0  0  0  0  0  0  0  0
   21.7915    2.4182  -64.7231 C   0  0  0  1  0  0  0  0  0  0  0  0
   20.5968    3.3900  -64.6259 C   0  0  0  1  0  0  0  0  0  0  0  0
   20.4191    5.8057  -65.4220 C   0  0  0  1  0  0  0  0  0  0  0  0
   25.8296    1.1707  -66.2747 N   0  0  0  1  0  0  0  0  0  0  0  0
   27.2965    0.4857  -64.5857 C   0  0  0  1  0  0  0  0  0  0  0  0
   26.4937    1.1852  -63.6613 C   0  0  0  1  0  0  0  0  0  0  0  0
   27.0810    1.0061  -62.4394 N   0  0  0  1  0  0  0  0  0  0  0  0
   28.3159   -0.0766  -63.9005 N   0  0  0  1  0  0  0  0  0  0  0  0
   28.2164    0.2093  -62.6490 N   0  0  0  1  0  0  0  0  0  0  0  0
   25.4707    2.2269  -57.2775 O   0  0  0  1  0  0  0  0  0  0  0  0
   24.0257    2.4531  -65.8453 N   0  0  0  1  0  0  0  0  0  0  0  0
   24.6972    3.4207  -57.0793 C   0  0  0  1  0  0  0  0  0  0  0  0
   21.0882    4.5898  -65.3608 N   0  0  0  1  0  0  0  0  0  0  0  0
   22.3785    4.3126  -66.0130 C   0  0  0  1  0  0  0  0  0  0  0  0
   20.5199    6.5507  -66.5824 C   0  0  0  1  0  0  0  0  0  0  0  0
   19.8550    7.7599  -66.6558 C   0  0  0  1  0  0  0  0  0  0  0  0
   19.1164    8.2543  -65.6577 N   0  0  0  1  0  0  0  0  0  0  0  0
   19.0310    7.5236  -64.5369 C   0  0  0  1  0  0  0  0  0  0  0  0
   19.6606    6.3013  -64.3795 C   0  0  0  1  0  0  0  0  0  0  0  0
   27.4789    0.0014  -66.6492 H   0  0  0  1  0  0  0  0  0  0  0  0
   27.5761   -0.3327  -60.2776 H   0  0  0  1  0  0  0  0  0  0  0  0
   24.9270    3.6313  -59.3968 H   0  0  0  1  0  0  0  0  0  0  0  0
   25.6821    3.1549  -61.6485 H   0  0  0  1  0  0  0  0  0  0  0  0
   26.8198    0.1445  -58.0223 H   0  0  0  1  0  0  0  0  0  0  0  0
   23.5084    3.6948  -64.2558 H   0  0  0  1  0  0  0  0  0  0  0  0
   21.9506    1.9396  -63.7795 H   0  0  0  1  0  0  0  0  0  0  0  0
   21.5998    1.6777  -65.4713 H   0  0  0  1  0  0  0  0  0  0  0  0
   19.7271    2.9799  -65.0951 H   0  0  0  1  0  0  0  0  0  0  0  0
   20.3744    3.6268  -63.6064 H   0  0  0  1  0  0  0  0  0  0  0  0
   23.8734    2.3750  -66.8103 H   0  0  0  1  0  0  0  0  0  0  0  0
   24.0943    3.3140  -56.2018 H   0  0  0  1  0  0  0  0  0  0  0  0
   24.0660    3.5813  -57.9282 H   0  0  0  1  0  0  0  0  0  0  0  0
   25.3552    4.2560  -56.9603 H   0  0  0  1  0  0  0  0  0  0  0  0
   22.9769    5.1983  -66.0605 H   0  0  0  1  0  0  0  0  0  0  0  0
   22.2288    3.9294  -67.0008 H   0  0  0  1  0  0  0  0  0  0  0  0
   21.0854    6.2074  -67.3850 H   0  0  0  1  0  0  0  0  0  0  0  0
   19.9334    8.3136  -67.5327 H   0  0  0  1  0  0  0  0  0  0  0  0
   18.4639    7.8933  -63.7474 H   0  0  0  1  0  0  0  0  0  0  0  0
   19.5645    5.7659  -63.4929 H   0  0  0  1  0  0  0  0  0  0  0  0
  1  3  4  0  0  0  0
  1 14  4  0  0  0  0
  1 21  1  0  0  0  0
  2 14  4  0  0  0  0
  2 15  4  0  0  0  0
  2 30  1  0  0  0  0
  3 16  4  0  0  0  0
  4  5  4  0  0  0  0
  4  7  4  0  0  0  0
  4 17  1  0  0  0  0
  5  9  4  0  0  0  0
  5 31  1  0  0  0  0
  6  7  4  0  0  0  0
  6  8  4  0  0  0  0
  6 32  1  0  0  0  0
  7 33  1  0  0  0  0
  8  9  4  0  0  0  0
  8 20  1  0  0  0  0
  9 34  1  0  0  0  0
 10 11  1  0  0  0  0
 10 21  1  0  0  0  0
 10 24  1  0  0  0  0
 10 35  1  0  0  0  0
 11 12  1  0  0  0  0
 11 36  1  0  0  0  0
 11 37  1  0  0  0  0
 12 23  1  0  0  0  0
 12 38  1  0  0  0  0
 12 39  1  0  0  0  0
 13 23  1  0  0  0  0
 13 25  4  0  0  0  0
 13 29  4  0  0  0  0
 15 16  4  0  0  0  0
 15 18  4  0  0  0  0
 16 17  4  0  0  0  0
 17 19  4  0  0  0  0
 18 19  4  0  0  0  0
 20 22  1  0  0  0  0
 21 40  1  0  0  0  0
 22 41  1  0  0  0  0
 22 42  1  0  0  0  0
 22 43  1  0  0  0  0
 23 24  1  0  0  0  0
 24 44  1  0  0  0  0
 24 45  1  0  0  0  0
 25 26  4  0  0  0  0
 25 46  1  0  0  0  0
 26 27  4  0  0  0  0
 26 47  1  0  0  0  0
 27 28  4  0  0  0  0
 28 29  4  0  0  0  0
 28 48  1  0  0  0  0
 29 49  1  0  0  0  0
M  END
> <ConfClashScore>
0 

> <ConfOneFourInteractionScore>
-0.986948 

> <ConfScore>
0.07666 

> <ConfScorePBest>
0.00255363 

> <ConfTolerance>
0.638799 

> <HETNAM>
     OWQ A 303  OWQ                                                       

> <pdb_OW>
Q_303 -16.5129 3.80749 7.62812 0.15963 1.39178 -0.28144 -3.20151 0 0 0 -1.30514 0 0 0 0 0 0 0 0 -8.31393

$$$$
6yky_lig_1.pdb
 OpenBabel04162415593D

 49 53  0  0  0  0  0  0  0  0999 V2000
   25.1047    1.8134  -65.3759 C   0  0  0  1  0  0  0  0  0  0  0  0
   26.9167    0.5034  -65.9326 C   0  0  0  1  0  0  0  0  0  0  0  0
   25.4177    1.8282  -64.0982 N   0  0  0  1  0  0  0  0  0  0  0  0
   26.7285    1.4699  -61.1390 C   0  0  0  1  0  0  0  0  0  0  0  0
   27.6429    2.1838  -60.3878 C   0  0  0  1  0  0  0  0  0  0  0  0
   25.1914    1.4983  -59.2996 C   0  0  0  1  0  0  0  0  0  0  0  0
   25.5020    1.1242  -60.5934 C   0  0  0  1  0  0  0  0  0  0  0  0
   26.1083    2.2143  -58.5459 C   0  0  0  1  0  0  0  0  0  0  0  0
   27.3312    2.5589  -59.0902 C   0  0  0  1  0  0  0  0  0  0  0  0
   22.9907    3.1000  -65.0504 C   0  0  0  1  0  0  0  0  0  0  0  0
   23.5907    4.1909  -64.1356 C   0  0  0  1  0  0  0  0  0  0  0  0
   22.8964    4.0961  -62.8004 C   0  0  0  1  0  0  0  0  0  0  0  0
   21.5293    2.1350  -61.8724 C   0  0  0  1  0  0  0  0  0  0  0  0
   25.8296    1.1706  -66.2747 N   0  0  0  1  0  0  0  0  0  0  0  0
   27.2965    0.4856  -64.5857 C   0  0  0  1  0  0  0  0  0  0  0  0
   26.4936    1.1852  -63.6614 C   0  0  0  1  0  0  0  0  0  0  0  0
   27.0809    1.0061  -62.4395 N   0  0  0  1  0  0  0  0  0  0  0  0
   28.3159   -0.0766  -63.9004 N   0  0  0  1  0  0  0  0  0  0  0  0
   28.2164    0.2092  -62.6490 N   0  0  0  1  0  0  0  0  0  0  0  0
   25.9189    2.6300  -57.2711 O   0  0  0  1  0  0  0  0  0  0  0  0
   24.0270    2.4522  -65.8448 N   0  0  0  1  0  0  0  0  0  0  0  0
   24.6816    2.2660  -56.6392 C   0  0  0  1  0  0  0  0  0  0  0  0
   22.2268    2.7087  -62.9083 N   0  0  0  1  0  0  0  0  0  0  0  0
   22.3783    2.1319  -64.0573 C   0  0  0  1  0  0  0  0  0  0  0  0
   20.1480    2.1047  -61.8192 C   0  0  0  1  0  0  0  0  0  0  0  0
   19.5377    1.5006  -60.7366 C   0  0  0  1  0  0  0  0  0  0  0  0
   20.2146    0.9423  -59.7285 N   0  0  0  1  0  0  0  0  0  0  0  0
   21.5532    0.9827  -59.7909 C   0  0  0  1  0  0  0  0  0  0  0  0
   22.2457    1.5636  -60.8389 C   0  0  0  1  0  0  0  0  0  0  0  0
   27.4789    0.0013  -66.6492 H   0  0  0  1  0  0  0  0  0  0  0  0
   28.5647    2.4396  -60.7958 H   0  0  0  1  0  0  0  0  0  0  0  0
   24.2697    1.2425  -58.8915 H   0  0  0  1  0  0  0  0  0  0  0  0
   24.8156    0.5836  -61.1574 H   0  0  0  1  0  0  0  0  0  0  0  0
   28.0176    3.0996  -58.5262 H   0  0  0  1  0  0  0  0  0  0  0  0
   22.2454    3.5087  -65.7003 H   0  0  0  1  0  0  0  0  0  0  0  0
   24.6411    4.0276  -64.0133 H   0  0  0  1  0  0  0  0  0  0  0  0
   23.4270    5.1574  -64.5644 H   0  0  0  1  0  0  0  0  0  0  0  0
   22.1709    4.8733  -62.6798 H   0  0  0  1  0  0  0  0  0  0  0  0
   23.5959    4.1319  -61.9915 H   0  0  0  1  0  0  0  0  0  0  0  0
   23.9240    2.4882  -66.8187 H   0  0  0  1  0  0  0  0  0  0  0  0
   24.5378    1.2088  -56.7179 H   0  0  0  1  0  0  0  0  0  0  0  0
   23.8722    2.7727  -57.1221 H   0  0  0  1  0  0  0  0  0  0  0  0
   24.7128    2.5457  -55.6069 H   0  0  0  1  0  0  0  0  0  0  0  0
   21.4244    1.8098  -64.4197 H   0  0  0  1  0  0  0  0  0  0  0  0
   23.0226    1.2850  -63.9457 H   0  0  0  1  0  0  0  0  0  0  0  0
   19.5791    2.5286  -62.5797 H   0  0  0  1  0  0  0  0  0  0  0  0
   18.4984    1.4794  -60.7046 H   0  0  0  1  0  0  0  0  0  0  0  0
   22.0977    0.5568  -59.0139 H   0  0  0  1  0  0  0  0  0  0  0  0
   23.2856    1.5696  -60.8481 H   0  0  0  1  0  0  0  0  0  0  0  0
  1  3  4  0  0  0  0
  1 14  4  0  0  0  0
  1 21  1  0  0  0  0
  2 14  4  0  0  0  0
  2 15  4  0  0  0  0
  2 30  1  0  0  0  0
  3 16  4  0  0  0  0
  4  5  4  0  0  0  0
  4  7  4  0  0  0  0
  4 17  1  0  0  0  0
  5  9  4  0  0  0  0
  5 31  1  0  0  0  0
  6  7  4  0  0  0  0
  6  8  4  0  0  0  0
  6 32  1  0  0  0  0
  7 33  1  0  0  0  0
  8  9  4  0  0  0  0
  8 20  1  0  0  0  0
  9 34  1  0  0  0  0
 10 11  1  0  0  0  0
 10 21  1  0  0  0  0
 10 24  1  0  0  0  0
 10 35  1  0  0  0  0
 11 12  1  0  0  0  0
 11 36  1  0  0  0  0
 11 37  1  0  0  0  0
 12 23  1  0  0  0  0
 12 38  1  0  0  0  0
 12 39  1  0  0  0  0
 13 23  1  0  0  0  0
 13 25  4  0  0  0  0
 13 29  4  0  0  0  0
 15 16  4  0  0  0  0
 15 18  4  0  0  0  0
 16 17  4  0  0  0  0
 17 19  4  0  0  0  0
 18 19  4  0  0  0  0
 20 22  1  0  0  0  0
 21 40  1  0  0  0  0
 22 41  1  0  0  0  0
 22 42  1  0  0  0  0
 22 43  1  0  0  0  0
 23 24  1  0  0  0  0
 24 44  1  0  0  0  0
 24 45  1  0  0  0  0
 25 26  4  0  0  0  0
 25 46  1  0  0  0  0
 26 27  4  0  0  0  0
 26 47  1  0  0  0  0
 27 28  4  0  0  0  0
 28 29  4  0  0  0  0
 28 48  1  0  0  0  0
 29 49  1  0  0  0  0
M  END
> <ConfClashScore>
0 

> <ConfOneFourInteractionScore>
-0.983503 

> <ConfScore>
0.0772399 

> <ConfScorePBest>
0.00254031 

> <ConfTolerance>
0.557179 

> <HETNAM>
     OWQ A 303  OWQ                                                       

> <pdb_OW>
Q_303 -16.5129 3.80749 7.62812 0.15963 1.39178 -0.28144 -3.20151 0 0 0 -1.30514 0 0 0 0 0 0 0 0 -8.31393

$$$$
6yky_lig_1.pdb
 OpenBabel04162415593D

 49 53  0  0  0  0  0  0  0  0999 V2000
   25.1048    1.8136  -65.3760 C   0  0  0  1  0  0  0  0  0  0  0  0
   26.9167    0.5034  -65.9326 C   0  0  0  1  0  0  0  0  0  0  0  0
   25.4178    1.8283  -64.0983 N   0  0  0  1  0  0  0  0  0  0  0  0
   26.6876    1.3784  -61.1215 C   0  0  0  1  0  0  0  0  0  0  0  0
   27.4765    1.0333  -60.0405 C   0  0  0  1  0  0  0  0  0  0  0  0
   25.0435    2.2897  -59.6337 C   0  0  0  1  0  0  0  0  0  0  0  0
   25.4681    2.0052  -60.9178 C   0  0  0  1  0  0  0  0  0  0  0  0
   25.8346    1.9436  -58.5493 C   0  0  0  1  0  0  0  0  0  0  0  0
   27.0506    1.3186  -58.7526 C   0  0  0  1  0  0  0  0  0  0  0  0
   23.1946    3.2793  -64.8712 C   0  0  0  1  0  0  0  0  0  0  0  0
   22.3443    4.3452  -65.6164 C   0  0  0  1  0  0  0  0  0  0  0  0
   22.1191    5.5216  -64.6437 C   0  0  0  1  0  0  0  0  0  0  0  0
   23.2752    6.0316  -62.4037 C   0  0  0  1  0  0  0  0  0  0  0  0
   25.8297    1.1707  -66.2749 N   0  0  0  1  0  0  0  0  0  0  0  0
   27.2965    0.4857  -64.5857 C   0  0  0  1  0  0  0  0  0  0  0  0
   26.4936    1.1851  -63.6614 C   0  0  0  1  0  0  0  0  0  0  0  0
   27.0809    1.0061  -62.4395 N   0  0  0  1  0  0  0  0  0  0  0  0
   28.3159   -0.0766  -63.9004 N   0  0  0  1  0  0  0  0  0  0  0  0
   28.2164    0.2092  -62.6490 N   0  0  0  1  0  0  0  0  0  0  0  0
   25.4163    2.2177  -57.2909 O   0  0  0  1  0  0  0  0  0  0  0  0
   23.9919    2.4856  -65.7896 N   0  0  0  1  0  0  0  0  0  0  0  0
   24.1056    2.7861  -57.1443 C   0  0  0  1  0  0  0  0  0  0  0  0
   23.1657    5.2961  -63.6070 N   0  0  0  1  0  0  0  0  0  0  0  0
   24.0700    4.2046  -64.0041 C   0  0  0  1  0  0  0  0  0  0  0  0
   24.0512    7.1744  -62.3443 C   0  0  0  1  0  0  0  0  0  0  0  0
   24.1271    7.8649  -61.1497 C   0  0  0  1  0  0  0  0  0  0  0  0
   23.4891    7.4838  -60.0389 N   0  0  0  1  0  0  0  0  0  0  0  0
   22.7439    6.3717  -60.1095 C   0  0  0  1  0  0  0  0  0  0  0  0
   22.6090    5.6221  -61.2651 C   0  0  0  1  0  0  0  0  0  0  0  0
   27.4790    0.0014  -66.6492 H   0  0  0  1  0  0  0  0  0  0  0  0
   28.3896    0.5593  -60.1933 H   0  0  0  1  0  0  0  0  0  0  0  0
   24.1304    2.7636  -59.4809 H   0  0  0  1  0  0  0  0  0  0  0  0
   24.8727    2.2613  -61.7311 H   0  0  0  1  0  0  0  0  0  0  0  0
   27.6459    1.0626  -57.9394 H   0  0  0  1  0  0  0  0  0  0  0  0
   22.5871    2.6317  -64.2742 H   0  0  0  1  0  0  0  0  0  0  0  0
   21.4036    3.9250  -65.9054 H   0  0  0  1  0  0  0  0  0  0  0  0
   22.8660    4.6854  -66.4864 H   0  0  0  1  0  0  0  0  0  0  0  0
   22.2601    6.4612  -65.1359 H   0  0  0  1  0  0  0  0  0  0  0  0
   21.1389    5.4860  -64.2161 H   0  0  0  1  0  0  0  0  0  0  0  0
   23.7237    2.4314  -66.7306 H   0  0  0  1  0  0  0  0  0  0  0  0
   23.9215    3.4706  -57.9458 H   0  0  0  1  0  0  0  0  0  0  0  0
   24.0446    3.3055  -56.2108 H   0  0  0  1  0  0  0  0  0  0  0  0
   23.3739    2.0056  -57.1671 H   0  0  0  1  0  0  0  0  0  0  0  0
   24.8957    4.5837  -64.5693 H   0  0  0  1  0  0  0  0  0  0  0  0
   24.4353    3.6835  -63.1439 H   0  0  0  1  0  0  0  0  0  0  0  0
   24.5679    7.5081  -63.1829 H   0  0  0  1  0  0  0  0  0  0  0  0
   24.7107    8.7250  -61.1132 H   0  0  0  1  0  0  0  0  0  0  0  0
   22.2426    6.0569  -59.2544 H   0  0  0  1  0  0  0  0  0  0  0  0
   22.0174    4.7669  -61.2759 H   0  0  0  1  0  0  0  0  0  0  0  0
  1  3  4  0  0  0  0
  1 14  4  0  0  0  0
  1 21  1  0  0  0  0
  2 14  4  0  0  0  0
  2 15  4  0  0  0  0
  2 30  1  0  0  0  0
  3 16  4  0  0  0  0
  4  5  4  0  0  0  0
  4  7  4  0  0  0  0
  4 17  1  0  0  0  0
  5  9  4  0  0  0  0
  5 31  1  0  0  0  0
  6  7  4  0  0  0  0
  6  8  4  0  0  0  0
  6 32  1  0  0  0  0
  7 33  1  0  0  0  0
  8  9  4  0  0  0  0
  8 20  1  0  0  0  0
  9 34  1  0  0  0  0
 10 11  1  0  0  0  0
 10 21  1  0  0  0  0
 10 24  1  0  0  0  0
 10 35  1  0  0  0  0
 11 12  1  0  0  0  0
 11 36  1  0  0  0  0
 11 37  1  0  0  0  0
 12 23  1  0  0  0  0
 12 38  1  0  0  0  0
 12 39  1  0  0  0  0
 13 23  1  0  0  0  0
 13 25  4  0  0  0  0
 13 29  4  0  0  0  0
 15 16  4  0  0  0  0
 15 18  4  0  0  0  0
 16 17  4  0  0  0  0
 17 19  4  0  0  0  0
 18 19  4  0  0  0  0
 20 22  1  0  0  0  0
 21 40  1  0  0  0  0
 22 41  1  0  0  0  0
 22 42  1  0  0  0  0
 22 43  1  0  0  0  0
 23 24  1  0  0  0  0
 24 44  1  0  0  0  0
 24 45  1  0  0  0  0
 25 26  4  0  0  0  0
 25 46  1  0  0  0  0
 26 27  4  0  0  0  0
 26 47  1  0  0  0  0
 27 28  4  0  0  0  0
 28 29  4  0  0  0  0
 28 48  1  0  0  0  0
 29 49  1  0  0  0  0
M  END
> <ConfClashScore>
0 

> <ConfOneFourInteractionScore>
-0.987833 

> <ConfScore>
0.0773093 

> <ConfScorePBest>
0.00252698 

> <ConfTolerance>
0.481479 

> <HETNAM>
     OWQ A 303  OWQ                                                       

> <pdb_OW>
Q_303 -16.5129 3.80749 7.62812 0.15963 1.39178 -0.28144 -3.20151 0 0 0 -1.30514 0 0 0 0 0 0 0 0 -8.31393

$$$$
6yky_lig_1.pdb
 OpenBabel04162415593D

 49 53  0  0  0  0  0  0  0  0999 V2000
   25.1048    1.8136  -65.3759 C   0  0  0  1  0  0  0  0  0  0  0  0
   26.9167    0.5034  -65.9326 C   0  0  0  1  0  0  0  0  0  0  0  0
   25.4178    1.8284  -64.0982 N   0  0  0  1  0  0  0  0  0  0  0  0
   26.6855    1.4951  -61.1608 C   0  0  0  1  0  0  0  0  0  0  0  0
   25.6151    2.3625  -61.0524 C   0  0  0  1  0  0  0  0  0  0  0  0
   27.1044    1.7146  -58.8106 C   0  0  0  1  0  0  0  0  0  0  0  0
   27.4330    1.1726  -60.0388 C   0  0  0  1  0  0  0  0  0  0  0  0
   26.0308    2.5847  -58.7017 C   0  0  0  1  0  0  0  0  0  0  0  0
   25.2857    2.9060  -59.8205 C   0  0  0  1  0  0  0  0  0  0  0  0
   23.1348    3.1943  -64.7995 C   0  0  0  1  0  0  0  0  0  0  0  0
   22.2025    4.1768  -65.5258 C   0  0  0  1  0  0  0  0  0  0  0  0
   21.8661    5.1731  -64.4056 C   0  0  0  1  0  0  0  0  0  0  0  0
   22.6437    5.1620  -61.9280 C   0  0  0  1  0  0  0  0  0  0  0  0
   25.8297    1.1707  -66.2748 N   0  0  0  1  0  0  0  0  0  0  0  0
   27.2965    0.4857  -64.5857 C   0  0  0  1  0  0  0  0  0  0  0  0
   26.4936    1.1852  -63.6614 C   0  0  0  1  0  0  0  0  0  0  0  0
   27.0809    1.0061  -62.4395 N   0  0  0  1  0  0  0  0  0  0  0  0
   28.3159   -0.0766  -63.9004 N   0  0  0  1  0  0  0  0  0  0  0  0
   28.2164    0.2092  -62.6490 N   0  0  0  1  0  0  0  0  0  0  0  0
   25.7121    3.1197  -57.4992 O   0  0  0  1  0  0  0  0  0  0  0  0
   23.9951    2.4929  -65.7366 N   0  0  0  1  0  0  0  0  0  0  0  0
   24.5206    3.9186  -57.4315 C   0  0  0  1  0  0  0  0  0  0  0  0
   22.8055    4.8445  -63.2918 N   0  0  0  1  0  0  0  0  0  0  0  0
   23.9362    4.1217  -63.9033 C   0  0  0  1  0  0  0  0  0  0  0  0
   21.9929    4.3329  -61.0332 C   0  0  0  1  0  0  0  0  0  0  0  0
   21.8883    4.7303  -59.7139 C   0  0  0  1  0  0  0  0  0  0  0  0
   22.3831    5.8830  -59.2523 N   0  0  0  1  0  0  0  0  0  0  0  0
   23.0077    6.6790  -60.1317 C   0  0  0  1  0  0  0  0  0  0  0  0
   23.1607    6.3577  -61.4690 C   0  0  0  1  0  0  0  0  0  0  0  0
   27.4789    0.0014  -66.6492 H   0  0  0  1  0  0  0  0  0  0  0  0
   25.0569    2.6075  -61.8949 H   0  0  0  1  0  0  0  0  0  0  0  0
   27.6627    1.4696  -57.9680 H   0  0  0  1  0  0  0  0  0  0  0  0
   28.2409    0.5229  -60.1212 H   0  0  0  1  0  0  0  0  0  0  0  0
   24.4777    3.5557  -59.7381 H   0  0  0  1  0  0  0  0  0  0  0  0
   22.5785    2.4836  -64.2247 H   0  0  0  1  0  0  0  0  0  0  0  0
   21.3234    3.6853  -65.8874 H   0  0  0  1  0  0  0  0  0  0  0  0
   22.7021    4.6593  -66.3397 H   0  0  0  1  0  0  0  0  0  0  0  0
   22.0180    6.1782  -64.7399 H   0  0  0  1  0  0  0  0  0  0  0  0
   20.8515    5.0518  -64.0883 H   0  0  0  1  0  0  0  0  0  0  0  0
   23.7559    2.5141  -66.6866 H   0  0  0  1  0  0  0  0  0  0  0  0
   24.5719    4.6990  -58.1616 H   0  0  0  1  0  0  0  0  0  0  0  0
   24.4348    4.3487  -56.4555 H   0  0  0  1  0  0  0  0  0  0  0  0
   23.6673    3.3032  -57.6269 H   0  0  0  1  0  0  0  0  0  0  0  0
   24.5137    3.5861  -63.1792 H   0  0  0  1  0  0  0  0  0  0  0  0
   24.5773    4.7709  -64.4623 H   0  0  0  1  0  0  0  0  0  0  0  0
   21.5896    3.4270  -61.3472 H   0  0  0  1  0  0  0  0  0  0  0  0
   21.3997    4.1004  -59.0460 H   0  0  0  1  0  0  0  0  0  0  0  0
   23.3962    7.5821  -59.7923 H   0  0  0  1  0  0  0  0  0  0  0  0
   23.6556    7.0041  -62.1162 H   0  0  0  1  0  0  0  0  0  0  0  0
  1  3  4  0  0  0  0
  1 14  4  0  0  0  0
  1 21  1  0  0  0  0
  2 14  4  0  0  0  0
  2 15  4  0  0  0  0
  2 30  1  0  0  0  0
  3 16  4  0  0  0  0
  4  5  4  0  0  0  0
  4  7  4  0  0  0  0
  4 17  1  0  0  0  0
  5  9  4  0  0  0  0
  5 31  1  0  0  0  0
  6  7  4  0  0  0  0
  6  8  4  0  0  0  0
  6 32  1  0  0  0  0
  7 33  1  0  0  0  0
  8  9  4  0  0  0  0
  8 20  1  0  0  0  0
  9 34  1  0  0  0  0
 10 11  1  0  0  0  0
 10 21  1  0  0  0  0
 10 24  1  0  0  0  0
 10 35  1  0  0  0  0
 11 12  1  0  0  0  0
 11 36  1  0  0  0  0
 11 37  1  0  0  0  0
 12 23  1  0  0  0  0
 12 38  1  0  0  0  0
 12 39  1  0  0  0  0
 13 23  1  0  0  0  0
 13 25  4  0  0  0  0
 13 29  4  0  0  0  0
 15 16  4  0  0  0  0
 15 18  4  0  0  0  0
 16 17  4  0  0  0  0
 17 19  4  0  0  0  0
 18 19  4  0  0  0  0
 20 22  1  0  0  0  0
 21 40  1  0  0  0  0
 22 41  1  0  0  0  0
 22 42  1  0  0  0  0
 22 43  1  0  0  0  0
 23 24  1  0  0  0  0
 24 44  1  0  0  0  0
 24 45  1  0  0  0  0
 25 26  4  0  0  0  0
 25 46  1  0  0  0  0
 26 27  4  0  0  0  0
 26 47  1  0  0  0  0
 27 28  4  0  0  0  0
 28 29  4  0  0  0  0
 28 48  1  0  0  0  0
 29 49  1  0  0  0  0
M  END
> <ConfClashScore>
0 

> <ConfOneFourInteractionScore>
-0.987833 

> <ConfScore>
0.0778941 

> <ConfScorePBest>
0.00251365 

> <ConfTolerance>
0.368409 

> <HETNAM>
     OWQ A 303  OWQ                                                       

> <pdb_OW>
Q_303 -16.5129 3.80749 7.62812 0.15963 1.39178 -0.28144 -3.20151 0 0 0 -1.30514 0 0 0 0 0 0 0 0 -8.31393

$$$$
6yky_lig_1.pdb
 OpenBabel04162415593D

 49 53  0  0  0  0  0  0  0  0999 V2000
   25.1048    1.8136  -65.3759 C   0  0  0  1  0  0  0  0  0  0  0  0
   26.9167    0.5034  -65.9325 C   0  0  0  1  0  0  0  0  0  0  0  0
   25.4178    1.8284  -64.0982 N   0  0  0  1  0  0  0  0  0  0  0  0
   26.6856    1.4950  -61.1608 C   0  0  0  1  0  0  0  0  0  0  0  0
   25.4876    2.1791  -61.0774 C   0  0  0  1  0  0  0  0  0  0  0  0
   27.1113    1.9537  -58.8466 C   0  0  0  1  0  0  0  0  0  0  0  0
   27.4999    1.3843  -60.0446 C   0  0  0  1  0  0  0  0  0  0  0  0
   25.9098    2.6399  -58.7627 C   0  0  0  1  0  0  0  0  0  0  0  0
   25.0979    2.7501  -59.8759 C   0  0  0  1  0  0  0  0  0  0  0  0
   23.1851    3.2508  -64.8327 C   0  0  0  1  0  0  0  0  0  0  0  0
   22.7368    2.3641  -63.6599 C   0  0  0  1  0  0  0  0  0  0  0  0
   21.5050    3.1256  -63.1467 C   0  0  0  1  0  0  0  0  0  0  0  0
   20.4979    5.3292  -64.0201 C   0  0  0  1  0  0  0  0  0  0  0  0
   25.8297    1.1706  -66.2748 N   0  0  0  1  0  0  0  0  0  0  0  0
   27.2965    0.4858  -64.5857 C   0  0  0  1  0  0  0  0  0  0  0  0
   26.4937    1.1852  -63.6613 C   0  0  0  1  0  0  0  0  0  0  0  0
   27.0809    1.0062  -62.4394 N   0  0  0  1  0  0  0  0  0  0  0  0
   28.3159   -0.0766  -63.9004 N   0  0  0  1  0  0  0  0  0  0  0  0
   28.2164    0.2092  -62.6490 N   0  0  0  1  0  0  0  0  0  0  0  0
   25.6394    3.1555  -57.5479 O   0  0  0  1  0  0  0  0  0  0  0  0
   23.9768    2.4948  -65.7952 N   0  0  0  1  0  0  0  0  0  0  0  0
   24.3996    3.8954  -57.4590 C   0  0  0  1  0  0  0  0  0  0  0  0
   21.2190    4.1581  -64.1876 N   0  0  0  1  0  0  0  0  0  0  0  0
   21.8571    3.6824  -65.4290 C   0  0  0  1  0  0  0  0  0  0  0  0
   19.1725    5.4023  -64.4070 C   0  0  0  1  0  0  0  0  0  0  0  0
   18.4895    6.5886  -64.2182 C   0  0  0  1  0  0  0  0  0  0  0  0
   19.0450    7.6789  -63.6808 N   0  0  0  1  0  0  0  0  0  0  0  0
   20.3318    7.5953  -63.3141 C   0  0  0  1  0  0  0  0  0  0  0  0
   21.0890    6.4465  -63.4634 C   0  0  0  1  0  0  0  0  0  0  0  0
   27.4789    0.0013  -66.6492 H   0  0  0  1  0  0  0  0  0  0  0  0
   24.8786    2.2656  -61.9159 H   0  0  0  1  0  0  0  0  0  0  0  0
   27.7204    1.8671  -58.0081 H   0  0  0  1  0  0  0  0  0  0  0  0
   28.4032    0.8729  -60.1085 H   0  0  0  1  0  0  0  0  0  0  0  0
   24.1946    3.2615  -59.8119 H   0  0  0  1  0  0  0  0  0  0  0  0
   23.7488    4.0930  -64.4895 H   0  0  0  1  0  0  0  0  0  0  0  0
   22.4769    1.3806  -63.9918 H   0  0  0  1  0  0  0  0  0  0  0  0
   23.4957    2.2985  -62.9084 H   0  0  0  1  0  0  0  0  0  0  0  0
   20.6726    2.4622  -63.0383 H   0  0  0  1  0  0  0  0  0  0  0  0
   21.7165    3.5902  -62.2063 H   0  0  0  1  0  0  0  0  0  0  0  0
   23.7100    2.4694  -66.7378 H   0  0  0  1  0  0  0  0  0  0  0  0
   24.3535    4.6118  -58.2525 H   0  0  0  1  0  0  0  0  0  0  0  0
   24.3538    4.4026  -56.5179 H   0  0  0  1  0  0  0  0  0  0  0  0
   23.5744    3.2193  -57.5408 H   0  0  0  1  0  0  0  0  0  0  0  0
   21.3262    2.8646  -65.8698 H   0  0  0  1  0  0  0  0  0  0  0  0
   21.9721    4.4640  -66.1507 H   0  0  0  1  0  0  0  0  0  0  0  0
   18.6986    4.5799  -64.8322 H   0  0  0  1  0  0  0  0  0  0  0  0
   17.4922    6.6355  -64.5095 H   0  0  0  1  0  0  0  0  0  0  0  0
   20.7830    8.4345  -62.8973 H   0  0  0  1  0  0  0  0  0  0  0  0
   22.0842    6.4249  -63.1621 H   0  0  0  1  0  0  0  0  0  0  0  0
  1  3  4  0  0  0  0
  1 14  4  0  0  0  0
  1 21  1  0  0  0  0
  2 14  4  0  0  0  0
  2 15  4  0  0  0  0
  2 30  1  0  0  0  0
  3 16  4  0  0  0  0
  4  5  4  0  0  0  0
  4  7  4  0  0  0  0
  4 17  1  0  0  0  0
  5  9  4  0  0  0  0
  5 31  1  0  0  0  0
  6  7  4  0  0  0  0
  6  8  4  0  0  0  0
  6 32  1  0  0  0  0
  7 33  1  0  0  0  0
  8  9  4  0  0  0  0
  8 20  1  0  0  0  0
  9 34  1  0  0  0  0
 10 11  1  0  0  0  0
 10 21  1  0  0  0  0
 10 24  1  0  0  0  0
 10 35  1  0  0  0  0
 11 12  1  0  0  0  0
 11 36  1  0  0  0  0
 11 37  1  0  0  0  0
 12 23  1  0  0  0  0
 12 38  1  0  0  0  0
 12 39  1  0  0  0  0
 13 23  1  0  0  0  0
 13 25  4  0  0  0  0
 13 29  4  0  0  0  0
 15 16  4  0  0  0  0
 15 18  4  0  0  0  0
 16 17  4  0  0  0  0
 17 19  4  0  0  0  0
 18 19  4  0  0  0  0
 20 22  1  0  0  0  0
 21 40  1  0  0  0  0
 22 41  1  0  0  0  0
 22 42  1  0  0  0  0
 22 43  1  0  0  0  0
 23 24  1  0  0  0  0
 24 44  1  0  0  0  0
 24 45  1  0  0  0  0
 25 26  4  0  0  0  0
 25 46  1  0  0  0  0
 26 27  4  0  0  0  0
 26 47  1  0  0  0  0
 27 28  4  0  0  0  0
 28 29  4  0  0  0  0
 28 48  1  0  0  0  0
 29 49  1  0  0  0  0
M  END
> <ConfClashScore>
0 

> <ConfOneFourInteractionScore>
-0.987833 

> <ConfScore>
0.0787231 

> <ConfScorePBest>
0.00250032 

> <ConfTolerance>
0.526395 

> <HETNAM>
     OWQ A 303  OWQ                                                       

> <pdb_OW>
Q_303 -16.5129 3.80749 7.62812 0.15963 1.39178 -0.28144 -3.20151 0 0 0 -1.30514 0 0 0 0 0 0 0 0 -8.31393

$$$$
6yky_lig_1.pdb
 OpenBabel04162415593D

 49 53  0  0  0  0  0  0  0  0999 V2000
   25.1049    1.8136  -65.3760 C   0  0  0  1  0  0  0  0  0  0  0  0
   26.9167    0.5034  -65.9325 C   0  0  0  1  0  0  0  0  0  0  0  0
   25.4179    1.8285  -64.0982 N   0  0  0  1  0  0  0  0  0  0  0  0
   26.7287    1.4700  -61.1391 C   0  0  0  1  0  0  0  0  0  0  0  0
   27.4881    2.4873  -60.5926 C   0  0  0  1  0  0  0  0  0  0  0  0
   25.4810    1.3025  -59.0989 C   0  0  0  1  0  0  0  0  0  0  0  0
   25.7254    0.8749  -60.3903 C   0  0  0  1  0  0  0  0  0  0  0  0
   26.2426    2.3227  -58.5506 C   0  0  0  1  0  0  0  0  0  0  0  0
   27.2430    2.9160  -59.2974 C   0  0  0  1  0  0  0  0  0  0  0  0
   23.0508    3.0917  -64.8804 C   0  0  0  1  0  0  0  0  0  0  0  0
   21.6306    3.0621  -65.4672 C   0  0  0  1  0  0  0  0  0  0  0  0
   20.9574    4.2184  -64.7121 C   0  0  0  1  0  0  0  0  0  0  0  0
   21.9609    5.7599  -62.9162 C   0  0  0  1  0  0  0  0  0  0  0  0
   25.8298    1.1708  -66.2747 N   0  0  0  1  0  0  0  0  0  0  0  0
   27.2965    0.4858  -64.5856 C   0  0  0  1  0  0  0  0  0  0  0  0
   26.4937    1.1852  -63.6614 C   0  0  0  1  0  0  0  0  0  0  0  0
   27.0810    1.0062  -62.4395 N   0  0  0  1  0  0  0  0  0  0  0  0
   28.3159   -0.0766  -63.9004 N   0  0  0  1  0  0  0  0  0  0  0  0
   28.2164    0.2093  -62.6490 N   0  0  0  1  0  0  0  0  0  0  0  0
   25.8831    2.6201  -57.2793 O   0  0  0  1  0  0  0  0  0  0  0  0
   24.0076    2.4764  -65.7838 N   0  0  0  1  0  0  0  0  0  0  0  0
   26.5343    3.7391  -56.6579 C   0  0  0  1  0  0  0  0  0  0  0  0
   22.0689    4.9340  -64.0166 N   0  0  0  1  0  0  0  0  0  0  0  0
   23.3048    4.5821  -64.7402 C   0  0  0  1  0  0  0  0  0  0  0  0
   21.8349    5.1760  -61.6693 C   0  0  0  1  0  0  0  0  0  0  0  0
   21.7301    5.9934  -60.5601 C   0  0  0  1  0  0  0  0  0  0  0  0
   21.7407    7.3283  -60.6274 N   0  0  0  1  0  0  0  0  0  0  0  0
   21.8591    7.8809  -61.8430 C   0  0  0  1  0  0  0  0  0  0  0  0
   21.9731    7.1382  -63.0051 C   0  0  0  1  0  0  0  0  0  0  0  0
   27.4789    0.0014  -66.6491 H   0  0  0  1  0  0  0  0  0  0  0  0
   28.2435    2.9309  -61.1531 H   0  0  0  1  0  0  0  0  0  0  0  0
   24.7256    0.8587  -58.5384 H   0  0  0  1  0  0  0  0  0  0  0  0
   25.1566    0.1067  -60.8002 H   0  0  0  1  0  0  0  0  0  0  0  0
   27.8118    3.6842  -58.8876 H   0  0  0  1  0  0  0  0  0  0  0  0
   23.0891    2.6001  -63.9308 H   0  0  0  1  0  0  0  0  0  0  0  0
   21.6410    3.2392  -66.5224 H   0  0  0  1  0  0  0  0  0  0  0  0
   21.1450    2.1300  -65.2662 H   0  0  0  1  0  0  0  0  0  0  0  0
   20.4600    4.8737  -65.3963 H   0  0  0  1  0  0  0  0  0  0  0  0
   20.2517    3.8416  -64.0014 H   0  0  0  1  0  0  0  0  0  0  0  0
   23.8441    2.5484  -66.7473 H   0  0  0  1  0  0  0  0  0  0  0  0
   27.5935    3.5877  -56.6698 H   0  0  0  1  0  0  0  0  0  0  0  0
   26.1986    3.8300  -55.6460 H   0  0  0  1  0  0  0  0  0  0  0  0
   26.2961    4.6334  -57.1949 H   0  0  0  1  0  0  0  0  0  0  0  0
   23.3723    5.0724  -65.6889 H   0  0  0  1  0  0  0  0  0  0  0  0
   24.1835    4.7911  -64.1667 H   0  0  0  1  0  0  0  0  0  0  0  0
   21.8194    4.1411  -61.5681 H   0  0  0  1  0  0  0  0  0  0  0  0
   21.6380    5.5472  -59.6253 H   0  0  0  1  0  0  0  0  0  0  0  0
   21.8655    8.9184  -61.9162 H   0  0  0  1  0  0  0  0  0  0  0  0
   22.0661    7.6089  -63.9279 H   0  0  0  1  0  0  0  0  0  0  0  0
  1  3  4  0  0  0  0
  1 14  4  0  0  0  0
  1 21  1  0  0  0  0
  2 14  4  0  0  0  0
  2 15  4  0  0  0  0
  2 30  1  0  0  0  0
  3 16  4  0  0  0  0
  4  5  4  0  0  0  0
  4  7  4  0  0  0  0
  4 17  1  0  0  0  0
  5  9  4  0  0  0  0
  5 31  1  0  0  0  0
  6  7  4  0  0  0  0
  6  8  4  0  0  0  0
  6 32  1  0  0  0  0
  7 33  1  0  0  0  0
  8  9  4  0  0  0  0
  8 20  1  0  0  0  0
  9 34  1  0  0  0  0
 10 11  1  0  0  0  0
 10 21  1  0  0  0  0
 10 24  1  0  0  0  0
 10 35  1  0  0  0  0
 11 12  1  0  0  0  0
 11 36  1  0  0  0  0
 11 37  1  0  0  0  0
 12 23  1  0  0  0  0
 12 38  1  0  0  0  0
 12 39  1  0  0  0  0
 13 23  1  0  0  0  0
 13 25  4  0  0  0  0
 13 29  4  0  0  0  0
 15 16  4  0  0  0  0
 15 18  4  0  0  0  0
 16 17  4  0  0  0  0
 17 19  4  0  0  0  0
 18 19  4  0  0  0  0
 20 22  1  0  0  0  0
 21 40  1  0  0  0  0
 22 41  1  0  0  0  0
 22 42  1  0  0  0  0
 22 43  1  0  0  0  0
 23 24  1  0  0  0  0
 24 44  1  0  0  0  0
 24 45  1  0  0  0  0
 25 26  4  0  0  0  0
 25 46  1  0  0  0  0
 26 27  4  0  0  0  0
 26 47  1  0  0  0  0
 27 28  4  0  0  0  0
 28 29  4  0  0  0  0
 28 48  1  0  0  0  0
 29 49  1  0  0  0  0
M  END
> <ConfClashScore>
0 

> <ConfOneFourInteractionScore>
-0.986948 

> <ConfScore>
0.0802232 

> <ConfScorePBest>
0.00248699 

> <ConfTolerance>
0.455062 

> <HETNAM>
     OWQ A 303  OWQ                                                       

> <pdb_OW>
Q_303 -16.5129 3.80749 7.62812 0.15963 1.39178 -0.28144 -3.20151 0 0 0 -1.30514 0 0 0 0 0 0 0 0 -8.31393

$$$$
6yky_lig_1.pdb
 OpenBabel04162415593D

 49 53  0  0  0  0  0  0  0  0999 V2000
   25.1048    1.8135  -65.3760 C   0  0  0  1  0  0  0  0  0  0  0  0
   26.9167    0.5034  -65.9326 C   0  0  0  1  0  0  0  0  0  0  0  0
   25.4177    1.8283  -64.0982 N   0  0  0  1  0  0  0  0  0  0  0  0
   26.7286    1.4699  -61.1390 C   0  0  0  1  0  0  0  0  0  0  0  0
   25.5311    2.1310  -60.9411 C   0  0  0  1  0  0  0  0  0  0  0  0
   27.3274    1.8647  -58.8516 C   0  0  0  1  0  0  0  0  0  0  0  0
   27.6292    1.3388  -60.0935 C   0  0  0  1  0  0  0  0  0  0  0  0
   26.1264    2.5279  -58.6528 C   0  0  0  1  0  0  0  0  0  0  0  0
   25.2285    2.6584  -59.6954 C   0  0  0  1  0  0  0  0  0  0  0  0
   23.5799    2.6820  -67.1704 C   0  0  0  1  0  0  0  0  0  0  0  0
   22.4143    3.7046  -67.2702 C   0  0  0  1  0  0  0  0  0  0  0  0
   21.5960    3.3535  -68.5304 C   0  0  0  1  0  0  0  0  0  0  0  0
   21.6745    1.2394  -69.9853 C   0  0  0  1  0  0  0  0  0  0  0  0
   25.8296    1.1707  -66.2747 N   0  0  0  1  0  0  0  0  0  0  0  0
   27.2965    0.4858  -64.5856 C   0  0  0  1  0  0  0  0  0  0  0  0
   26.4936    1.1851  -63.6614 C   0  0  0  1  0  0  0  0  0  0  0  0
   27.0809    1.0061  -62.4395 N   0  0  0  1  0  0  0  0  0  0  0  0
   28.3159   -0.0766  -63.9004 N   0  0  0  1  0  0  0  0  0  0  0  0
   28.2164    0.2092  -62.6490 N   0  0  0  1  0  0  0  0  0  0  0  0
   25.9417    3.0092  -57.3852 O   0  0  0  1  0  0  0  0  0  0  0  0
   24.0074    2.4762  -65.7838 N   0  0  0  1  0  0  0  0  0  0  0  0
   24.6453    3.5974  -57.1957 C   0  0  0  1  0  0  0  0  0  0  0  0
   22.0306    1.9591  -68.8268 N   0  0  0  1  0  0  0  0  0  0  0  0
   22.8819    1.4349  -67.7463 C   0  0  0  1  0  0  0  0  0  0  0  0
   21.3853   -0.1108  -69.9151 C   0  0  0  1  0  0  0  0  0  0  0  0
   21.0368   -0.7771  -71.0745 C   0  0  0  1  0  0  0  0  0  0  0  0
   20.9663   -0.1838  -72.2701 N   0  0  0  1  0  0  0  0  0  0  0  0
   21.2534    1.1246  -72.3242 C   0  0  0  1  0  0  0  0  0  0  0  0
   21.6076    1.8693  -71.2127 C   0  0  0  1  0  0  0  0  0  0  0  0
   27.4789    0.0014  -66.6491 H   0  0  0  1  0  0  0  0  0  0  0  0
   24.8571    2.2328  -61.7266 H   0  0  0  1  0  0  0  0  0  0  0  0
   28.0013    1.7630  -58.0660 H   0  0  0  1  0  0  0  0  0  0  0  0
   28.5319    0.8448  -60.2436 H   0  0  0  1  0  0  0  0  0  0  0  0
   24.3257    3.1525  -59.5453 H   0  0  0  1  0  0  0  0  0  0  0  0
   24.4204    2.9773  -67.7631 H   0  0  0  1  0  0  0  0  0  0  0  0
   21.7937    3.6369  -66.4012 H   0  0  0  1  0  0  0  0  0  0  0  0
   22.8053    4.6971  -67.3534 H   0  0  0  1  0  0  0  0  0  0  0  0
   21.8335    4.0116  -69.3400 H   0  0  0  1  0  0  0  0  0  0  0  0
   20.5454    3.3960  -68.3321 H   0  0  0  1  0  0  0  0  0  0  0  0
   23.4376    2.8591  -65.0844 H   0  0  0  1  0  0  0  0  0  0  0  0
   23.9002    2.8295  -57.2029 H   0  0  0  1  0  0  0  0  0  0  0  0
   24.4497    4.2912  -57.9865 H   0  0  0  1  0  0  0  0  0  0  0  0
   24.6201    4.1097  -56.2567 H   0  0  0  1  0  0  0  0  0  0  0  0
   23.6010    0.7431  -68.1326 H   0  0  0  1  0  0  0  0  0  0  0  0
   22.2892    0.9528  -66.9972 H   0  0  0  1  0  0  0  0  0  0  0  0
   21.4293   -0.6156  -69.0068 H   0  0  0  1  0  0  0  0  0  0  0  0
   20.8182   -1.7920  -71.0137 H   0  0  0  1  0  0  0  0  0  0  0  0
   21.2078    1.6034  -73.2464 H   0  0  0  1  0  0  0  0  0  0  0  0
   21.8193    2.8837  -71.3000 H   0  0  0  1  0  0  0  0  0  0  0  0
  1  3  4  0  0  0  0
  1 14  4  0  0  0  0
  1 21  1  0  0  0  0
  2 14  4  0  0  0  0
  2 15  4  0  0  0  0
  2 30  1  0  0  0  0
  3 16  4  0  0  0  0
  4  5  4  0  0  0  0
  4  7  4  0  0  0  0
  4 17  1  0  0  0  0
  5  9  4  0  0  0  0
  5 31  1  0  0  0  0
  6  7  4  0  0  0  0
  6  8  4  0  0  0  0
  6 32  1  0  0  0  0
  7 33  1  0  0  0  0
  8  9  4  0  0  0  0
  8 20  1  0  0  0  0
  9 34  1  0  0  0  0
 10 11  1  0  0  0  0
 10 21  1  0  0  0  0
 10 24  1  0  0  0  0
 10 35  1  0  0  0  0
 11 12  1  0  0  0  0
 11 36  1  0  0  0  0
 11 37  1  0  0  0  0
 12 23  1  0  0  0  0
 12 38  1  0  0  0  0
 12 39  1  0  0  0  0
 13 23  1  0  0  0  0
 13 25  4  0  0  0  0
 13 29  4  0  0  0  0
 15 16  4  0  0  0  0
 15 18  4  0  0  0  0
 16 17  4  0  0  0  0
 17 19  4  0  0  0  0
 18 19  4  0  0  0  0
 20 22  1  0  0  0  0
 21 40  1  0  0  0  0
 22 41  1  0  0  0  0
 22 42  1  0  0  0  0
 22 43  1  0  0  0  0
 23 24  1  0  0  0  0
 24 44  1  0  0  0  0
 24 45  1  0  0  0  0
 25 26  4  0  0  0  0
 25 46  1  0  0  0  0
 26 27  4  0  0  0  0
 26 47  1  0  0  0  0
 27 28  4  0  0  0  0
 28 29  4  0  0  0  0
 28 48  1  0  0  0  0
 29 49  1  0  0  0  0
M  END
> <ConfClashScore>
0 

> <ConfOneFourInteractionScore>
-0.984874 

> <ConfScore>
0.0820729 

> <ConfScorePBest>
0.00247367 

> <ConfTolerance>
0.527233 

> <HETNAM>
     OWQ A 303  OWQ                                                       

> <pdb_OW>
Q_303 -16.5129 3.80749 7.62812 0.15963 1.39178 -0.28144 -3.20151 0 0 0 -1.30514 0 0 0 0 0 0 0 0 -8.31393

$$$$
6yky_lig_1.pdb
 OpenBabel04162415593D

 49 53  0  0  0  0  0  0  0  0999 V2000
   25.1047    1.8134  -65.3759 C   0  0  0  1  0  0  0  0  0  0  0  0
   26.9167    0.5034  -65.9326 C   0  0  0  1  0  0  0  0  0  0  0  0
   25.4177    1.8283  -64.0982 N   0  0  0  1  0  0  0  0  0  0  0  0
   26.8385    1.5661  -61.1519 C   0  0  0  1  0  0  0  0  0  0  0  0
   27.7984    2.3570  -60.5493 C   0  0  0  1  0  0  0  0  0  0  0  0
   25.4793    1.7114  -59.1823 C   0  0  0  1  0  0  0  0  0  0  0  0
   25.6783    1.2405  -60.4665 C   0  0  0  1  0  0  0  0  0  0  0  0
   26.4422    2.5047  -58.5779 C   0  0  0  1  0  0  0  0  0  0  0  0
   27.5987    2.8291  -59.2614 C   0  0  0  1  0  0  0  0  0  0  0  0
   23.5285    2.6128  -67.1069 C   0  0  0  1  0  0  0  0  0  0  0  0
   23.5196    4.0883  -67.5648 C   0  0  0  1  0  0  0  0  0  0  0  0
   22.2620    4.3070  -68.3676 C   0  0  0  1  0  0  0  0  0  0  0  0
   20.1212    2.8419  -68.4318 C   0  0  0  1  0  0  0  0  0  0  0  0
   25.8296    1.1706  -66.2748 N   0  0  0  1  0  0  0  0  0  0  0  0
   27.2964    0.4857  -64.5857 C   0  0  0  1  0  0  0  0  0  0  0  0
   26.4936    1.1851  -63.6614 C   0  0  0  1  0  0  0  0  0  0  0  0
   27.0809    1.0060  -62.4394 N   0  0  0  1  0  0  0  0  0  0  0  0
   28.3159   -0.0766  -63.9004 N   0  0  0  1  0  0  0  0  0  0  0  0
   28.2164    0.2092  -62.6490 N   0  0  0  1  0  0  0  0  0  0  0  0
   26.1398    2.9015  -57.3189 O   0  0  0  1  0  0  0  0  0  0  0  0
   23.9949    2.4927  -65.7365 N   0  0  0  1  0  0  0  0  0  0  0  0
   27.1260    3.6777  -56.6209 C   0  0  0  1  0  0  0  0  0  0  0  0
   21.4415    3.0552  -67.9868 N   0  0  0  1  0  0  0  0  0  0  0  0
   22.0693    2.2186  -67.2241 C   0  0  0  1  0  0  0  0  0  0  0  0
   19.4441    3.7370  -69.2391 C   0  0  0  1  0  0  0  0  0  0  0  0
   18.1520    3.4367  -69.6268 C   0  0  0  1  0  0  0  0  0  0  0  0
   17.5150    2.3209  -69.2587 N   0  0  0  1  0  0  0  0  0  0  0  0
   18.1820    1.4640  -68.4724 C   0  0  0  1  0  0  0  0  0  0  0  0
   19.4784    1.6837  -68.0408 C   0  0  0  1  0  0  0  0  0  0  0  0
   27.4789    0.0014  -66.6492 H   0  0  0  1  0  0  0  0  0  0  0  0
   28.6706    2.5978  -61.0622 H   0  0  0  1  0  0  0  0  0  0  0  0
   24.6072    1.4705  -58.6695 H   0  0  0  1  0  0  0  0  0  0  0  0
   24.9578    0.6420  -60.9185 H   0  0  0  1  0  0  0  0  0  0  0  0
   28.3193    3.4276  -58.8095 H   0  0  0  1  0  0  0  0  0  0  0  0
   24.1423    2.0141  -67.7469 H   0  0  0  1  0  0  0  0  0  0  0  0
   23.5257    4.7351  -66.7125 H   0  0  0  1  0  0  0  0  0  0  0  0
   24.3787    4.2877  -68.1707 H   0  0  0  1  0  0  0  0  0  0  0  0
   22.4672    4.3367  -69.4173 H   0  0  0  1  0  0  0  0  0  0  0  0
   21.7623    5.2070  -68.0758 H   0  0  0  1  0  0  0  0  0  0  0  0
   23.4732    2.9307  -65.0320 H   0  0  0  1  0  0  0  0  0  0  0  0
   27.7624    3.0256  -56.0600 H   0  0  0  1  0  0  0  0  0  0  0  0
   26.6380    4.3587  -55.9553 H   0  0  0  1  0  0  0  0  0  0  0  0
   27.7124    4.2273  -57.3272 H   0  0  0  1  0  0  0  0  0  0  0  0
   21.6227    2.2227  -66.2517 H   0  0  0  1  0  0  0  0  0  0  0  0
   22.0009    1.2369  -67.6443 H   0  0  0  1  0  0  0  0  0  0  0  0
   19.8984    4.6199  -69.5487 H   0  0  0  1  0  0  0  0  0  0  0  0
   17.6498    4.1134  -70.2360 H   0  0  0  1  0  0  0  0  0  0  0  0
   17.7017    0.5917  -68.1723 H   0  0  0  1  0  0  0  0  0  0  0  0
   19.9595    0.9897  -67.4336 H   0  0  0  1  0  0  0  0  0  0  0  0
  1  3  4  0  0  0  0
  1 14  4  0  0  0  0
  1 21  1  0  0  0  0
  2 14  4  0  0  0  0
  2 15  4  0  0  0  0
  2 30  1  0  0  0  0
  3 16  4  0  0  0  0
  4  5  4  0  0  0  0
  4  7  4  0  0  0  0
  4 17  1  0  0  0  0
  5  9  4  0  0  0  0
  5 31  1  0  0  0  0
  6  7  4  0  0  0  0
  6  8  4  0  0  0  0
  6 32  1  0  0  0  0
  7 33  1  0  0  0  0
  8  9  4  0  0  0  0
  8 20  1  0  0  0  0
  9 34  1  0  0  0  0
 10 11  1  0  0  0  0
 10 21  1  0  0  0  0
 10 24  1  0  0  0  0
 10 35  1  0  0  0  0
 11 12  1  0  0  0  0
 11 36  1  0  0  0  0
 11 37  1  0  0  0  0
 12 23  1  0  0  0  0
 12 38  1  0  0  0  0
 12 39  1  0  0  0  0
 13 23  1  0  0  0  0
 13 25  4  0  0  0  0
 13 29  4  0  0  0  0
 15 16  4  0  0  0  0
 15 18  4  0  0  0  0
 16 17  4  0  0  0  0
 17 19  4  0  0  0  0
 18 19  4  0  0  0  0
 20 22  1  0  0  0  0
 21 40  1  0  0  0  0
 22 41  1  0  0  0  0
 22 42  1  0  0  0  0
 22 43  1  0  0  0  0
 23 24  1  0  0  0  0
 24 44  1  0  0  0  0
 24 45  1  0  0  0  0
 25 26  4  0  0  0  0
 25 46  1  0  0  0  0
 26 27  4  0  0  0  0
 26 47  1  0  0  0  0
 27 28  4  0  0  0  0
 28 29  4  0  0  0  0
 28 48  1  0  0  0  0
 29 49  1  0  0  0  0
M  END
> <ConfClashScore>
0 

> <ConfOneFourInteractionScore>
-0.986948 

> <ConfScore>
0.0820767 

> <ConfScorePBest>
0.00246034 

> <ConfTolerance>
0.552343 

> <HETNAM>
     OWQ A 303  OWQ                                                       

> <pdb_OW>
Q_303 -16.5129 3.80749 7.62812 0.15963 1.39178 -0.28144 -3.20151 0 0 0 -1.30514 0 0 0 0 0 0 0 0 -8.31393

$$$$
6yky_lig_1.pdb
 OpenBabel04162415593D

 49 53  0  0  0  0  0  0  0  0999 V2000
   25.1048    1.8135  -65.3761 C   0  0  0  1  0  0  0  0  0  0  0  0
   26.9167    0.5034  -65.9326 C   0  0  0  1  0  0  0  0  0  0  0  0
   25.4178    1.8283  -64.0983 N   0  0  0  1  0  0  0  0  0  0  0  0
   26.6855    1.4949  -61.1609 C   0  0  0  1  0  0  0  0  0  0  0  0
   25.5148    1.0453  -60.5800 C   0  0  0  1  0  0  0  0  0  0  0  0
   27.0005    3.0279  -59.3448 C   0  0  0  1  0  0  0  0  0  0  0  0
   27.4281    2.4896  -60.5438 C   0  0  0  1  0  0  0  0  0  0  0  0
   25.8263    2.5770  -58.7620 C   0  0  0  1  0  0  0  0  0  0  0  0
   25.0861    1.5853  -59.3774 C   0  0  0  1  0  0  0  0  0  0  0  0
   23.4991    2.6271  -67.1979 C   0  0  0  1  0  0  0  0  0  0  0  0
   23.4251    1.2970  -67.9323 C   0  0  0  1  0  0  0  0  0  0  0  0
   23.4340    1.6862  -69.4119 C   0  0  0  1  0  0  0  0  0  0  0  0
   24.5288    3.6615  -70.5919 C   0  0  0  1  0  0  0  0  0  0  0  0
   25.8297    1.1707  -66.2748 N   0  0  0  1  0  0  0  0  0  0  0  0
   27.2964    0.4858  -64.5857 C   0  0  0  1  0  0  0  0  0  0  0  0
   26.4936    1.1852  -63.6615 C   0  0  0  1  0  0  0  0  0  0  0  0
   27.0809    1.0061  -62.4395 N   0  0  0  1  0  0  0  0  0  0  0  0
   28.3159   -0.0766  -63.9004 N   0  0  0  1  0  0  0  0  0  0  0  0
   28.2164    0.2092  -62.6490 N   0  0  0  1  0  0  0  0  0  0  0  0
   25.3587    3.1757  -57.6409 O   0  0  0  1  0  0  0  0  0  0  0  0
   24.0282    2.4517  -65.8444 N   0  0  0  1  0  0  0  0  0  0  0  0
   24.2269    2.5700  -56.9970 C   0  0  0  1  0  0  0  0  0  0  0  0
   24.1589    2.9665  -69.4167 N   0  0  0  1  0  0  0  0  0  0  0  0
   24.4536    3.4381  -68.0559 C   0  0  0  1  0  0  0  0  0  0  0  0
   25.2089    4.8628  -70.5157 C   0  0  0  1  0  0  0  0  0  0  0  0
   25.5545    5.5065  -71.6887 C   0  0  0  1  0  0  0  0  0  0  0  0
   25.2623    5.0292  -72.9025 N   0  0  0  1  0  0  0  0  0  0  0  0
   24.5987    3.8658  -72.9614 C   0  0  0  1  0  0  0  0  0  0  0  0
   24.2175    3.1532  -71.8379 C   0  0  0  1  0  0  0  0  0  0  0  0
   27.4790    0.0014  -66.6492 H   0  0  0  1  0  0  0  0  0  0  0  0
   24.9556    0.3018  -61.0449 H   0  0  0  1  0  0  0  0  0  0  0  0
   27.5597    3.7712  -58.8798 H   0  0  0  1  0  0  0  0  0  0  0  0
   28.3069    2.8307  -60.9830 H   0  0  0  1  0  0  0  0  0  0  0  0
   24.2072    1.2441  -58.9382 H   0  0  0  1  0  0  0  0  0  0  0  0
   22.5370    3.0926  -67.1476 H   0  0  0  1  0  0  0  0  0  0  0  0
   22.5250    0.7751  -67.6825 H   0  0  0  1  0  0  0  0  0  0  0  0
   24.2703    0.6851  -67.6955 H   0  0  0  1  0  0  0  0  0  0  0  0
   23.9465    0.9527  -69.9987 H   0  0  0  1  0  0  0  0  0  0  0  0
   22.4378    1.8078  -69.7829 H   0  0  0  1  0  0  0  0  0  0  0  0
   23.4904    2.8850  -65.1491 H   0  0  0  1  0  0  0  0  0  0  0  0
   24.4994    1.6017  -56.6321 H   0  0  0  1  0  0  0  0  0  0  0  0
   23.4261    2.4737  -57.7001 H   0  0  0  1  0  0  0  0  0  0  0  0
   23.9119    3.1835  -56.1788 H   0  0  0  1  0  0  0  0  0  0  0  0
   25.4712    3.2389  -67.7921 H   0  0  0  1  0  0  0  0  0  0  0  0
   24.2588    4.4861  -67.9618 H   0  0  0  1  0  0  0  0  0  0  0  0
   25.4559    5.2742  -69.5930 H   0  0  0  1  0  0  0  0  0  0  0  0
   26.0681    6.4085  -71.6237 H   0  0  0  1  0  0  0  0  0  0  0  0
   24.3588    3.4800  -73.8969 H   0  0  0  1  0  0  0  0  0  0  0  0
   23.7064    2.2522  -71.9301 H   0  0  0  1  0  0  0  0  0  0  0  0
  1  3  4  0  0  0  0
  1 14  4  0  0  0  0
  1 21  1  0  0  0  0
  2 14  4  0  0  0  0
  2 15  4  0  0  0  0
  2 30  1  0  0  0  0
  3 16  4  0  0  0  0
  4  5  4  0  0  0  0
  4  7  4  0  0  0  0
  4 17  1  0  0  0  0
  5  9  4  0  0  0  0
  5 31  1  0  0  0  0
  6  7  4  0  0  0  0
  6  8  4  0  0  0  0
  6 32  1  0  0  0  0
  7 33  1  0  0  0  0
  8  9  4  0  0  0  0
  8 20  1  0  0  0  0
  9 34  1  0  0  0  0
 10 11  1  0  0  0  0
 10 21  1  0  0  0  0
 10 24  1  0  0  0  0
 10 35  1  0  0  0  0
 11 12  1  0  0  0  0
 11 36  1  0  0  0  0
 11 37  1  0  0  0  0
 12 23  1  0  0  0  0
 12 38  1  0  0  0  0
 12 39  1  0  0  0  0
 13 23  1  0  0  0  0
 13 25  4  0  0  0  0
 13 29  4  0  0  0  0
 15 16  4  0  0  0  0
 15 18  4  0  0  0  0
 16 17  4  0  0  0  0
 17 19  4  0  0  0  0
 18 19  4  0  0  0  0
 20 22  1  0  0  0  0
 21 40  1  0  0  0  0
 22 41  1  0  0  0  0
 22 42  1  0  0  0  0
 22 43  1  0  0  0  0
 23 24  1  0  0  0  0
 24 44  1  0  0  0  0
 24 45  1  0  0  0  0
 25 26  4  0  0  0  0
 25 46  1  0  0  0  0
 26 27  4  0  0  0  0
 26 47  1  0  0  0  0
 27 28  4  0  0  0  0
 28 29  4  0  0  0  0
 28 48  1  0  0  0  0
 29 49  1  0  0  0  0
M  END
> <ConfClashScore>
0 

> <ConfOneFourInteractionScore>
-0.983503 

> <ConfScore>
0.0821408 

> <ConfScorePBest>
0.00244701 

> <ConfTolerance>
0.461916 

> <HETNAM>
     OWQ A 303  OWQ                                                       

> <pdb_OW>
Q_303 -16.5129 3.80749 7.62812 0.15963 1.39178 -0.28144 -3.20151 0 0 0 -1.30514 0 0 0 0 0 0 0 0 -8.31393

$$$$
6yky_lig_1.pdb
 OpenBabel04162415593D

 49 53  0  0  0  0  0  0  0  0999 V2000
   25.1048    1.8134  -65.3759 C   0  0  0  1  0  0  0  0  0  0  0  0
   26.9167    0.5034  -65.9326 C   0  0  0  1  0  0  0  0  0  0  0  0
   25.4178    1.8283  -64.0982 N   0  0  0  1  0  0  0  0  0  0  0  0
   26.7670    1.4473  -61.1216 C   0  0  0  1  0  0  0  0  0  0  0  0
   26.2831    0.5499  -60.1883 C   0  0  0  1  0  0  0  0  0  0  0  0
   26.4732    3.2382  -59.5551 C   0  0  0  1  0  0  0  0  0  0  0  0
   26.8596    2.7939  -60.8055 C   0  0  0  1  0  0  0  0  0  0  0  0
   25.9879    2.3383  -58.6189 C   0  0  0  1  0  0  0  0  0  0  0  0
   25.8957    0.9958  -58.9343 C   0  0  0  1  0  0  0  0  0  0  0  0
   23.0723    3.0934  -64.8440 C   0  0  0  1  0  0  0  0  0  0  0  0
   21.6348    3.0980  -65.3882 C   0  0  0  1  0  0  0  0  0  0  0  0
   21.0020    4.2462  -64.5868 C   0  0  0  1  0  0  0  0  0  0  0  0
   22.0822    5.7295  -62.7899 C   0  0  0  1  0  0  0  0  0  0  0  0
   25.8296    1.1707  -66.2747 N   0  0  0  1  0  0  0  0  0  0  0  0
   27.2965    0.4857  -64.5857 C   0  0  0  1  0  0  0  0  0  0  0  0
   26.4936    1.1851  -63.6614 C   0  0  0  1  0  0  0  0  0  0  0  0
   27.0809    1.0061  -62.4395 N   0  0  0  1  0  0  0  0  0  0  0  0
   28.3159   -0.0766  -63.9004 N   0  0  0  1  0  0  0  0  0  0  0  0
   28.2164    0.2092  -62.6490 N   0  0  0  1  0  0  0  0  0  0  0  0
   25.6361    2.8896  -57.4332 O   0  0  0  1  0  0  0  0  0  0  0  0
   23.9920    2.4855  -65.7895 N   0  0  0  1  0  0  0  0  0  0  0  0
   25.1504    2.0011  -56.4148 C   0  0  0  1  0  0  0  0  0  0  0  0
   22.1446    4.9293  -63.9093 N   0  0  0  1  0  0  0  0  0  0  0  0
   23.3527    4.5763  -64.6779 C   0  0  0  1  0  0  0  0  0  0  0  0
   21.8437    7.0726  -63.0158 C   0  0  0  1  0  0  0  0  0  0  0  0
   21.7663    7.9254  -61.9313 C   0  0  0  1  0  0  0  0  0  0  0  0
   21.9134    7.5206  -60.6660 N   0  0  0  1  0  0  0  0  0  0  0  0
   22.1485    6.2166  -60.4619 C   0  0  0  1  0  0  0  0  0  0  0  0
   22.2378    5.2930  -61.4887 C   0  0  0  1  0  0  0  0  0  0  0  0
   27.4789    0.0013  -66.6492 H   0  0  0  1  0  0  0  0  0  0  0  0
   26.2099   -0.4596  -60.4269 H   0  0  0  1  0  0  0  0  0  0  0  0
   26.5464    4.2479  -59.3166 H   0  0  0  1  0  0  0  0  0  0  0  0
   27.2200    3.4695  -61.5091 H   0  0  0  1  0  0  0  0  0  0  0  0
   25.5353    0.3200  -58.2307 H   0  0  0  1  0  0  0  0  0  0  0  0
   23.1315    2.5795  -63.9073 H   0  0  0  1  0  0  0  0  0  0  0  0
   21.1414    2.1686  -65.1937 H   0  0  0  1  0  0  0  0  0  0  0  0
   21.6162    3.2992  -66.4389 H   0  0  0  1  0  0  0  0  0  0  0  0
   20.3124    3.8632  -63.8639 H   0  0  0  1  0  0  0  0  0  0  0  0
   20.4943    4.9241  -65.2406 H   0  0  0  1  0  0  0  0  0  0  0  0
   23.8084    2.5600  -66.7493 H   0  0  0  1  0  0  0  0  0  0  0  0
   24.7039    2.5709  -55.6269 H   0  0  0  1  0  0  0  0  0  0  0  0
   25.9651    1.4286  -56.0231 H   0  0  0  1  0  0  0  0  0  0  0  0
   24.4203    1.3418  -56.8357 H   0  0  0  1  0  0  0  0  0  0  0  0
   23.3993    5.0875  -65.6167 H   0  0  0  1  0  0  0  0  0  0  0  0
   24.2513    4.7593  -64.1266 H   0  0  0  1  0  0  0  0  0  0  0  0
   21.7248    7.4340  -63.9836 H   0  0  0  1  0  0  0  0  0  0  0  0
   21.5841    8.9338  -62.1086 H   0  0  0  1  0  0  0  0  0  0  0  0
   22.2697    5.8828  -59.4845 H   0  0  0  1  0  0  0  0  0  0  0  0
   22.4187    4.2894  -61.2845 H   0  0  0  1  0  0  0  0  0  0  0  0
  1  3  4  0  0  0  0
  1 14  4  0  0  0  0
  1 21  1  0  0  0  0
  2 14  4  0  0  0  0
  2 15  4  0  0  0  0
  2 30  1  0  0  0  0
  3 16  4  0  0  0  0
  4  5  4  0  0  0  0
  4  7  4  0  0  0  0
  4 17  1  0  0  0  0
  5  9  4  0  0  0  0
  5 31  1  0  0  0  0
  6  7  4  0  0  0  0
  6  8  4  0  0  0  0
  6 32  1  0  0  0  0
  7 33  1  0  0  0  0
  8  9  4  0  0  0  0
  8 20  1  0  0  0  0
  9 34  1  0  0  0  0
 10 11  1  0  0  0  0
 10 21  1  0  0  0  0
 10 24  1  0  0  0  0
 10 35  1  0  0  0  0
 11 12  1  0  0  0  0
 11 36  1  0  0  0  0
 11 37  1  0  0  0  0
 12 23  1  0  0  0  0
 12 38  1  0  0  0  0
 12 39  1  0  0  0  0
 13 23  1  0  0  0  0
 13 25  4  0  0  0  0
 13 29  4  0  0  0  0
 15 16  4  0  0  0  0
 15 18  4  0  0  0  0
 16 17  4  0  0  0  0
 17 19  4  0  0  0  0
 18 19  4  0  0  0  0
 20 22  1  0  0  0  0
 21 40  1  0  0  0  0
 22 41  1  0  0  0  0
 22 42  1  0  0  0  0
 22 43  1  0  0  0  0
 23 24  1  0  0  0  0
 24 44  1  0  0  0  0
 24 45  1  0  0  0  0
 25 26  4  0  0  0  0
 25 46  1  0  0  0  0
 26 27  4  0  0  0  0
 26 47  1  0  0  0  0
 27 28  4  0  0  0  0
 28 29  4  0  0  0  0
 28 48  1  0  0  0  0
 29 49  1  0  0  0  0
M  END
> <ConfClashScore>
0 

> <ConfOneFourInteractionScore>
-0.986948 

> <ConfScore>
0.0825376 

> <ConfScorePBest>
0.00243368 

> <ConfTolerance>
0.525662 

> <HETNAM>
     OWQ A 303  OWQ                                                       

> <pdb_OW>
Q_303 -16.5129 3.80749 7.62812 0.15963 1.39178 -0.28144 -3.20151 0 0 0 -1.30514 0 0 0 0 0 0 0 0 -8.31393

$$$$
6yky_lig_1.pdb
 OpenBabel04162415593D

 49 53  0  0  0  0  0  0  0  0999 V2000
   25.1047    1.8134  -65.3760 C   0  0  0  1  0  0  0  0  0  0  0  0
   26.9167    0.5034  -65.9326 C   0  0  0  1  0  0  0  0  0  0  0  0
   25.4177    1.8281  -64.0982 N   0  0  0  1  0  0  0  0  0  0  0  0
   26.7285    1.4697  -61.1391 C   0  0  0  1  0  0  0  0  0  0  0  0
   25.4165    1.7968  -60.8530 C   0  0  0  1  0  0  0  0  0  0  0  0
   27.3914    2.2116  -58.9579 C   0  0  0  1  0  0  0  0  0  0  0  0
   27.7178    1.6798  -60.1912 C   0  0  0  1  0  0  0  0  0  0  0  0
   26.0755    2.5398  -58.6709 C   0  0  0  1  0  0  0  0  0  0  0  0
   25.0892    2.3303  -59.6162 C   0  0  0  1  0  0  0  0  0  0  0  0
   23.1492    3.1621  -64.7580 C   0  0  0  1  0  0  0  0  0  0  0  0
   22.0021    3.9382  -65.4423 C   0  0  0  1  0  0  0  0  0  0  0  0
   21.8486    5.2527  -64.7195 C   0  0  0  1  0  0  0  0  0  0  0  0
   23.5343    6.4069  -63.1505 C   0  0  0  1  0  0  0  0  0  0  0  0
   25.8297    1.1706  -66.2747 N   0  0  0  1  0  0  0  0  0  0  0  0
   27.2964    0.4857  -64.5857 C   0  0  0  1  0  0  0  0  0  0  0  0
   26.4936    1.1851  -63.6614 C   0  0  0  1  0  0  0  0  0  0  0  0
   27.0809    1.0060  -62.4395 N   0  0  0  1  0  0  0  0  0  0  0  0
   28.3159   -0.0766  -63.9004 N   0  0  0  1  0  0  0  0  0  0  0  0
   28.2164    0.2092  -62.6490 N   0  0  0  1  0  0  0  0  0  0  0  0
   25.8779    3.0574  -57.4352 O   0  0  0  1  0  0  0  0  0  0  0  0
   23.9887    2.4964  -65.7385 N   0  0  0  1  0  0  0  0  0  0  0  0
   24.5215    3.3205  -57.0433 C   0  0  0  1  0  0  0  0  0  0  0  0
   23.1710    5.3136  -63.9240 N   0  0  0  1  0  0  0  0  0  0  0  0
   23.9117    4.2583  -64.0401 C   0  0  0  1  0  0  0  0  0  0  0  0
   22.6321    7.4467  -63.0218 C   0  0  0  1  0  0  0  0  0  0  0  0
   22.9818    8.5386  -62.2506 C   0  0  0  1  0  0  0  0  0  0  0  0
   24.1550    8.6471  -61.6195 N   0  0  0  1  0  0  0  0  0  0  0  0
   25.0220    7.6337  -61.7565 C   0  0  0  1  0  0  0  0  0  0  0  0
   24.7523    6.5020  -62.5060 C   0  0  0  1  0  0  0  0  0  0  0  0
   27.4790    0.0014  -66.6492 H   0  0  0  1  0  0  0  0  0  0  0  0
   24.6749    1.6429  -61.5657 H   0  0  0  1  0  0  0  0  0  0  0  0
   28.1330    2.3656  -58.2453 H   0  0  0  1  0  0  0  0  0  0  0  0
   28.7057    1.4373  -60.4080 H   0  0  0  1  0  0  0  0  0  0  0  0
   24.1014    2.5727  -59.3994 H   0  0  0  1  0  0  0  0  0  0  0  0
   22.7678    2.4409  -64.0658 H   0  0  0  1  0  0  0  0  0  0  0  0
   22.2418    4.1128  -66.4704 H   0  0  0  1  0  0  0  0  0  0  0  0
   21.0928    3.3778  -65.3779 H   0  0  0  1  0  0  0  0  0  0  0  0
   20.9995    5.2452  -64.0684 H   0  0  0  1  0  0  0  0  0  0  0  0
   21.7657    6.0698  -65.4053 H   0  0  0  1  0  0  0  0  0  0  0  0
   23.7433    2.5413  -66.6863 H   0  0  0  1  0  0  0  0  0  0  0  0
   23.9868    2.3970  -56.9653 H   0  0  0  1  0  0  0  0  0  0  0  0
   24.0529    3.9429  -57.7767 H   0  0  0  1  0  0  0  0  0  0  0  0
   24.5144    3.8177  -56.0958 H   0  0  0  1  0  0  0  0  0  0  0  0
   24.1925    3.9145  -63.0666 H   0  0  0  1  0  0  0  0  0  0  0  0
   24.7903    4.5028  -64.5998 H   0  0  0  1  0  0  0  0  0  0  0  0
   21.7075    7.4076  -63.4966 H   0  0  0  1  0  0  0  0  0  0  0  0
   22.2972    9.3157  -62.1563 H   0  0  0  1  0  0  0  0  0  0  0  0
   25.9419    7.7014  -61.2762 H   0  0  0  1  0  0  0  0  0  0  0  0
   25.4534    5.7377  -62.5826 H   0  0  0  1  0  0  0  0  0  0  0  0
  1  3  4  0  0  0  0
  1 14  4  0  0  0  0
  1 21  1  0  0  0  0
  2 14  4  0  0  0  0
  2 15  4  0  0  0  0
  2 30  1  0  0  0  0
  3 16  4  0  0  0  0
  4  5  4  0  0  0  0
  4  7  4  0  0  0  0
  4 17  1  0  0  0  0
  5  9  4  0  0  0  0
  5 31  1  0  0  0  0
  6  7  4  0  0  0  0
  6  8  4  0  0  0  0
  6 32  1  0  0  0  0
  7 33  1  0  0  0  0
  8  9  4  0  0  0  0
  8 20  1  0  0  0  0
  9 34  1  0  0  0  0
 10 11  1  0  0  0  0
 10 21  1  0  0  0  0
 10 24  1  0  0  0  0
 10 35  1  0  0  0  0
 11 12  1  0  0  0  0
 11 36  1  0  0  0  0
 11 37  1  0  0  0  0
 12 23  1  0  0  0  0
 12 38  1  0  0  0  0
 12 39  1  0  0  0  0
 13 23  1  0  0  0  0
 13 25  4  0  0  0  0
 13 29  4  0  0  0  0
 15 16  4  0  0  0  0
 15 18  4  0  0  0  0
 16 17  4  0  0  0  0
 17 19  4  0  0  0  0
 18 19  4  0  0  0  0
 20 22  1  0  0  0  0
 21 40  1  0  0  0  0
 22 41  1  0  0  0  0
 22 42  1  0  0  0  0
 22 43  1  0  0  0  0
 23 24  1  0  0  0  0
 24 44  1  0  0  0  0
 24 45  1  0  0  0  0
 25 26  4  0  0  0  0
 25 46  1  0  0  0  0
 26 27  4  0  0  0  0
 26 47  1  0  0  0  0
 27 28  4  0  0  0  0
 28 29  4  0  0  0  0
 28 48  1  0  0  0  0
 29 49  1  0  0  0  0
M  END
> <ConfClashScore>
0 

> <ConfOneFourInteractionScore>
-0.984874 

> <ConfScore>
0.0833483 

> <ConfScorePBest>
0.00242035 

> <ConfTolerance>
0.548069 

> <HETNAM>
     OWQ A 303  OWQ                                                       

> <pdb_OW>
Q_303 -16.5129 3.80749 7.62812 0.15963 1.39178 -0.28144 -3.20151 0 0 0 -1.30514 0 0 0 0 0 0 0 0 -8.31393

$$$$
6yky_lig_1.pdb
 OpenBabel04162415593D

 49 53  0  0  0  0  0  0  0  0999 V2000
   25.1048    1.8135  -65.3760 C   0  0  0  1  0  0  0  0  0  0  0  0
   26.9167    0.5034  -65.9326 C   0  0  0  1  0  0  0  0  0  0  0  0
   25.4179    1.8285  -64.0983 N   0  0  0  1  0  0  0  0  0  0  0  0
   26.6878    1.3786  -61.1215 C   0  0  0  1  0  0  0  0  0  0  0  0
   26.0401    2.5803  -60.9062 C   0  0  0  1  0  0  0  0  0  0  0  0
   26.7349    0.9780  -58.7584 C   0  0  0  1  0  0  0  0  0  0  0  0
   27.0382    0.5773  -60.0460 C   0  0  0  1  0  0  0  0  0  0  0  0
   26.0854    2.1833  -58.5423 C   0  0  0  1  0  0  0  0  0  0  0  0
   25.7361    2.9820  -59.6148 C   0  0  0  1  0  0  0  0  0  0  0  0
   23.1277    3.2179  -64.8902 C   0  0  0  1  0  0  0  0  0  0  0  0
   22.7766    2.3861  -63.6660 C   0  0  0  1  0  0  0  0  0  0  0  0
   21.4833    3.0184  -63.1832 C   0  0  0  1  0  0  0  0  0  0  0  0
   19.4886    3.7443  -64.5383 C   0  0  0  1  0  0  0  0  0  0  0  0
   25.8297    1.1707  -66.2747 N   0  0  0  1  0  0  0  0  0  0  0  0
   27.2965    0.4857  -64.5857 C   0  0  0  1  0  0  0  0  0  0  0  0
   26.4937    1.1853  -63.6614 C   0  0  0  1  0  0  0  0  0  0  0  0
   27.0810    1.0061  -62.4395 N   0  0  0  1  0  0  0  0  0  0  0  0
   28.3159   -0.0766  -63.9004 N   0  0  0  1  0  0  0  0  0  0  0  0
   28.2164    0.2092  -62.6490 N   0  0  0  1  0  0  0  0  0  0  0  0
   25.7440    2.6785  -57.3367 O   0  0  0  1  0  0  0  0  0  0  0  0
   24.0076    2.4763  -65.7838 N   0  0  0  1  0  0  0  0  0  0  0  0
   26.2835    1.9584  -56.2041 C   0  0  0  1  0  0  0  0  0  0  0  0
   20.8316    3.4363  -64.4329 N   0  0  0  1  0  0  0  0  0  0  0  0
   21.7781    3.4881  -65.5582 C   0  0  0  1  0  0  0  0  0  0  0  0
   18.6383    3.1144  -65.4281 C   0  0  0  1  0  0  0  0  0  0  0  0
   17.3087    3.4899  -65.4563 C   0  0  0  1  0  0  0  0  0  0  0  0
   16.7961    4.4383  -64.6663 N   0  0  0  1  0  0  0  0  0  0  0  0
   17.6326    5.0436  -63.8114 C   0  0  0  1  0  0  0  0  0  0  0  0
   18.9765    4.7276  -63.7144 C   0  0  0  1  0  0  0  0  0  0  0  0
   27.4789    0.0013  -66.6492 H   0  0  0  1  0  0  0  0  0  0  0  0
   25.7808    3.1832  -61.7130 H   0  0  0  1  0  0  0  0  0  0  0  0
   26.9942    0.3751  -57.9516 H   0  0  0  1  0  0  0  0  0  0  0  0
   27.5291   -0.3250  -60.2078 H   0  0  0  1  0  0  0  0  0  0  0  0
   25.2452    3.8844  -59.4530 H   0  0  0  1  0  0  0  0  0  0  0  0
   23.5998    4.1344  -64.6037 H   0  0  0  1  0  0  0  0  0  0  0  0
   23.5409    2.4573  -62.9206 H   0  0  0  1  0  0  0  0  0  0  0  0
   22.6280    1.3594  -63.9284 H   0  0  0  1  0  0  0  0  0  0  0  0
   21.6792    3.8597  -62.5519 H   0  0  0  1  0  0  0  0  0  0  0  0
   20.8820    2.3080  -62.6552 H   0  0  0  1  0  0  0  0  0  0  0  0
   23.7869    2.4593  -66.7384 H   0  0  0  1  0  0  0  0  0  0  0  0
   27.3348    1.8133  -56.3408 H   0  0  0  1  0  0  0  0  0  0  0  0
   25.8001    1.0073  -56.1233 H   0  0  0  1  0  0  0  0  0  0  0  0
   26.1148    2.5218  -55.3102 H   0  0  0  1  0  0  0  0  0  0  0  0
   21.5520    2.7358  -66.2848 H   0  0  0  1  0  0  0  0  0  0  0  0
   21.7669    4.4507  -66.0253 H   0  0  0  1  0  0  0  0  0  0  0  0
   18.9928    2.3720  -66.0644 H   0  0  0  1  0  0  0  0  0  0  0  0
   16.6745    3.0100  -66.1264 H   0  0  0  1  0  0  0  0  0  0  0  0
   17.2533    5.7871  -63.1909 H   0  0  0  1  0  0  0  0  0  0  0  0
   19.5892    5.2210  -63.0342 H   0  0  0  1  0  0  0  0  0  0  0  0
  1  3  4  0  0  0  0
  1 14  4  0  0  0  0
  1 21  1  0  0  0  0
  2 14  4  0  0  0  0
  2 15  4  0  0  0  0
  2 30  1  0  0  0  0
  3 16  4  0  0  0  0
  4  5  4  0  0  0  0
  4  7  4  0  0  0  0
  4 17  1  0  0  0  0
  5  9  4  0  0  0  0
  5 31  1  0  0  0  0
  6  7  4  0  0  0  0
  6  8  4  0  0  0  0
  6 32  1  0  0  0  0
  7 33  1  0  0  0  0
  8  9  4  0  0  0  0
  8 20  1  0  0  0  0
  9 34  1  0  0  0  0
 10 11  1  0  0  0  0
 10 21  1  0  0  0  0
 10 24  1  0  0  0  0
 10 35  1  0  0  0  0
 11 12  1  0  0  0  0
 11 36  1  0  0  0  0
 11 37  1  0  0  0  0
 12 23  1  0  0  0  0
 12 38  1  0  0  0  0
 12 39  1  0  0  0  0
 13 23  1  0  0  0  0
 13 25  4  0  0  0  0
 13 29  4  0  0  0  0
 15 16  4  0  0  0  0
 15 18  4  0  0  0  0
 16 17  4  0  0  0  0
 17 19  4  0  0  0  0
 18 19  4  0  0  0  0
 20 22  1  0  0  0  0
 21 40  1  0  0  0  0
 22 41  1  0  0  0  0
 22 42  1  0  0  0  0
 22 43  1  0  0  0  0
 23 24  1  0  0  0  0
 24 44  1  0  0  0  0
 24 45  1  0  0  0  0
 25 26  4  0  0  0  0
 25 46  1  0  0  0  0
 26 27  4  0  0  0  0
 26 47  1  0  0  0  0
 27 28  4  0  0  0  0
 28 29  4  0  0  0  0
 28 48  1  0  0  0  0
 29 49  1  0  0  0  0
M  END
> <ConfClashScore>
0 

> <ConfOneFourInteractionScore>
-0.987833 

> <ConfScore>
0.0838303 

> <ConfScorePBest>
0.00240702 

> <ConfTolerance>
0.631899 

> <HETNAM>
     OWQ A 303  OWQ                                                       

> <pdb_OW>
Q_303 -16.5129 3.80749 7.62812 0.15963 1.39178 -0.28144 -3.20151 0 0 0 -1.30514 0 0 0 0 0 0 0 0 -8.31393

$$$$
6yky_lig_1.pdb
 OpenBabel04162415593D

 49 53  0  0  0  0  0  0  0  0999 V2000
   25.1047    1.8135  -65.3760 C   0  0  0  1  0  0  0  0  0  0  0  0
   26.9167    0.5034  -65.9326 C   0  0  0  1  0  0  0  0  0  0  0  0
   25.4178    1.8282  -64.0982 N   0  0  0  1  0  0  0  0  0  0  0  0
   26.7865    1.5430  -61.1529 C   0  0  0  1  0  0  0  0  0  0  0  0
   25.5456    1.2670  -60.6105 C   0  0  0  1  0  0  0  0  0  0  0  0
   27.2902    2.9592  -59.2852 C   0  0  0  1  0  0  0  0  0  0  0  0
   27.6591    2.3925  -60.4907 C   0  0  0  1  0  0  0  0  0  0  0  0
   26.0456    2.6824  -58.7411 C   0  0  0  1  0  0  0  0  0  0  0  0
   25.1757    1.8355  -59.4016 C   0  0  0  1  0  0  0  0  0  0  0  0
   23.6101    2.6552  -67.1315 C   0  0  0  1  0  0  0  0  0  0  0  0
   24.2336    3.9220  -67.7386 C   0  0  0  1  0  0  0  0  0  0  0  0
   23.2808    4.2079  -68.9096 C   0  0  0  1  0  0  0  0  0  0  0  0
   21.2168    2.8790  -69.6492 C   0  0  0  1  0  0  0  0  0  0  0  0
   25.8297    1.1706  -66.2748 N   0  0  0  1  0  0  0  0  0  0  0  0
   27.2964    0.4857  -64.5857 C   0  0  0  1  0  0  0  0  0  0  0  0
   26.4936    1.1852  -63.6614 C   0  0  0  1  0  0  0  0  0  0  0  0
   27.0809    1.0061  -62.4395 N   0  0  0  1  0  0  0  0  0  0  0  0
   28.3159   -0.0766  -63.9004 N   0  0  0  1  0  0  0  0  0  0  0  0
   28.2164    0.2092  -62.6490 N   0  0  0  1  0  0  0  0  0  0  0  0
   25.7944    3.2966  -57.5645 O   0  0  0  1  0  0  0  0  0  0  0  0
   23.9888    2.4966  -65.7385 N   0  0  0  1  0  0  0  0  0  0  0  0
   24.5829    2.9961  -56.8544 C   0  0  0  1  0  0  0  0  0  0  0  0
   22.1158    3.2968  -68.7002 N   0  0  0  1  0  0  0  0  0  0  0  0
   22.1243    2.9357  -67.2704 C   0  0  0  1  0  0  0  0  0  0  0  0
   21.3499    3.2726  -70.9678 C   0  0  0  1  0  0  0  0  0  0  0  0
   20.4246    2.8255  -71.8916 C   0  0  0  1  0  0  0  0  0  0  0  0
   19.3979    2.0295  -71.5773 N   0  0  0  1  0  0  0  0  0  0  0  0
   19.2785    1.6592  -70.2944 C   0  0  0  1  0  0  0  0  0  0  0  0
   20.1613    2.0570  -69.3056 C   0  0  0  1  0  0  0  0  0  0  0  0
   27.4789    0.0012  -66.6492 H   0  0  0  1  0  0  0  0  0  0  0  0
   24.8894    0.6328  -61.1094 H   0  0  0  1  0  0  0  0  0  0  0  0
   27.9463    3.5933  -58.7864 H   0  0  0  1  0  0  0  0  0  0  0  0
   28.5913    2.6033  -60.9008 H   0  0  0  1  0  0  0  0  0  0  0  0
   24.2436    1.6245  -58.9915 H   0  0  0  1  0  0  0  0  0  0  0  0
   23.8933    1.7814  -67.6804 H   0  0  0  1  0  0  0  0  0  0  0  0
   24.2403    4.7286  -67.0356 H   0  0  0  1  0  0  0  0  0  0  0  0
   25.2303    3.7397  -68.0825 H   0  0  0  1  0  0  0  0  0  0  0  0
   23.7595    3.9958  -69.8427 H   0  0  0  1  0  0  0  0  0  0  0  0
   22.9646    5.2300  -68.8945 H   0  0  0  1  0  0  0  0  0  0  0  0
   23.4243    2.8928  -65.0423 H   0  0  0  1  0  0  0  0  0  0  0  0
   24.5565    1.9528  -56.6186 H   0  0  0  1  0  0  0  0  0  0  0  0
   23.7406    3.2448  -57.4656 H   0  0  0  1  0  0  0  0  0  0  0  0
   24.5489    3.5668  -55.9500 H   0  0  0  1  0  0  0  0  0  0  0  0
   21.5280    2.0708  -67.0674 H   0  0  0  1  0  0  0  0  0  0  0  0
   21.8047    3.7441  -66.6465 H   0  0  0  1  0  0  0  0  0  0  0  0
   22.1318    3.8935  -71.2590 H   0  0  0  1  0  0  0  0  0  0  0  0
   20.5325    3.1236  -72.8821 H   0  0  0  1  0  0  0  0  0  0  0  0
   18.4838    1.0429  -70.0294 H   0  0  0  1  0  0  0  0  0  0  0  0
   20.0324    1.7430  -68.3225 H   0  0  0  1  0  0  0  0  0  0  0  0
  1  3  4  0  0  0  0
  1 14  4  0  0  0  0
  1 21  1  0  0  0  0
  2 14  4  0  0  0  0
  2 15  4  0  0  0  0
  2 30  1  0  0  0  0
  3 16  4  0  0  0  0
  4  5  4  0  0  0  0
  4  7  4  0  0  0  0
  4 17  1  0  0  0  0
  5  9  4  0  0  0  0
  5 31  1  0  0  0  0
  6  7  4  0  0  0  0
  6  8  4  0  0  0  0
  6 32  1  0  0  0  0
  7 33  1  0  0  0  0
  8  9  4  0  0  0  0
  8 20  1  0  0  0  0
  9 34  1  0  0  0  0
 10 11  1  0  0  0  0
 10 21  1  0  0  0  0
 10 24  1  0  0  0  0
 10 35  1  0  0  0  0
 11 12  1  0  0  0  0
 11 36  1  0  0  0  0
 11 37  1  0  0  0  0
 12 23  1  0  0  0  0
 12 38  1  0  0  0  0
 12 39  1  0  0  0  0
 13 23  1  0  0  0  0
 13 25  4  0  0  0  0
 13 29  4  0  0  0  0
 15 16  4  0  0  0  0
 15 18  4  0  0  0  0
 16 17  4  0  0  0  0
 17 19  4  0  0  0  0
 18 19  4  0  0  0  0
 20 22  1  0  0  0  0
 21 40  1  0  0  0  0
 22 41  1  0  0  0  0
 22 42  1  0  0  0  0
 22 43  1  0  0  0  0
 23 24  1  0  0  0  0
 24 44  1  0  0  0  0
 24 45  1  0  0  0  0
 25 26  4  0  0  0  0
 25 46  1  0  0  0  0
 26 27  4  0  0  0  0
 26 47  1  0  0  0  0
 27 28  4  0  0  0  0
 28 29  4  0  0  0  0
 28 48  1  0  0  0  0
 29 49  1  0  0  0  0
M  END
> <ConfClashScore>
0 

> <ConfOneFourInteractionScore>
-0.986948 

> <ConfScore>
0.084079 

> <ConfScorePBest>
0.0023937 

> <ConfTolerance>
0.375505 

> <HETNAM>
     OWQ A 303  OWQ                                                       

> <pdb_OW>
Q_303 -16.5129 3.80749 7.62812 0.15963 1.39178 -0.28144 -3.20151 0 0 0 -1.30514 0 0 0 0 0 0 0 0 -8.31393

$$$$
6yky_lig_1.pdb
 OpenBabel04162415593D

 49 53  0  0  0  0  0  0  0  0999 V2000
   25.1045    1.8133  -65.3759 C   0  0  0  1  0  0  0  0  0  0  0  0
   26.9167    0.5034  -65.9326 C   0  0  0  1  0  0  0  0  0  0  0  0
   25.4176    1.8280  -64.0981 N   0  0  0  1  0  0  0  0  0  0  0  0
   26.7668    1.4470  -61.1215 C   0  0  0  1  0  0  0  0  0  0  0  0
   27.7806    1.7834  -60.2444 C   0  0  0  1  0  0  0  0  0  0  0  0
   25.1484    1.7928  -59.3869 C   0  0  0  1  0  0  0  0  0  0  0  0
   25.4490    1.4491  -60.6915 C   0  0  0  1  0  0  0  0  0  0  0  0
   26.1651    2.1304  -58.5071 C   0  0  0  1  0  0  0  0  0  0  0  0
   27.4790    2.1282  -58.9361 C   0  0  0  1  0  0  0  0  0  0  0  0
   22.9705    2.9550  -64.8861 C   0  0  0  1  0  0  0  0  0  0  0  0
   23.5081    4.0341  -63.9058 C   0  0  0  1  0  0  0  0  0  0  0  0
   22.6493    3.9667  -62.6256 C   0  0  0  1  0  0  0  0  0  0  0  0
   21.0157    2.1776  -61.9040 C   0  0  0  1  0  0  0  0  0  0  0  0
   25.8295    1.1705  -66.2748 N   0  0  0  1  0  0  0  0  0  0  0  0
   27.2964    0.4857  -64.5857 C   0  0  0  1  0  0  0  0  0  0  0  0
   26.4935    1.1850  -63.6614 C   0  0  0  1  0  0  0  0  0  0  0  0
   27.0808    1.0059  -62.4395 N   0  0  0  1  0  0  0  0  0  0  0  0
   28.3159   -0.0766  -63.9004 N   0  0  0  1  0  0  0  0  0  0  0  0
   28.2164    0.2092  -62.6490 N   0  0  0  1  0  0  0  0  0  0  0  0
   25.8769    2.3684  -57.2056 O   0  0  0  1  0  0  0  0  0  0  0  0
   24.0072    2.4758  -65.7837 N   0  0  0  1  0  0  0  0  0  0  0  0
   26.9453    2.8476  -56.3739 C   0  0  0  1  0  0  0  0  0  0  0  0
   21.9936    2.6333  -62.7392 N   0  0  0  1  0  0  0  0  0  0  0  0
   22.5433    1.8741  -63.8743 C   0  0  0  1  0  0  0  0  0  0  0  0
   19.6834    2.4265  -62.1769 C   0  0  0  1  0  0  0  0  0  0  0  0
   18.7251    1.9432  -61.3064 C   0  0  0  1  0  0  0  0  0  0  0  0
   19.0180    1.2454  -60.2048 N   0  0  0  1  0  0  0  0  0  0  0  0
   20.3140    1.0152  -59.9502 C   0  0  0  1  0  0  0  0  0  0  0  0
   21.3375    1.4587  -60.7694 C   0  0  0  1  0  0  0  0  0  0  0  0
   27.4789    0.0015  -66.6492 H   0  0  0  1  0  0  0  0  0  0  0  0
   28.7696    1.7779  -60.5661 H   0  0  0  1  0  0  0  0  0  0  0  0
   24.1594    1.7983  -59.0654 H   0  0  0  1  0  0  0  0  0  0  0  0
   24.6865    1.1920  -61.3505 H   0  0  0  1  0  0  0  0  0  0  0  0
   28.2415    2.3853  -58.2772 H   0  0  0  1  0  0  0  0  0  0  0  0
   22.1410    3.3149  -65.4582 H   0  0  0  1  0  0  0  0  0  0  0  0
   24.5324    3.8348  -63.6693 H   0  0  0  1  0  0  0  0  0  0  0  0
   23.4263    5.0042  -64.3498 H   0  0  0  1  0  0  0  0  0  0  0  0
   21.9236    4.7528  -62.6064 H   0  0  0  1  0  0  0  0  0  0  0  0
   23.2597    4.0227  -61.7485 H   0  0  0  1  0  0  0  0  0  0  0  0
   23.9008    2.6452  -66.7431 H   0  0  0  1  0  0  0  0  0  0  0  0
   26.5510    3.1549  -55.4279 H   0  0  0  1  0  0  0  0  0  0  0  0
   27.4210    3.6798  -56.8492 H   0  0  0  1  0  0  0  0  0  0  0  0
   27.6595    2.0649  -56.2252 H   0  0  0  1  0  0  0  0  0  0  0  0
   21.7985    1.2328  -64.2973 H   0  0  0  1  0  0  0  0  0  0  0  0
   23.3851    1.2896  -63.5668 H   0  0  0  1  0  0  0  0  0  0  0  0
   19.4075    2.9672  -63.0214 H   0  0  0  1  0  0  0  0  0  0  0  0
   17.7248    2.1320  -61.5194 H   0  0  0  1  0  0  0  0  0  0  0  0
   20.5622    0.4771  -59.0956 H   0  0  0  1  0  0  0  0  0  0  0  0
   22.3300    1.2545  -60.5351 H   0  0  0  1  0  0  0  0  0  0  0  0
  1  3  4  0  0  0  0
  1 14  4  0  0  0  0
  1 21  1  0  0  0  0
  2 14  4  0  0  0  0
  2 15  4  0  0  0  0
  2 30  1  0  0  0  0
  3 16  4  0  0  0  0
  4  5  4  0  0  0  0
  4  7  4  0  0  0  0
  4 17  1  0  0  0  0
  5  9  4  0  0  0  0
  5 31  1  0  0  0  0
  6  7  4  0  0  0  0
  6  8  4  0  0  0  0
  6 32  1  0  0  0  0
  7 33  1  0  0  0  0
  8  9  4  0  0  0  0
  8 20  1  0  0  0  0
  9 34  1  0  0  0  0
 10 11  1  0  0  0  0
 10 21  1  0  0  0  0
 10 24  1  0  0  0  0
 10 35  1  0  0  0  0
 11 12  1  0  0  0  0
 11 36  1  0  0  0  0
 11 37  1  0  0  0  0
 12 23  1  0  0  0  0
 12 38  1  0  0  0  0
 12 39  1  0  0  0  0
 13 23  1  0  0  0  0
 13 25  4  0  0  0  0
 13 29  4  0  0  0  0
 15 16  4  0  0  0  0
 15 18  4  0  0  0  0
 16 17  4  0  0  0  0
 17 19  4  0  0  0  0
 18 19  4  0  0  0  0
 20 22  1  0  0  0  0
 21 40  1  0  0  0  0
 22 41  1  0  0  0  0
 22 42  1  0  0  0  0
 22 43  1  0  0  0  0
 23 24  1  0  0  0  0
 24 44  1  0  0  0  0
 24 45  1  0  0  0  0
 25 26  4  0  0  0  0
 25 46  1  0  0  0  0
 26 27  4  0  0  0  0
 26 47  1  0  0  0  0
 27 28  4  0  0  0  0
 28 29  4  0  0  0  0
 28 48  1  0  0  0  0
 29 49  1  0  0  0  0
M  END
> <ConfClashScore>
0 

> <ConfOneFourInteractionScore>
-0.983503 

> <ConfScore>
0.0842617 

> <ConfScorePBest>
0.00238037 

> <ConfTolerance>
0.473463 

> <HETNAM>
     OWQ A 303  OWQ                                                       

> <pdb_OW>
Q_303 -16.5129 3.80749 7.62812 0.15963 1.39178 -0.28144 -3.20151 0 0 0 -1.30514 0 0 0 0 0 0 0 0 -8.31393

$$$$
6yky_lig_1.pdb
 OpenBabel04162415593D

 49 53  0  0  0  0  0  0  0  0999 V2000
   25.1048    1.8135  -65.3759 C   0  0  0  1  0  0  0  0  0  0  0  0
   26.9167    0.5034  -65.9326 C   0  0  0  1  0  0  0  0  0  0  0  0
   25.4178    1.8283  -64.0981 N   0  0  0  1  0  0  0  0  0  0  0  0
   26.7286    1.4698  -61.1391 C   0  0  0  1  0  0  0  0  0  0  0  0
   27.1550    0.7806  -60.0195 C   0  0  0  1  0  0  0  0  0  0  0  0
   25.4676    2.9579  -59.7453 C   0  0  0  1  0  0  0  0  0  0  0  0
   25.8815    2.5584  -61.0020 C   0  0  0  1  0  0  0  0  0  0  0  0
   25.8952    2.2668  -58.6223 C   0  0  0  1  0  0  0  0  0  0  0  0
   26.7397    1.1812  -58.7592 C   0  0  0  1  0  0  0  0  0  0  0  0
   23.6537    2.4416  -67.2699 C   0  0  0  1  0  0  0  0  0  0  0  0
   24.7918    3.0183  -68.1568 C   0  0  0  1  0  0  0  0  0  0  0  0
   24.1394    3.5984  -69.4291 C   0  0  0  1  0  0  0  0  0  0  0  0
   21.6922    4.0712  -69.8911 C   0  0  0  1  0  0  0  0  0  0  0  0
   25.8296    1.1707  -66.2747 N   0  0  0  1  0  0  0  0  0  0  0  0
   27.2965    0.4857  -64.5856 C   0  0  0  1  0  0  0  0  0  0  0  0
   26.4936    1.1851  -63.6613 C   0  0  0  1  0  0  0  0  0  0  0  0
   27.0809    1.0060  -62.4394 N   0  0  0  1  0  0  0  0  0  0  0  0
   28.3159   -0.0766  -63.9004 N   0  0  0  1  0  0  0  0  0  0  0  0
   28.2164    0.2092  -62.6490 N   0  0  0  1  0  0  0  0  0  0  0  0
   25.5599    2.7326  -57.4492 O   0  0  0  1  0  0  0  0  0  0  0  0
   24.0034    2.4663  -65.8550 N   0  0  0  1  0  0  0  0  0  0  0  0
   25.7988    1.8604  -56.2845 C   0  0  0  1  0  0  0  0  0  0  0  0
   22.7085    3.7302  -69.0342 N   0  0  0  1  0  0  0  0  0  0  0  0
   22.5321    3.4451  -67.6007 C   0  0  0  1  0  0  0  0  0  0  0  0
   21.2311    5.3746  -69.8739 C   0  0  0  1  0  0  0  0  0  0  0  0
   20.2107    5.7301  -70.7355 C   0  0  0  1  0  0  0  0  0  0  0  0
   19.6386    4.8756  -71.5891 N   0  0  0  1  0  0  0  0  0  0  0  0
   20.0926    3.6142  -71.5921 C   0  0  0  1  0  0  0  0  0  0  0  0
   21.1122    3.1739  -70.7663 C   0  0  0  1  0  0  0  0  0  0  0  0
   27.4789    0.0014  -66.6492 H   0  0  0  1  0  0  0  0  0  0  0  0
   27.7872   -0.0387  -60.1227 H   0  0  0  1  0  0  0  0  0  0  0  0
   24.8353    3.7772  -59.6421 H   0  0  0  1  0  0  0  0  0  0  0  0
   25.5575    3.0746  -61.8447 H   0  0  0  1  0  0  0  0  0  0  0  0
   27.0637    0.6651  -57.9164 H   0  0  0  1  0  0  0  0  0  0  0  0
   23.3926    1.4442  -67.5559 H   0  0  0  1  0  0  0  0  0  0  0  0
   25.3111    3.7901  -67.6283 H   0  0  0  1  0  0  0  0  0  0  0  0
   25.4787    2.2413  -68.4203 H   0  0  0  1  0  0  0  0  0  0  0  0
   24.2506    2.9310  -70.2580 H   0  0  0  1  0  0  0  0  0  0  0  0
   24.5598    4.5504  -69.6782 H   0  0  0  1  0  0  0  0  0  0  0  0
   23.4344    2.9637  -65.2312 H   0  0  0  1  0  0  0  0  0  0  0  0
   25.9163    0.8490  -56.6137 H   0  0  0  1  0  0  0  0  0  0  0  0
   24.9661    1.9230  -55.6155 H   0  0  0  1  0  0  0  0  0  0  0  0
   26.6875    2.1762  -55.7791 H   0  0  0  1  0  0  0  0  0  0  0  0
   21.5709    3.0132  -67.4161 H   0  0  0  1  0  0  0  0  0  0  0  0
   22.6398    4.3381  -67.0211 H   0  0  0  1  0  0  0  0  0  0  0  0
   21.6443    6.0743  -69.2249 H   0  0  0  1  0  0  0  0  0  0  0  0
   19.8707    6.7128  -70.7187 H   0  0  0  1  0  0  0  0  0  0  0  0
   19.6573    2.9334  -72.2468 H   0  0  0  1  0  0  0  0  0  0  0  0
   21.4355    2.1862  -70.8043 H   0  0  0  1  0  0  0  0  0  0  0  0
  1  3  4  0  0  0  0
  1 14  4  0  0  0  0
  1 21  1  0  0  0  0
  2 14  4  0  0  0  0
  2 15  4  0  0  0  0
  2 30  1  0  0  0  0
  3 16  4  0  0  0  0
  4  5  4  0  0  0  0
  4  7  4  0  0  0  0
  4 17  1  0  0  0  0
  5  9  4  0  0  0  0
  5 31  1  0  0  0  0
  6  7  4  0  0  0  0
  6  8  4  0  0  0  0
  6 32  1  0  0  0  0
  7 33  1  0  0  0  0
  8  9  4  0  0  0  0
  8 20  1  0  0  0  0
  9 34  1  0  0  0  0
 10 11  1  0  0  0  0
 10 21  1  0  0  0  0
 10 24  1  0  0  0  0
 10 35  1  0  0  0  0
 11 12  1  0  0  0  0
 11 36  1  0  0  0  0
 11 37  1  0  0  0  0
 12 23  1  0  0  0  0
 12 38  1  0  0  0  0
 12 39  1  0  0  0  0
 13 23  1  0  0  0  0
 13 25  4  0  0  0  0
 13 29  4  0  0  0  0
 15 16  4  0  0  0  0
 15 18  4  0  0  0  0
 16 17  4  0  0  0  0
 17 19  4  0  0  0  0
 18 19  4  0  0  0  0
 20 22  1  0  0  0  0
 21 40  1  0  0  0  0
 22 41  1  0  0  0  0
 22 42  1  0  0  0  0
 22 43  1  0  0  0  0
 23 24  1  0  0  0  0
 24 44  1  0  0  0  0
 24 45  1  0  0  0  0
 25 26  4  0  0  0  0
 25 46  1  0  0  0  0
 26 27  4  0  0  0  0
 26 47  1  0  0  0  0
 27 28  4  0  0  0  0
 28 29  4  0  0  0  0
 28 48  1  0  0  0  0
 29 49  1  0  0  0  0
M  END
> <ConfClashScore>
0 

> <ConfOneFourInteractionScore>
-0.987833 

> <ConfScore>
0.0935287 

> <ConfScorePBest>
0.00236704 

> <ConfTolerance>
0.528545 

> <HETNAM>
     OWQ A 303  OWQ                                                       

> <pdb_OW>
Q_303 -16.5129 3.80749 7.62812 0.15963 1.39178 -0.28144 -3.20151 0 0 0 -1.30514 0 0 0 0 0 0 0 0 -8.31393

$$$$
6yky_lig_1.pdb
 OpenBabel04162415593D

 49 53  0  0  0  0  0  0  0  0999 V2000
   25.1048    1.8134  -65.3760 C   0  0  0  1  0  0  0  0  0  0  0  0
   26.9167    0.5034  -65.9325 C   0  0  0  1  0  0  0  0  0  0  0  0
   25.4178    1.8282  -64.0982 N   0  0  0  1  0  0  0  0  0  0  0  0
   26.6875    1.3784  -61.1215 C   0  0  0  1  0  0  0  0  0  0  0  0
   25.3471    1.4378  -60.7902 C   0  0  0  1  0  0  0  0  0  0  0  0
   27.2637    2.2148  -58.9500 C   0  0  0  1  0  0  0  0  0  0  0  0
   27.6473    1.7699  -60.2011 C   0  0  0  1  0  0  0  0  0  0  0  0
   25.9193    2.2745  -58.6175 C   0  0  0  1  0  0  0  0  0  0  0  0
   24.9626    1.8840  -59.5354 C   0  0  0  1  0  0  0  0  0  0  0  0
   23.6423    2.5906  -67.1952 C   0  0  0  1  0  0  0  0  0  0  0  0
   24.8422    3.0347  -68.0179 C   0  0  0  1  0  0  0  0  0  0  0  0
   24.2030    3.6303  -69.2596 C   0  0  0  1  0  0  0  0  0  0  0  0
   22.2305    5.1621  -69.4094 C   0  0  0  1  0  0  0  0  0  0  0  0
   25.8296    1.1707  -66.2748 N   0  0  0  1  0  0  0  0  0  0  0  0
   27.2964    0.4857  -64.5857 C   0  0  0  1  0  0  0  0  0  0  0  0
   26.4935    1.1851  -63.6614 C   0  0  0  1  0  0  0  0  0  0  0  0
   27.0809    1.0061  -62.4395 N   0  0  0  1  0  0  0  0  0  0  0  0
   28.3159   -0.0766  -63.9004 N   0  0  0  1  0  0  0  0  0  0  0  0
   28.2164    0.2092  -62.6491 N   0  0  0  1  0  0  0  0  0  0  0  0
   25.5430    2.8047  -57.4296 O   0  0  0  1  0  0  0  0  0  0  0  0
   23.9918    2.4854  -65.7895 N   0  0  0  1  0  0  0  0  0  0  0  0
   26.5658    2.9838  -56.4375 C   0  0  0  1  0  0  0  0  0  0  0  0
   22.9636    4.2272  -68.7413 N   0  0  0  1  0  0  0  0  0  0  0  0
   22.6078    3.6962  -67.4160 C   0  0  0  1  0  0  0  0  0  0  0  0
   22.8277    5.8380  -70.4573 C   0  0  0  1  0  0  0  0  0  0  0  0
   22.1239    6.8494  -71.0829 C   0  0  0  1  0  0  0  0  0  0  0  0
   20.8890    7.2149  -70.7259 N   0  0  0  1  0  0  0  0  0  0  0  0
   20.3238    6.5541  -69.7055 C   0  0  0  1  0  0  0  0  0  0  0  0
   20.9548    5.5268  -69.0259 C   0  0  0  1  0  0  0  0  0  0  0  0
   27.4789    0.0014  -66.6492 H   0  0  0  1  0  0  0  0  0  0  0  0
   24.6270    1.1478  -61.4822 H   0  0  0  1  0  0  0  0  0  0  0  0
   27.9838    2.5048  -58.2579 H   0  0  0  1  0  0  0  0  0  0  0  0
   28.6557    1.7290  -60.4519 H   0  0  0  1  0  0  0  0  0  0  0  0
   23.9541    1.9250  -59.2847 H   0  0  0  1  0  0  0  0  0  0  0  0
   23.2715    1.6490  -67.5425 H   0  0  0  1  0  0  0  0  0  0  0  0
   25.4183    3.7678  -67.4928 H   0  0  0  1  0  0  0  0  0  0  0  0
   25.4661    2.2022  -68.2683 H   0  0  0  1  0  0  0  0  0  0  0  0
   24.8344    4.3752  -69.6972 H   0  0  0  1  0  0  0  0  0  0  0  0
   23.9905    2.8719  -69.9839 H   0  0  0  1  0  0  0  0  0  0  0  0
   23.4134    2.9082  -65.1208 H   0  0  0  1  0  0  0  0  0  0  0  0
   26.1306    3.3776  -55.5428 H   0  0  0  1  0  0  0  0  0  0  0  0
   27.3035    3.6660  -56.8052 H   0  0  0  1  0  0  0  0  0  0  0  0
   27.0254    2.0411  -56.2252 H   0  0  0  1  0  0  0  0  0  0  0  0
   21.6147    3.2981  -67.4160 H   0  0  0  1  0  0  0  0  0  0  0  0
   22.6891    4.4535  -66.6645 H   0  0  0  1  0  0  0  0  0  0  0  0
   23.7884    5.5900  -70.7688 H   0  0  0  1  0  0  0  0  0  0  0  0
   22.5785    7.3518  -71.8720 H   0  0  0  1  0  0  0  0  0  0  0  0
   19.3645    6.8266  -69.4103 H   0  0  0  1  0  0  0  0  0  0  0  0
   20.4774    5.0387  -68.2413 H   0  0  0  1  0  0  0  0  0  0  0  0
  1  3  4  0  0  0  0
  1 14  4  0  0  0  0
  1 21  1  0  0  0  0
  2 14  4  0  0  0  0
  2 15  4  0  0  0  0
  2 30  1  0  0  0  0
  3 16  4  0  0  0  0
  4  5  4  0  0  0  0
  4  7  4  0  0  0  0
  4 17  1  0  0  0  0
  5  9  4  0  0  0  0
  5 31  1  0  0  0  0
  6  7  4  0  0  0  0
  6  8  4  0  0  0  0
  6 32  1  0  0  0  0
  7 33  1  0  0  0  0
  8  9  4  0  0  0  0
  8 20  1  0  0  0  0
  9 34  1  0  0  0  0
 10 11  1  0  0  0  0
 10 21  1  0  0  0  0
 10 24  1  0  0  0  0
 10 35  1  0  0  0  0
 11 12  1  0  0  0  0
 11 36  1  0  0  0  0
 11 37  1  0  0  0  0
 12 23  1  0  0  0  0
 12 38  1  0  0  0  0
 12 39  1  0  0  0  0
 13 23  1  0  0  0  0
 13 25  4  0  0  0  0
 13 29  4  0  0  0  0
 15 16  4  0  0  0  0
 15 18  4  0  0  0  0
 16 17  4  0  0  0  0
 17 19  4  0  0  0  0
 18 19  4  0  0  0  0
 20 22  1  0  0  0  0
 21 40  1  0  0  0  0
 22 41  1  0  0  0  0
 22 42  1  0  0  0  0
 22 43  1  0  0  0  0
 23 24  1  0  0  0  0
 24 44  1  0  0  0  0
 24 45  1  0  0  0  0
 25 26  4  0  0  0  0
 25 46  1  0  0  0  0
 26 27  4  0  0  0  0
 26 47  1  0  0  0  0
 27 28  4  0  0  0  0
 28 29  4  0  0  0  0
 28 48  1  0  0  0  0
 29 49  1  0  0  0  0
M  END
> <ConfClashScore>
0 

> <ConfOneFourInteractionScore>
-0.987833 

> <ConfScore>
0.0965281 

> <ConfScorePBest>
0.00235371 

> <ConfTolerance>
0.60024 

> <HETNAM>
     OWQ A 303  OWQ                                                       

> <pdb_OW>
Q_303 -16.5129 3.80749 7.62812 0.15963 1.39178 -0.28144 -3.20151 0 0 0 -1.30514 0 0 0 0 0 0 0 0 -8.31393

$$$$
6yky_lig_1.pdb
 OpenBabel04162415593D

 49 53  0  0  0  0  0  0  0  0999 V2000
   25.1047    1.8135  -65.3759 C   0  0  0  1  0  0  0  0  0  0  0  0
   26.9167    0.5034  -65.9326 C   0  0  0  1  0  0  0  0  0  0  0  0
   25.4178    1.8283  -64.0982 N   0  0  0  1  0  0  0  0  0  0  0  0
   26.7286    1.4699  -61.1390 C   0  0  0  1  0  0  0  0  0  0  0  0
   26.4604    2.8096  -60.9313 C   0  0  0  1  0  0  0  0  0  0  0  0
   26.4901    1.0556  -58.7899 C   0  0  0  1  0  0  0  0  0  0  0  0
   26.7461    0.5919  -60.0665 C   0  0  0  1  0  0  0  0  0  0  0  0
   26.2210    2.3993  -58.5813 C   0  0  0  1  0  0  0  0  0  0  0  0
   26.2037    3.2745  -59.6509 C   0  0  0  1  0  0  0  0  0  0  0  0
   23.5377    2.6014  -67.1596 C   0  0  0  1  0  0  0  0  0  0  0  0
   24.5979    2.9153  -67.9797 C   0  0  0  1  0  0  0  0  0  0  0  0
   24.3462    4.1804  -68.7056 C   0  0  0  1  0  0  0  0  0  0  0  0
   22.3459    5.7484  -68.6657 C   0  0  0  1  0  0  0  0  0  0  0  0
   25.8295    1.1707  -66.2747 N   0  0  0  1  0  0  0  0  0  0  0  0
   27.2964    0.4857  -64.5857 C   0  0  0  1  0  0  0  0  0  0  0  0
   26.4936    1.1852  -63.6614 C   0  0  0  1  0  0  0  0  0  0  0  0
   27.0809    1.0061  -62.4395 N   0  0  0  1  0  0  0  0  0  0  0  0
   28.3159   -0.0766  -63.9004 N   0  0  0  1  0  0  0  0  0  0  0  0
   28.2164    0.2092  -62.6490 N   0  0  0  1  0  0  0  0  0  0  0  0
   25.9913    2.7369  -57.2901 O   0  0  0  1  0  0  0  0  0  0  0  0
   24.0135    2.4725  -65.7814 N   0  0  0  1  0  0  0  0  0  0  0  0
   25.8152    4.1319  -56.9979 C   0  0  0  1  0  0  0  0  0  0  0  0
   23.0203    4.6013  -68.2215 N   0  0  0  1  0  0  0  0  0  0  0  0
   22.4976    3.6799  -67.2263 C   0  0  0  1  0  0  0  0  0  0  0  0
   21.3777    5.7725  -69.6525 C   0  0  0  1  0  0  0  0  0  0  0  0
   20.7956    6.9814  -69.9831 C   0  0  0  1  0  0  0  0  0  0  0  0
   21.1219    8.1383  -69.3988 N   0  0  0  1  0  0  0  0  0  0  0  0
   22.0651    8.1011  -68.4470 C   0  0  0  1  0  0  0  0  0  0  0  0
   22.6966    6.9348  -68.0514 C   0  0  0  1  0  0  0  0  0  0  0  0
   27.4789    0.0013  -66.6491 H   0  0  0  1  0  0  0  0  0  0  0  0
   26.4512    3.4690  -61.7355 H   0  0  0  1  0  0  0  0  0  0  0  0
   26.4992    0.3962  -57.9856 H   0  0  0  1  0  0  0  0  0  0  0  0
   26.9519   -0.4155  -60.2224 H   0  0  0  1  0  0  0  0  0  0  0  0
   25.9979    4.2820  -59.4951 H   0  0  0  1  0  0  0  0  0  0  0  0
   23.1072    1.6746  -67.4770 H   0  0  0  1  0  0  0  0  0  0  0  0
   25.4811    3.0222  -67.3852 H   0  0  0  1  0  0  0  0  0  0  0  0
   24.7380    2.1264  -68.6888 H   0  0  0  1  0  0  0  0  0  0  0  0
   24.3323    4.0174  -69.7630 H   0  0  0  1  0  0  0  0  0  0  0  0
   25.0896    4.9120  -68.4666 H   0  0  0  1  0  0  0  0  0  0  0  0
   23.4798    2.9125  -65.0871 H   0  0  0  1  0  0  0  0  0  0  0  0
   26.3335    4.7179  -57.7280 H   0  0  0  1  0  0  0  0  0  0  0  0
   26.2081    4.3448  -56.0257 H   0  0  0  1  0  0  0  0  0  0  0  0
   24.7729    4.3725  -57.0226 H   0  0  0  1  0  0  0  0  0  0  0  0
   21.5536    3.2811  -67.5343 H   0  0  0  1  0  0  0  0  0  0  0  0
   22.3886    4.1640  -66.2784 H   0  0  0  1  0  0  0  0  0  0  0  0
   21.0929    4.8973  -70.1367 H   0  0  0  1  0  0  0  0  0  0  0  0
   20.0663    6.9915  -70.7244 H   0  0  0  1  0  0  0  0  0  0  0  0
   22.3355    8.9918  -67.9832 H   0  0  0  1  0  0  0  0  0  0  0  0
   23.4214    6.9513  -67.3057 H   0  0  0  1  0  0  0  0  0  0  0  0
  1  3  4  0  0  0  0
  1 14  4  0  0  0  0
  1 21  1  0  0  0  0
  2 14  4  0  0  0  0
  2 15  4  0  0  0  0
  2 30  1  0  0  0  0
  3 16  4  0  0  0  0
  4  5  4  0  0  0  0
  4  7  4  0  0  0  0
  4 17  1  0  0  0  0
  5  9  4  0  0  0  0
  5 31  1  0  0  0  0
  6  7  4  0  0  0  0
  6  8  4  0  0  0  0
  6 32  1  0  0  0  0
  7 33  1  0  0  0  0
  8  9  4  0  0  0  0
  8 20  1  0  0  0  0
  9 34  1  0  0  0  0
 10 11  1  0  0  0  0
 10 21  1  0  0  0  0
 10 24  1  0  0  0  0
 10 35  1  0  0  0  0
 11 12  1  0  0  0  0
 11 36  1  0  0  0  0
 11 37  1  0  0  0  0
 12 23  1  0  0  0  0
 12 38  1  0  0  0  0
 12 39  1  0  0  0  0
 13 23  1  0  0  0  0
 13 25  4  0  0  0  0
 13 29  4  0  0  0  0
 15 16  4  0  0  0  0
 15 18  4  0  0  0  0
 16 17  4  0  0  0  0
 17 19  4  0  0  0  0
 18 19  4  0  0  0  0
 20 22  1  0  0  0  0
 21 40  1  0  0  0  0
 22 41  1  0  0  0  0
 22 42  1  0  0  0  0
 22 43  1  0  0  0  0
 23 24  1  0  0  0  0
 24 44  1  0  0  0  0
 24 45  1  0  0  0  0
 25 26  4  0  0  0  0
 25 46  1  0  0  0  0
 26 27  4  0  0  0  0
 26 47  1  0  0  0  0
 27 28  4  0  0  0  0
 28 29  4  0  0  0  0
 28 48  1  0  0  0  0
 29 49  1  0  0  0  0
M  END
> <ConfClashScore>
0 

> <ConfOneFourInteractionScore>
-0.982045 

> <ConfScore>
0.0967254 

> <ConfScorePBest>
0.00234038 

> <ConfTolerance>
0.675885 

> <HETNAM>
     OWQ A 303  OWQ                                                       

> <pdb_OW>
Q_303 -16.5129 3.80749 7.62812 0.15963 1.39178 -0.28144 -3.20151 0 0 0 -1.30514 0 0 0 0 0 0 0 0 -8.31393

$$$$
6yky_lig_1.pdb
 OpenBabel04162415593D

 49 53  0  0  0  0  0  0  0  0999 V2000
   25.1049    1.8137  -65.3760 C   0  0  0  1  0  0  0  0  0  0  0  0
   26.9167    0.5034  -65.9326 C   0  0  0  1  0  0  0  0  0  0  0  0
   25.4179    1.8285  -64.0983 N   0  0  0  1  0  0  0  0  0  0  0  0
   26.7670    1.4475  -61.1215 C   0  0  0  1  0  0  0  0  0  0  0  0
   26.6103    2.8056  -60.9193 C   0  0  0  1  0  0  0  0  0  0  0  0
   26.4897    1.0634  -58.7714 C   0  0  0  1  0  0  0  0  0  0  0  0
   26.7093    0.5752  -60.0457 C   0  0  0  1  0  0  0  0  0  0  0  0
   26.3326    2.4256  -58.5685 C   0  0  0  1  0  0  0  0  0  0  0  0
   26.3901    3.2951  -59.6413 C   0  0  0  1  0  0  0  0  0  0  0  0
   23.6722    2.6271  -67.1729 C   0  0  0  1  0  0  0  0  0  0  0  0
   22.6225    3.7183  -67.4372 C   0  0  0  1  0  0  0  0  0  0  0  0
   22.0479    3.2761  -68.7918 C   0  0  0  1  0  0  0  0  0  0  0  0
   22.7163    1.2374  -70.2624 C   0  0  0  1  0  0  0  0  0  0  0  0
   25.8297    1.1708  -66.2748 N   0  0  0  1  0  0  0  0  0  0  0  0
   27.2964    0.4858  -64.5857 C   0  0  0  1  0  0  0  0  0  0  0  0
   26.4937    1.1853  -63.6614 C   0  0  0  1  0  0  0  0  0  0  0  0
   27.0809    1.0062  -62.4394 N   0  0  0  1  0  0  0  0  0  0  0  0
   28.3159   -0.0766  -63.9004 N   0  0  0  1  0  0  0  0  0  0  0  0
   28.2164    0.2092  -62.6490 N   0  0  0  1  0  0  0  0  0  0  0  0
   26.2190    2.9068  -57.3153 O   0  0  0  1  0  0  0  0  0  0  0  0
   23.9681    2.5096  -65.7454 N   0  0  0  1  0  0  0  0  0  0  0  0
   25.9705    4.3290  -57.2259 C   0  0  0  1  0  0  0  0  0  0  0  0
   22.5925    1.9043  -69.0212 N   0  0  0  1  0  0  0  0  0  0  0  0
   22.9751    1.3837  -67.6956 C   0  0  0  1  0  0  0  0  0  0  0  0
   22.1644    1.7760  -71.4100 C   0  0  0  1  0  0  0  0  0  0  0  0
   22.3125    1.0933  -72.6023 C   0  0  0  1  0  0  0  0  0  0  0  0
   22.9624   -0.0699  -72.7074 N   0  0  0  1  0  0  0  0  0  0  0  0
   23.4886   -0.5827  -71.5862 C   0  0  0  1  0  0  0  0  0  0  0  0
   23.3909    0.0354  -70.3517 C   0  0  0  1  0  0  0  0  0  0  0  0
   27.4789    0.0014  -66.6492 H   0  0  0  1  0  0  0  0  0  0  0  0
   26.6576    3.4603  -61.7261 H   0  0  0  1  0  0  0  0  0  0  0  0
   26.4426    0.4086  -57.9647 H   0  0  0  1  0  0  0  0  0  0  0  0
   26.8313   -0.4465  -60.1974 H   0  0  0  1  0  0  0  0  0  0  0  0
   26.2682    4.3167  -59.4897 H   0  0  0  1  0  0  0  0  0  0  0  0
   24.5770    2.8202  -67.7105 H   0  0  0  1  0  0  0  0  0  0  0  0
   23.0741    4.6861  -67.5024 H   0  0  0  1  0  0  0  0  0  0  0  0
   21.8687    3.7262  -66.6778 H   0  0  0  1  0  0  0  0  0  0  0  0
   22.3656    3.9401  -69.5684 H   0  0  0  1  0  0  0  0  0  0  0  0
   20.9787    3.2539  -68.7561 H   0  0  0  1  0  0  0  0  0  0  0  0
   23.3798    2.9111  -65.0722 H   0  0  0  1  0  0  0  0  0  0  0  0
   26.7494    4.8602  -57.7319 H   0  0  0  1  0  0  0  0  0  0  0  0
   25.9487    4.6230  -56.1972 H   0  0  0  1  0  0  0  0  0  0  0  0
   25.0297    4.5559  -57.6822 H   0  0  0  1  0  0  0  0  0  0  0  0
   23.6380    0.5467  -67.7651 H   0  0  0  1  0  0  0  0  0  0  0  0
   22.1243    1.1173  -67.1039 H   0  0  0  1  0  0  0  0  0  0  0  0
   21.6477    2.6779  -71.3766 H   0  0  0  1  0  0  0  0  0  0  0  0
   21.8969    1.5057  -73.4619 H   0  0  0  1  0  0  0  0  0  0  0  0
   23.9949   -1.4891  -71.6468 H   0  0  0  1  0  0  0  0  0  0  0  0
   23.8174   -0.3969  -69.5074 H   0  0  0  1  0  0  0  0  0  0  0  0
  1  3  4  0  0  0  0
  1 14  4  0  0  0  0
  1 21  1  0  0  0  0
  2 14  4  0  0  0  0
  2 15  4  0  0  0  0
  2 30  1  0  0  0  0
  3 16  4  0  0  0  0
  4  5  4  0  0  0  0
  4  7  4  0  0  0  0
  4 17  1  0  0  0  0
  5  9  4  0  0  0  0
  5 31  1  0  0  0  0
  6  7  4  0  0  0  0
  6  8  4  0  0  0  0
  6 32  1  0  0  0  0
  7 33  1  0  0  0  0
  8  9  4  0  0  0  0
  8 20  1  0  0  0  0
  9 34  1  0  0  0  0
 10 11  1  0  0  0  0
 10 21  1  0  0  0  0
 10 24  1  0  0  0  0
 10 35  1  0  0  0  0
 11 12  1  0  0  0  0
 11 36  1  0  0  0  0
 11 37  1  0  0  0  0
 12 23  1  0  0  0  0
 12 38  1  0  0  0  0
 12 39  1  0  0  0  0
 13 23  1  0  0  0  0
 13 25  4  0  0  0  0
 13 29  4  0  0  0  0
 15 16  4  0  0  0  0
 15 18  4  0  0  0  0
 16 17  4  0  0  0  0
 17 19  4  0  0  0  0
 18 19  4  0  0  0  0
 20 22  1  0  0  0  0
 21 40  1  0  0  0  0
 22 41  1  0  0  0  0
 22 42  1  0  0  0  0
 22 43  1  0  0  0  0
 23 24  1  0  0  0  0
 24 44  1  0  0  0  0
 24 45  1  0  0  0  0
 25 26  4  0  0  0  0
 25 46  1  0  0  0  0
 26 27  4  0  0  0  0
 26 47  1  0  0  0  0
 27 28  4  0  0  0  0
 28 29  4  0  0  0  0
 28 48  1  0  0  0  0
 29 49  1  0  0  0  0
M  END
> <ConfClashScore>
0 

> <ConfOneFourInteractionScore>
-0.984874 

> <ConfScore>
0.097838 

> <ConfScorePBest>
0.00232706 

> <ConfTolerance>
0.383546 

> <HETNAM>
     OWQ A 303  OWQ                                                       

> <pdb_OW>
Q_303 -16.5129 3.80749 7.62812 0.15963 1.39178 -0.28144 -3.20151 0 0 0 -1.30514 0 0 0 0 0 0 0 0 -8.31393

$$$$
6yky_lig_1.pdb
 OpenBabel04162415593D

 49 53  0  0  0  0  0  0  0  0999 V2000
   25.1048    1.8136  -65.3760 C   0  0  0  1  0  0  0  0  0  0  0  0
   26.9167    0.5034  -65.9326 C   0  0  0  1  0  0  0  0  0  0  0  0
   25.4179    1.8285  -64.0982 N   0  0  0  1  0  0  0  0  0  0  0  0
   26.7287    1.4701  -61.1391 C   0  0  0  1  0  0  0  0  0  0  0  0
   25.6244    2.2937  -61.0285 C   0  0  0  1  0  0  0  0  0  0  0  0
   27.1702    1.7440  -58.7987 C   0  0  0  1  0  0  0  0  0  0  0  0
   27.5044    1.1968  -60.0232 C   0  0  0  1  0  0  0  0  0  0  0  0
   26.0625    2.5702  -58.6877 C   0  0  0  1  0  0  0  0  0  0  0  0
   25.2893    2.8424  -59.8005 C   0  0  0  1  0  0  0  0  0  0  0  0
   23.1321    3.1873  -64.8528 C   0  0  0  1  0  0  0  0  0  0  0  0
   22.2133    4.2149  -65.5696 C   0  0  0  1  0  0  0  0  0  0  0  0
   21.8960    5.3373  -64.5593 C   0  0  0  1  0  0  0  0  0  0  0  0
   22.9944    5.8498  -62.2910 C   0  0  0  1  0  0  0  0  0  0  0  0
   25.8297    1.1706  -66.2748 N   0  0  0  1  0  0  0  0  0  0  0  0
   27.2965    0.4858  -64.5858 C   0  0  0  1  0  0  0  0  0  0  0  0
   26.4937    1.1853  -63.6614 C   0  0  0  1  0  0  0  0  0  0  0  0
   27.0810    1.0062  -62.4395 N   0  0  0  1  0  0  0  0  0  0  0  0
   28.3158   -0.0766  -63.9004 N   0  0  0  1  0  0  0  0  0  0  0  0
   28.2164    0.2092  -62.6490 N   0  0  0  1  0  0  0  0  0  0  0  0
   25.6843    3.1414  -57.5196 O   0  0  0  1  0  0  0  0  0  0  0  0
   23.9921    2.4857  -65.7895 N   0  0  0  1  0  0  0  0  0  0  0  0
   26.5540    2.9644  -56.3906 C   0  0  0  1  0  0  0  0  0  0  0  0
   22.9479    5.1511  -63.5200 N   0  0  0  1  0  0  0  0  0  0  0  0
   23.9317    4.1421  -63.9451 C   0  0  0  1  0  0  0  0  0  0  0  0
   22.4079    7.0955  -62.1657 C   0  0  0  1  0  0  0  0  0  0  0  0
   22.4734    7.7414  -60.9458 C   0  0  0  1  0  0  0  0  0  0  0  0
   23.0802    7.2253  -59.8727 N   0  0  0  1  0  0  0  0  0  0  0  0
   23.6484    6.0187  -60.0095 C   0  0  0  1  0  0  0  0  0  0  0  0
   23.6269    5.3008  -61.1926 C   0  0  0  1  0  0  0  0  0  0  0  0
   27.4789    0.0013  -66.6491 H   0  0  0  1  0  0  0  0  0  0  0  0
   25.0449    2.5019  -61.8666 H   0  0  0  1  0  0  0  0  0  0  0  0
   27.7498    1.5358  -57.9607 H   0  0  0  1  0  0  0  0  0  0  0  0
   28.3376    0.5803  -60.1073 H   0  0  0  1  0  0  0  0  0  0  0  0
   24.4561    3.4589  -59.7164 H   0  0  0  1  0  0  0  0  0  0  0  0
   22.5683    2.4772  -64.2848 H   0  0  0  1  0  0  0  0  0  0  0  0
   22.7160    4.6221  -66.4219 H   0  0  0  1  0  0  0  0  0  0  0  0
   21.3077    3.7388  -65.8828 H   0  0  0  1  0  0  0  0  0  0  0  0
   20.9176    5.2164  -64.1434 H   0  0  0  1  0  0  0  0  0  0  0  0
   21.9729    6.3012  -65.0172 H   0  0  0  1  0  0  0  0  0  0  0  0
   23.7671    2.4953  -66.7433 H   0  0  0  1  0  0  0  0  0  0  0  0
   27.4597    3.5119  -56.5480 H   0  0  0  1  0  0  0  0  0  0  0  0
   26.7814    1.9252  -56.2753 H   0  0  0  1  0  0  0  0  0  0  0  0
   26.0690    3.3240  -55.5072 H   0  0  0  1  0  0  0  0  0  0  0  0
   24.7323    4.5991  -64.4882 H   0  0  0  1  0  0  0  0  0  0  0  0
   24.3268    3.6186  -63.0997 H   0  0  0  1  0  0  0  0  0  0  0  0
   21.9263    7.5381  -62.9744 H   0  0  0  1  0  0  0  0  0  0  0  0
   22.0278    8.6771  -60.8584 H   0  0  0  1  0  0  0  0  0  0  0  0
   24.1287    5.6020  -59.1867 H   0  0  0  1  0  0  0  0  0  0  0  0
   24.0782    4.3659  -61.2534 H   0  0  0  1  0  0  0  0  0  0  0  0
  1  3  4  0  0  0  0
  1 14  4  0  0  0  0
  1 21  1  0  0  0  0
  2 14  4  0  0  0  0
  2 15  4  0  0  0  0
  2 30  1  0  0  0  0
  3 16  4  0  0  0  0
  4  5  4  0  0  0  0
  4  7  4  0  0  0  0
  4 17  1  0  0  0  0
  5  9  4  0  0  0  0
  5 31  1  0  0  0  0
  6  7  4  0  0  0  0
  6  8  4  0  0  0  0
  6 32  1  0  0  0  0
  7 33  1  0  0  0  0
  8  9  4  0  0  0  0
  8 20  1  0  0  0  0
  9 34  1  0  0  0  0
 10 11  1  0  0  0  0
 10 21  1  0  0  0  0
 10 24  1  0  0  0  0
 10 35  1  0  0  0  0
 11 12  1  0  0  0  0
 11 36  1  0  0  0  0
 11 37  1  0  0  0  0
 12 23  1  0  0  0  0
 12 38  1  0  0  0  0
 12 39  1  0  0  0  0
 13 23  1  0  0  0  0
 13 25  4  0  0  0  0
 13 29  4  0  0  0  0
 15 16  4  0  0  0  0
 15 18  4  0  0  0  0
 16 17  4  0  0  0  0
 17 19  4  0  0  0  0
 18 19  4  0  0  0  0
 20 22  1  0  0  0  0
 21 40  1  0  0  0  0
 22 41  1  0  0  0  0
 22 42  1  0  0  0  0
 22 43  1  0  0  0  0
 23 24  1  0  0  0  0
 24 44  1  0  0  0  0
 24 45  1  0  0  0  0
 25 26  4  0  0  0  0
 25 46  1  0  0  0  0
 26 27  4  0  0  0  0
 26 47  1  0  0  0  0
 27 28  4  0  0  0  0
 28 29  4  0  0  0  0
 28 48  1  0  0  0  0
 29 49  1  0  0  0  0
M  END
> <ConfClashScore>
0 

> <ConfOneFourInteractionScore>
-0.987833 

> <ConfScore>
0.0981849 

> <ConfScorePBest>
0.00231373 

> <ConfTolerance>
0.430825 

> <HETNAM>
     OWQ A 303  OWQ                                                       

> <pdb_OW>
Q_303 -16.5129 3.80749 7.62812 0.15963 1.39178 -0.28144 -3.20151 0 0 0 -1.30514 0 0 0 0 0 0 0 0 -8.31393

$$$$
6yky_lig_1.pdb
 OpenBabel04162415593D

 49 53  0  0  0  0  0  0  0  0999 V2000
   25.1047    1.8134  -65.3760 C   0  0  0  1  0  0  0  0  0  0  0  0
   26.9167    0.5034  -65.9325 C   0  0  0  1  0  0  0  0  0  0  0  0
   25.4177    1.8282  -64.0982 N   0  0  0  1  0  0  0  0  0  0  0  0
   26.7863    1.5429  -61.1529 C   0  0  0  1  0  0  0  0  0  0  0  0
   26.6231    2.9059  -60.9926 C   0  0  0  1  0  0  0  0  0  0  0  0
   26.5572    1.2349  -58.7864 C   0  0  0  1  0  0  0  0  0  0  0  0
   26.7561    0.7063  -60.0480 C   0  0  0  1  0  0  0  0  0  0  0  0
   26.3934    2.6020  -58.6256 C   0  0  0  1  0  0  0  0  0  0  0  0
   26.4236    3.4359  -59.7274 C   0  0  0  1  0  0  0  0  0  0  0  0
   23.6698    2.7028  -67.1782 C   0  0  0  1  0  0  0  0  0  0  0  0
   24.5297    3.8352  -67.7823 C   0  0  0  1  0  0  0  0  0  0  0  0
   23.6299    4.6713  -68.6569 C   0  0  0  1  0  0  0  0  0  0  0  0
   21.0668    4.7550  -68.6543 C   0  0  0  1  0  0  0  0  0  0  0  0
   25.8296    1.1707  -66.2748 N   0  0  0  1  0  0  0  0  0  0  0  0
   27.2965    0.4858  -64.5857 C   0  0  0  1  0  0  0  0  0  0  0  0
   26.4935    1.1851  -63.6614 C   0  0  0  1  0  0  0  0  0  0  0  0
   27.0808    1.0060  -62.4395 N   0  0  0  1  0  0  0  0  0  0  0  0
   28.3159   -0.0766  -63.9004 N   0  0  0  1  0  0  0  0  0  0  0  0
   28.2164    0.2092  -62.6490 N   0  0  0  1  0  0  0  0  0  0  0  0
   26.2995    3.1263  -57.3805 O   0  0  0  1  0  0  0  0  0  0  0  0
   24.0073    2.4760  -65.7837 N   0  0  0  1  0  0  0  0  0  0  0  0
   25.9916    4.5254  -57.2792 C   0  0  0  1  0  0  0  0  0  0  0  0
   22.2353    4.2019  -68.1880 N   0  0  0  1  0  0  0  0  0  0  0  0
   22.2604    3.2433  -67.3184 C   0  0  0  1  0  0  0  0  0  0  0  0
   20.7390    4.6828  -69.9956 C   0  0  0  1  0  0  0  0  0  0  0  0
   19.5524    5.2489  -70.4212 C   0  0  0  1  0  0  0  0  0  0  0  0
   18.6988    5.8698  -69.6015 N   0  0  0  1  0  0  0  0  0  0  0  0
   19.0313    5.9362  -68.3044 C   0  0  0  1  0  0  0  0  0  0  0  0
   20.1970    5.3937  -67.7923 C   0  0  0  1  0  0  0  0  0  0  0  0
   27.4790    0.0014  -66.6492 H   0  0  0  1  0  0  0  0  0  0  0  0
   26.6498    3.5339  -61.8212 H   0  0  0  1  0  0  0  0  0  0  0  0
   26.5304    0.6070  -57.9579 H   0  0  0  1  0  0  0  0  0  0  0  0
   26.8831   -0.3189  -60.1681 H   0  0  0  1  0  0  0  0  0  0  0  0
   26.2967    4.4611  -59.6072 H   0  0  0  1  0  0  0  0  0  0  0  0
   23.7901    1.7923  -67.7274 H   0  0  0  1  0  0  0  0  0  0  0  0
   24.9412    4.4380  -66.9999 H   0  0  0  1  0  0  0  0  0  0  0  0
   25.3231    3.4188  -68.3672 H   0  0  0  1  0  0  0  0  0  0  0  0
   23.7718    5.7169  -68.4791 H   0  0  0  1  0  0  0  0  0  0  0  0
   23.7859    4.4610  -69.6943 H   0  0  0  1  0  0  0  0  0  0  0  0
   23.3997    2.8266  -65.0994 H   0  0  0  1  0  0  0  0  0  0  0  0
   25.8840    4.7938  -56.2490 H   0  0  0  1  0  0  0  0  0  0  0  0
   25.0778    4.7278  -57.7975 H   0  0  0  1  0  0  0  0  0  0  0  0
   26.7839    5.0971  -57.7155 H   0  0  0  1  0  0  0  0  0  0  0  0
   21.9287    3.6158  -66.3718 H   0  0  0  1  0  0  0  0  0  0  0  0
   21.6103    2.4567  -67.6403 H   0  0  0  1  0  0  0  0  0  0  0  0
   21.3736    4.2114  -70.6715 H   0  0  0  1  0  0  0  0  0  0  0  0
   19.3113    5.1886  -71.4311 H   0  0  0  1  0  0  0  0  0  0  0  0
   18.3816    6.4187  -67.6512 H   0  0  0  1  0  0  0  0  0  0  0  0
   20.4138    5.4656  -66.7778 H   0  0  0  1  0  0  0  0  0  0  0  0
  1  3  4  0  0  0  0
  1 14  4  0  0  0  0
  1 21  1  0  0  0  0
  2 14  4  0  0  0  0
  2 15  4  0  0  0  0
  2 30  1  0  0  0  0
  3 16  4  0  0  0  0
  4  5  4  0  0  0  0
  4  7  4  0  0  0  0
  4 17  1  0  0  0  0
  5  9  4  0  0  0  0
  5 31  1  0  0  0  0
  6  7  4  0  0  0  0
  6  8  4  0  0  0  0
  6 32  1  0  0  0  0
  7 33  1  0  0  0  0
  8  9  4  0  0  0  0
  8 20  1  0  0  0  0
  9 34  1  0  0  0  0
 10 11  1  0  0  0  0
 10 21  1  0  0  0  0
 10 24  1  0  0  0  0
 10 35  1  0  0  0  0
 11 12  1  0  0  0  0
 11 36  1  0  0  0  0
 11 37  1  0  0  0  0
 12 23  1  0  0  0  0
 12 38  1  0  0  0  0
 12 39  1  0  0  0  0
 13 23  1  0  0  0  0
 13 25  4  0  0  0  0
 13 29  4  0  0  0  0
 15 16  4  0  0  0  0
 15 18  4  0  0  0  0
 16 17  4  0  0  0  0
 17 19  4  0  0  0  0
 18 19  4  0  0  0  0
 20 22  1  0  0  0  0
 21 40  1  0  0  0  0
 22 41  1  0  0  0  0
 22 42  1  0  0  0  0
 22 43  1  0  0  0  0
 23 24  1  0  0  0  0
 24 44  1  0  0  0  0
 24 45  1  0  0  0  0
 25 26  4  0  0  0  0
 25 46  1  0  0  0  0
 26 27  4  0  0  0  0
 26 47  1  0  0  0  0
 27 28  4  0  0  0  0
 28 29  4  0  0  0  0
 28 48  1  0  0  0  0
 29 49  1  0  0  0  0
M  END
> <ConfClashScore>
0 

> <ConfOneFourInteractionScore>
-0.986948 

> <ConfScore>
0.0983013 

> <ConfScorePBest>
0.0023004 

> <ConfTolerance>
0.687445 

> <HETNAM>
     OWQ A 303  OWQ                                                       

> <pdb_OW>
Q_303 -16.5129 3.80749 7.62812 0.15963 1.39178 -0.28144 -3.20151 0 0 0 -1.30514 0 0 0 0 0 0 0 0 -8.31393

$$$$
6yky_lig_1.pdb
 OpenBabel04162415593D

 49 53  0  0  0  0  0  0  0  0999 V2000
   25.1047    1.8135  -65.3760 C   0  0  0  1  0  0  0  0  0  0  0  0
   26.9167    0.5034  -65.9326 C   0  0  0  1  0  0  0  0  0  0  0  0
   25.4177    1.8282  -64.0982 N   0  0  0  1  0  0  0  0  0  0  0  0
   26.8384    1.5661  -61.1518 C   0  0  0  1  0  0  0  0  0  0  0  0
   25.5587    1.9432  -60.7911 C   0  0  0  1  0  0  0  0  0  0  0  0
   27.6812    2.4397  -59.0845 C   0  0  0  1  0  0  0  0  0  0  0  0
   27.9016    1.8170  -60.2986 C   0  0  0  1  0  0  0  0  0  0  0  0
   26.3977    2.8182  -58.7225 C   0  0  0  1  0  0  0  0  0  0  0  0
   25.3377    2.5678  -59.5735 C   0  0  0  1  0  0  0  0  0  0  0  0
   23.5299    2.2956  -67.1771 C   0  0  0  1  0  0  0  0  0  0  0  0
   24.3728    3.1232  -68.1606 C   0  0  0  1  0  0  0  0  0  0  0  0
   23.4192    3.2492  -69.3587 C   0  0  0  1  0  0  0  0  0  0  0  0
   21.0288    2.2768  -69.6474 C   0  0  0  1  0  0  0  0  0  0  0  0
   25.8296    1.1706  -66.2748 N   0  0  0  1  0  0  0  0  0  0  0  0
   27.2965    0.4857  -64.5857 C   0  0  0  1  0  0  0  0  0  0  0  0
   26.4936    1.1851  -63.6614 C   0  0  0  1  0  0  0  0  0  0  0  0
   27.0808    1.0061  -62.4394 N   0  0  0  1  0  0  0  0  0  0  0  0
   28.3159   -0.0766  -63.9004 N   0  0  0  1  0  0  0  0  0  0  0  0
   28.2164    0.2092  -62.6490 N   0  0  0  1  0  0  0  0  0  0  0  0
   26.0629    3.4337  -57.5720 O   0  0  0  1  0  0  0  0  0  0  0  0
   23.9764    2.4948  -65.7952 N   0  0  0  1  0  0  0  0  0  0  0  0
   27.1633    3.6766  -56.6650 C   0  0  0  1  0  0  0  0  0  0  0  0
   22.0993    2.7544  -68.8646 N   0  0  0  1  0  0  0  0  0  0  0  0
   22.1394    2.8653  -67.3947 C   0  0  0  1  0  0  0  0  0  0  0  0
   20.8724    0.9222  -69.8762 C   0  0  0  1  0  0  0  0  0  0  0  0
   19.8067    0.4968  -70.6462 C   0  0  0  1  0  0  0  0  0  0  0  0
   18.9133    1.3299  -71.1886 N   0  0  0  1  0  0  0  0  0  0  0  0
   19.0794    2.6407  -70.9623 C   0  0  0  1  0  0  0  0  0  0  0  0
   20.1154    3.1528  -70.2007 C   0  0  0  1  0  0  0  0  0  0  0  0
   27.4790    0.0014  -66.6492 H   0  0  0  1  0  0  0  0  0  0  0  0
   24.7616    1.7586  -61.4330 H   0  0  0  1  0  0  0  0  0  0  0  0
   28.4782    2.6244  -58.4426 H   0  0  0  1  0  0  0  0  0  0  0  0
   28.8652    1.5367  -60.5719 H   0  0  0  1  0  0  0  0  0  0  0  0
   24.3741    2.8481  -59.3003 H   0  0  0  1  0  0  0  0  0  0  0  0
   23.5647    1.2535  -67.4171 H   0  0  0  1  0  0  0  0  0  0  0  0
   24.6167    4.0823  -67.7538 H   0  0  0  1  0  0  0  0  0  0  0  0
   25.2723    2.6104  -68.4304 H   0  0  0  1  0  0  0  0  0  0  0  0
   23.7624    2.6494  -70.1755 H   0  0  0  1  0  0  0  0  0  0  0  0
   23.3437    4.2696  -69.6719 H   0  0  0  1  0  0  0  0  0  0  0  0
   23.4911    3.0914  -65.1880 H   0  0  0  1  0  0  0  0  0  0  0  0
   27.7042    2.7668  -56.5080 H   0  0  0  1  0  0  0  0  0  0  0  0
   26.7828    4.0309  -55.7297 H   0  0  0  1  0  0  0  0  0  0  0  0
   27.8169    4.4116  -57.0862 H   0  0  0  1  0  0  0  0  0  0  0  0
   21.3815    2.2752  -66.9231 H   0  0  0  1  0  0  0  0  0  0  0  0
   22.0606    3.8794  -67.0626 H   0  0  0  1  0  0  0  0  0  0  0  0
   21.5443    0.2363  -69.4765 H   0  0  0  1  0  0  0  0  0  0  0  0
   19.6940   -0.5236  -70.8120 H   0  0  0  1  0  0  0  0  0  0  0  0
   18.3966    3.3052  -71.3791 H   0  0  0  1  0  0  0  0  0  0  0  0
   20.2045    4.1777  -70.0481 H   0  0  0  1  0  0  0  0  0  0  0  0
  1  3  4  0  0  0  0
  1 14  4  0  0  0  0
  1 21  1  0  0  0  0
  2 14  4  0  0  0  0
  2 15  4  0  0  0  0
  2 30  1  0  0  0  0
  3 16  4  0  0  0  0
  4  5  4  0  0  0  0
  4  7  4  0  0  0  0
  4 17  1  0  0  0  0
  5  9  4  0  0  0  0
  5 31  1  0  0  0  0
  6  7  4  0  0  0  0
  6  8  4  0  0  0  0
  6 32  1  0  0  0  0
  7 33  1  0  0  0  0
  8  9  4  0  0  0  0
  8 20  1  0  0  0  0
  9 34  1  0  0  0  0
 10 11  1  0  0  0  0
 10 21  1  0  0  0  0
 10 24  1  0  0  0  0
 10 35  1  0  0  0  0
 11 12  1  0  0  0  0
 11 36  1  0  0  0  0
 11 37  1  0  0  0  0
 12 23  1  0  0  0  0
 12 38  1  0  0  0  0
 12 39  1  0  0  0  0
 13 23  1  0  0  0  0
 13 25  4  0  0  0  0
 13 29  4  0  0  0  0
 15 16  4  0  0  0  0
 15 18  4  0  0  0  0
 16 17  4  0  0  0  0
 17 19  4  0  0  0  0
 18 19  4  0  0  0  0
 20 22  1  0  0  0  0
 21 40  1  0  0  0  0
 22 41  1  0  0  0  0
 22 42  1  0  0  0  0
 22 43  1  0  0  0  0
 23 24  1  0  0  0  0
 24 44  1  0  0  0  0
 24 45  1  0  0  0  0
 25 26  4  0  0  0  0
 25 46  1  0  0  0  0
 26 27  4  0  0  0  0
 26 47  1  0  0  0  0
 27 28  4  0  0  0  0
 28 29  4  0  0  0  0
 28 48  1  0  0  0  0
 29 49  1  0  0  0  0
M  END
> <ConfClashScore>
0 

> <ConfOneFourInteractionScore>
-0.986948 

> <ConfScore>
0.0983419 

> <ConfScorePBest>
0.00228707 

> <ConfTolerance>
0.486837 

> <HETNAM>
     OWQ A 303  OWQ                                                       

> <pdb_OW>
Q_303 -16.5129 3.80749 7.62812 0.15963 1.39178 -0.28144 -3.20151 0 0 0 -1.30514 0 0 0 0 0 0 0 0 -8.31393

$$$$
6yky_lig_1.pdb
 OpenBabel04162415593D

 49 53  0  0  0  0  0  0  0  0999 V2000
   25.1048    1.8137  -65.3760 C   0  0  0  1  0  0  0  0  0  0  0  0
   26.9167    0.5034  -65.9326 C   0  0  0  1  0  0  0  0  0  0  0  0
   25.4179    1.8285  -64.0983 N   0  0  0  1  0  0  0  0  0  0  0  0
   26.6711    1.3258  -61.1128 C   0  0  0  1  0  0  0  0  0  0  0  0
   26.1999    2.6034  -60.8765 C   0  0  0  1  0  0  0  0  0  0  0  0
   26.4896    0.8243  -58.7756 C   0  0  0  1  0  0  0  0  0  0  0  0
   26.8187    0.4356  -60.0604 C   0  0  0  1  0  0  0  0  0  0  0  0
   26.0170    2.1056  -58.5384 C   0  0  0  1  0  0  0  0  0  0  0  0
   25.8699    2.9930  -59.5878 C   0  0  0  1  0  0  0  0  0  0  0  0
   23.6316    2.5300  -67.2192 C   0  0  0  1  0  0  0  0  0  0  0  0
   23.3564    3.9777  -67.7119 C   0  0  0  1  0  0  0  0  0  0  0  0
   22.3740    3.8849  -68.8982 C   0  0  0  1  0  0  0  0  0  0  0  0
   20.9632    1.8883  -69.6967 C   0  0  0  1  0  0  0  0  0  0  0  0
   25.8297    1.1708  -66.2748 N   0  0  0  1  0  0  0  0  0  0  0  0
   27.2965    0.4858  -64.5857 C   0  0  0  1  0  0  0  0  0  0  0  0
   26.4936    1.1853  -63.6615 C   0  0  0  1  0  0  0  0  0  0  0  0
   27.0809    1.0062  -62.4395 N   0  0  0  1  0  0  0  0  0  0  0  0
   28.3159   -0.0766  -63.9004 N   0  0  0  1  0  0  0  0  0  0  0  0
   28.2164    0.2092  -62.6490 N   0  0  0  1  0  0  0  0  0  0  0  0
   25.7179    2.4249  -57.2568 O   0  0  0  1  0  0  0  0  0  0  0  0
   23.9769    2.4950  -65.7952 N   0  0  0  1  0  0  0  0  0  0  0  0
   25.6148    1.3429  -56.3181 C   0  0  0  1  0  0  0  0  0  0  0  0
   21.8102    2.5133  -68.7517 N   0  0  0  1  0  0  0  0  0  0  0  0
   22.2535    1.8964  -67.4908 C   0  0  0  1  0  0  0  0  0  0  0  0
   20.0502    0.9292  -69.2993 C   0  0  0  1  0  0  0  0  0  0  0  0
   19.2395    0.3469  -70.2548 C   0  0  0  1  0  0  0  0  0  0  0  0
   19.2920    0.6603  -71.5530 N   0  0  0  1  0  0  0  0  0  0  0  0
   20.1847    1.5886  -71.9250 C   0  0  0  1  0  0  0  0  0  0  0  0
   21.0322    2.2245  -71.0347 C   0  0  0  1  0  0  0  0  0  0  0  0
   27.4789    0.0013  -66.6492 H   0  0  0  1  0  0  0  0  0  0  0  0
   26.0930    3.2725  -61.6655 H   0  0  0  1  0  0  0  0  0  0  0  0
   26.5965    0.1552  -57.9866 H   0  0  0  1  0  0  0  0  0  0  0  0
   27.1770   -0.5244  -60.2378 H   0  0  0  1  0  0  0  0  0  0  0  0
   25.5116    3.9531  -59.4106 H   0  0  0  1  0  0  0  0  0  0  0  0
   24.4060    2.0570  -67.7861 H   0  0  0  1  0  0  0  0  0  0  0  0
   22.9226    4.5557  -66.9229 H   0  0  0  1  0  0  0  0  0  0  0  0
   24.2700    4.4353  -68.0292 H   0  0  0  1  0  0  0  0  0  0  0  0
   21.6070    4.6272  -68.8224 H   0  0  0  1  0  0  0  0  0  0  0  0
   22.8854    3.9940  -69.8316 H   0  0  0  1  0  0  0  0  0  0  0  0
   23.4091    2.9537  -65.1412 H   0  0  0  1  0  0  0  0  0  0  0  0
   26.5193    0.7713  -56.3312 H   0  0  0  1  0  0  0  0  0  0  0  0
   24.7920    0.7143  -56.5875 H   0  0  0  1  0  0  0  0  0  0  0  0
   25.4565    1.7370  -55.3360 H   0  0  0  1  0  0  0  0  0  0  0  0
   22.3393    0.8352  -67.5980 H   0  0  0  1  0  0  0  0  0  0  0  0
   21.5705    2.1213  -66.6985 H   0  0  0  1  0  0  0  0  0  0  0  0
   19.9751    0.6513  -68.2999 H   0  0  0  1  0  0  0  0  0  0  0  0
   18.5534   -0.3720  -69.9481 H   0  0  0  1  0  0  0  0  0  0  0  0
   20.2433    1.8434  -72.9317 H   0  0  0  1  0  0  0  0  0  0  0  0
   21.7082    2.9418  -71.3666 H   0  0  0  1  0  0  0  0  0  0  0  0
  1  3  4  0  0  0  0
  1 14  4  0  0  0  0
  1 21  1  0  0  0  0
  2 14  4  0  0  0  0
  2 15  4  0  0  0  0
  2 30  1  0  0  0  0
  3 16  4  0  0  0  0
  4  5  4  0  0  0  0
  4  7  4  0  0  0  0
  4 17  1  0  0  0  0
  5  9  4  0  0  0  0
  5 31  1  0  0  0  0
  6  7  4  0  0  0  0
  6  8  4  0  0  0  0
  6 32  1  0  0  0  0
  7 33  1  0  0  0  0
  8  9  4  0  0  0  0
  8 20  1  0  0  0  0
  9 34  1  0  0  0  0
 10 11  1  0  0  0  0
 10 21  1  0  0  0  0
 10 24  1  0  0  0  0
 10 35  1  0  0  0  0
 11 12  1  0  0  0  0
 11 36  1  0  0  0  0
 11 37  1  0  0  0  0
 12 23  1  0  0  0  0
 12 38  1  0  0  0  0
 12 39  1  0  0  0  0
 13 23  1  0  0  0  0
 13 25  4  0  0  0  0
 13 29  4  0  0  0  0
 15 16  4  0  0  0  0
 15 18  4  0  0  0  0
 16 17  4  0  0  0  0
 17 19  4  0  0  0  0
 18 19  4  0  0  0  0
 20 22  1  0  0  0  0
 21 40  1  0  0  0  0
 22 41  1  0  0  0  0
 22 42  1  0  0  0  0
 22 43  1  0  0  0  0
 23 24  1  0  0  0  0
 24 44  1  0  0  0  0
 24 45  1  0  0  0  0
 25 26  4  0  0  0  0
 25 46  1  0  0  0  0
 26 27  4  0  0  0  0
 26 47  1  0  0  0  0
 27 28  4  0  0  0  0
 28 29  4  0  0  0  0
 28 48  1  0  0  0  0
 29 49  1  0  0  0  0
M  END
> <ConfClashScore>
0 

> <ConfOneFourInteractionScore>
-0.986948 

> <ConfScore>
0.100938 

> <ConfScorePBest>
0.00227374 

> <ConfTolerance>
0.559826 

> <HETNAM>
     OWQ A 303  OWQ                                                       

> <pdb_OW>
Q_303 -16.5129 3.80749 7.62812 0.15963 1.39178 -0.28144 -3.20151 0 0 0 -1.30514 0 0 0 0 0 0 0 0 -8.31393

$$$$
6yky_lig_1.pdb
 OpenBabel04162415593D

 49 53  0  0  0  0  0  0  0  0999 V2000
   25.1047    1.8135  -65.3760 C   0  0  0  1  0  0  0  0  0  0  0  0
   26.9167    0.5034  -65.9326 C   0  0  0  1  0  0  0  0  0  0  0  0
   25.4177    1.8283  -64.0983 N   0  0  0  1  0  0  0  0  0  0  0  0
   26.6876    1.3784  -61.1216 C   0  0  0  1  0  0  0  0  0  0  0  0
   26.5862    2.7141  -60.7810 C   0  0  0  1  0  0  0  0  0  0  0  0
   26.2012    0.7616  -58.8565 C   0  0  0  1  0  0  0  0  0  0  0  0
   26.4975    0.4007  -60.1574 C   0  0  0  1  0  0  0  0  0  0  0  0
   26.0994    2.1013  -58.5148 C   0  0  0  1  0  0  0  0  0  0  0  0
   26.2890    3.0759  -59.4763 C   0  0  0  1  0  0  0  0  0  0  0  0
   23.1260    3.1778  -64.8514 C   0  0  0  1  0  0  0  0  0  0  0  0
   22.1694    4.1438  -65.5852 C   0  0  0  1  0  0  0  0  0  0  0  0
   22.0875    5.4090  -64.7689 C   0  0  0  1  0  0  0  0  0  0  0  0
   23.7042    6.2319  -62.9135 C   0  0  0  1  0  0  0  0  0  0  0  0
   25.8296    1.1707  -66.2748 N   0  0  0  1  0  0  0  0  0  0  0  0
   27.2964    0.4857  -64.5857 C   0  0  0  1  0  0  0  0  0  0  0  0
   26.4936    1.1851  -63.6614 C   0  0  0  1  0  0  0  0  0  0  0  0
   27.0808    1.0061  -62.4395 N   0  0  0  1  0  0  0  0  0  0  0  0
   28.3159   -0.0766  -63.9004 N   0  0  0  1  0  0  0  0  0  0  0  0
   28.2164    0.2092  -62.6490 N   0  0  0  1  0  0  0  0  0  0  0  0
   25.8143    2.4549  -57.2390 O   0  0  0  1  0  0  0  0  0  0  0  0
   23.9919    2.4855  -65.7895 N   0  0  0  1  0  0  0  0  0  0  0  0
   25.6327    1.3935  -56.2888 C   0  0  0  1  0  0  0  0  0  0  0  0
   23.3027    5.2401  -63.8311 N   0  0  0  1  0  0  0  0  0  0  0  0
   23.9215    4.1102  -63.9592 C   0  0  0  1  0  0  0  0  0  0  0  0
   22.9050    7.3508  -62.7678 C   0  0  0  1  0  0  0  0  0  0  0  0
   23.2868    8.3277  -61.8680 C   0  0  0  1  0  0  0  0  0  0  0  0
   24.3967    8.2512  -61.1273 N   0  0  0  1  0  0  0  0  0  0  0  0
   25.1643    7.1629  -61.2819 C   0  0  0  1  0  0  0  0  0  0  0  0
   24.8555    6.1360  -62.1567 C   0  0  0  1  0  0  0  0  0  0  0  0
   27.4789    0.0013  -66.6492 H   0  0  0  1  0  0  0  0  0  0  0  0
   26.7328    3.4475  -61.5036 H   0  0  0  1  0  0  0  0  0  0  0  0
   26.0546    0.0282  -58.1340 H   0  0  0  1  0  0  0  0  0  0  0  0
   26.5778   -0.6042  -60.4129 H   0  0  0  1  0  0  0  0  0  0  0  0
   26.2087    4.0808  -59.2209 H   0  0  0  1  0  0  0  0  0  0  0  0
   22.5813    2.4615  -64.2725 H   0  0  0  1  0  0  0  0  0  0  0  0
   22.5496    4.3629  -66.5611 H   0  0  0  1  0  0  0  0  0  0  0  0
   21.1989    3.7013  -65.6712 H   0  0  0  1  0  0  0  0  0  0  0  0
   22.1849    6.2793  -65.3839 H   0  0  0  1  0  0  0  0  0  0  0  0
   21.1716    5.4616  -64.2182 H   0  0  0  1  0  0  0  0  0  0  0  0
   23.7711    2.5015  -66.7442 H   0  0  0  1  0  0  0  0  0  0  0  0
   25.0776    1.7568  -55.4493 H   0  0  0  1  0  0  0  0  0  0  0  0
   26.5884    1.0426  -55.9594 H   0  0  0  1  0  0  0  0  0  0  0  0
   25.0968    0.5903  -56.7499 H   0  0  0  1  0  0  0  0  0  0  0  0
   24.0408    3.6611  -62.9953 H   0  0  0  1  0  0  0  0  0  0  0  0
   24.8836    4.2814  -64.3951 H   0  0  0  1  0  0  0  0  0  0  0  0
   22.0330    7.4552  -63.3248 H   0  0  0  1  0  0  0  0  0  0  0  0
   22.6796    9.1652  -61.7620 H   0  0  0  1  0  0  0  0  0  0  0  0
   26.0341    7.0869  -60.7170 H   0  0  0  1  0  0  0  0  0  0  0  0
   25.4786    5.3077  -62.2426 H   0  0  0  1  0  0  0  0  0  0  0  0
  1  3  4  0  0  0  0
  1 14  4  0  0  0  0
  1 21  1  0  0  0  0
  2 14  4  0  0  0  0
  2 15  4  0  0  0  0
  2 30  1  0  0  0  0
  3 16  4  0  0  0  0
  4  5  4  0  0  0  0
  4  7  4  0  0  0  0
  4 17  1  0  0  0  0
  5  9  4  0  0  0  0
  5 31  1  0  0  0  0
  6  7  4  0  0  0  0
  6  8  4  0  0  0  0
  6 32  1  0  0  0  0
  7 33  1  0  0  0  0
  8  9  4  0  0  0  0
  8 20  1  0  0  0  0
  9 34  1  0  0  0  0
 10 11  1  0  0  0  0
 10 21  1  0  0  0  0
 10 24  1  0  0  0  0
 10 35  1  0  0  0  0
 11 12  1  0  0  0  0
 11 36  1  0  0  0  0
 11 37  1  0  0  0  0
 12 23  1  0  0  0  0
 12 38  1  0  0  0  0
 12 39  1  0  0  0  0
 13 23  1  0  0  0  0
 13 25  4  0  0  0  0
 13 29  4  0  0  0  0
 15 16  4  0  0  0  0
 15 18  4  0  0  0  0
 16 17  4  0  0  0  0
 17 19  4  0  0  0  0
 18 19  4  0  0  0  0
 20 22  1  0  0  0  0
 21 40  1  0  0  0  0
 22 41  1  0  0  0  0
 22 42  1  0  0  0  0
 22 43  1  0  0  0  0
 23 24  1  0  0  0  0
 24 44  1  0  0  0  0
 24 45  1  0  0  0  0
 25 26  4  0  0  0  0
 25 46  1  0  0  0  0
 26 27  4  0  0  0  0
 26 47  1  0  0  0  0
 27 28  4  0  0  0  0
 28 29  4  0  0  0  0
 28 48  1  0  0  0  0
 29 49  1  0  0  0  0
M  END
> <ConfClashScore>
0 

> <ConfOneFourInteractionScore>
-0.987833 

> <ConfScore>
0.102761 

> <ConfScorePBest>
0.00226041 

> <ConfTolerance>
0.700052 

> <HETNAM>
     OWQ A 303  OWQ                                                       

> <pdb_OW>
Q_303 -16.5129 3.80749 7.62812 0.15963 1.39178 -0.28144 -3.20151 0 0 0 -1.30514 0 0 0 0 0 0 0 0 -8.31393

$$$$
6yky_lig_1.pdb
 OpenBabel04162415593D

 49 53  0  0  0  0  0  0  0  0999 V2000
   25.1048    1.8135  -65.3760 C   0  0  0  1  0  0  0  0  0  0  0  0
   26.9167    0.5034  -65.9326 C   0  0  0  1  0  0  0  0  0  0  0  0
   25.4177    1.8283  -64.0983 N   0  0  0  1  0  0  0  0  0  0  0  0
   26.6854    1.4949  -61.1607 C   0  0  0  1  0  0  0  0  0  0  0  0
   26.3403    0.6089  -60.1577 C   0  0  0  1  0  0  0  0  0  0  0  0
   26.0916    3.3347  -59.7431 C   0  0  0  1  0  0  0  0  0  0  0  0
   26.5583    2.8597  -60.9542 C   0  0  0  1  0  0  0  0  0  0  0  0
   25.7455    2.4461  -58.7370 C   0  0  0  1  0  0  0  0  0  0  0  0
   25.8722    1.0854  -58.9431 C   0  0  0  1  0  0  0  0  0  0  0  0
   23.4807    2.6473  -67.0454 C   0  0  0  1  0  0  0  0  0  0  0  0
   23.5275    4.0853  -67.4713 C   0  0  0  1  0  0  0  0  0  0  0  0
   22.2374    4.6494  -66.8129 C   0  0  0  1  0  0  0  0  0  0  0  0
   19.9693    3.6050  -66.6583 C   0  0  0  1  0  0  0  0  0  0  0  0
   25.8296    1.1707  -66.2747 N   0  0  0  1  0  0  0  0  0  0  0  0
   27.2965    0.4857  -64.5857 C   0  0  0  1  0  0  0  0  0  0  0  0
   26.4936    1.1851  -63.6614 C   0  0  0  1  0  0  0  0  0  0  0  0
   27.0809    1.0061  -62.4395 N   0  0  0  1  0  0  0  0  0  0  0  0
   28.3159   -0.0766  -63.9004 N   0  0  0  1  0  0  0  0  0  0  0  0
   28.2164    0.2092  -62.6490 N   0  0  0  1  0  0  0  0  0  0  0  0
   25.2989    3.0237  -57.6047 O   0  0  0  1  0  0  0  0  0  0  0  0
   23.9888    2.5048  -65.6920 N   0  0  0  1  0  0  0  0  0  0  0  0
   24.9038    2.1021  -56.5621 C   0  0  0  1  0  0  0  0  0  0  0  0
   21.3622    3.5069  -66.8512 N   0  0  0  1  0  0  0  0  0  0  0  0
   22.0341    2.2461  -67.1048 C   0  0  0  1  0  0  0  0  0  0  0  0
   19.5090    4.1192  -65.4602 C   0  0  0  1  0  0  0  0  0  0  0  0
   18.1454    4.2235  -65.2619 C   0  0  0  1  0  0  0  0  0  0  0  0
   17.2399    3.8489  -66.1707 N   0  0  0  1  0  0  0  0  0  0  0  0
   17.7001    3.3481  -67.3260 C   0  0  0  1  0  0  0  0  0  0  0  0
   19.0479    3.2118  -67.6092 C   0  0  0  1  0  0  0  0  0  0  0  0
   27.4789    0.0014  -66.6492 H   0  0  0  1  0  0  0  0  0  0  0  0
   26.4319   -0.4152  -60.3142 H   0  0  0  1  0  0  0  0  0  0  0  0
   26.0001    4.3588  -59.5866 H   0  0  0  1  0  0  0  0  0  0  0  0
   26.8142    3.5262  -61.7105 H   0  0  0  1  0  0  0  0  0  0  0  0
   25.6164    0.4188  -58.1869 H   0  0  0  1  0  0  0  0  0  0  0  0
   24.0618    2.0433  -67.7105 H   0  0  0  1  0  0  0  0  0  0  0  0
   23.4943    4.1779  -68.5368 H   0  0  0  1  0  0  0  0  0  0  0  0
   24.4024    4.5748  -67.0974 H   0  0  0  1  0  0  0  0  0  0  0  0
   21.8372    5.4654  -67.3775 H   0  0  0  1  0  0  0  0  0  0  0  0
   22.4202    4.9663  -65.8074 H   0  0  0  1  0  0  0  0  0  0  0  0
   23.4923    2.9359  -64.9654 H   0  0  0  1  0  0  0  0  0  0  0  0
   24.1225    1.4669  -56.9240 H   0  0  0  1  0  0  0  0  0  0  0  0
   24.5520    2.6523  -55.7146 H   0  0  0  1  0  0  0  0  0  0  0  0
   25.7447    1.5052  -56.2764 H   0  0  0  1  0  0  0  0  0  0  0  0
   21.7781    1.8559  -68.0678 H   0  0  0  1  0  0  0  0  0  0  0  0
   21.7999    1.5223  -66.3524 H   0  0  0  1  0  0  0  0  0  0  0  0
   20.1764    4.4216  -64.7221 H   0  0  0  1  0  0  0  0  0  0  0  0
   17.8065    4.6134  -64.3593 H   0  0  0  1  0  0  0  0  0  0  0  0
   17.0108    3.0474  -68.0443 H   0  0  0  1  0  0  0  0  0  0  0  0
   19.3609    2.8208  -68.5205 H   0  0  0  1  0  0  0  0  0  0  0  0
  1  3  4  0  0  0  0
  1 14  4  0  0  0  0
  1 21  1  0  0  0  0
  2 14  4  0  0  0  0
  2 15  4  0  0  0  0
  2 30  1  0  0  0  0
  3 16  4  0  0  0  0
  4  5  4  0  0  0  0
  4  7  4  0  0  0  0
  4 17  1  0  0  0  0
  5  9  4  0  0  0  0
  5 31  1  0  0  0  0
  6  7  4  0  0  0  0
  6  8  4  0  0  0  0
  6 32  1  0  0  0  0
  7 33  1  0  0  0  0
  8  9  4  0  0  0  0
  8 20  1  0  0  0  0
  9 34  1  0  0  0  0
 10 11  1  0  0  0  0
 10 21  1  0  0  0  0
 10 24  1  0  0  0  0
 10 35  1  0  0  0  0
 11 12  1  0  0  0  0
 11 36  1  0  0  0  0
 11 37  1  0  0  0  0
 12 23  1  0  0  0  0
 12 38  1  0  0  0  0
 12 39  1  0  0  0  0
 13 23  1  0  0  0  0
 13 25  4  0  0  0  0
 13 29  4  0  0  0  0
 15 16  4  0  0  0  0
 15 18  4  0  0  0  0
 16 17  4  0  0  0  0
 17 19  4  0  0  0  0
 18 19  4  0  0  0  0
 20 22  1  0  0  0  0
 21 40  1  0  0  0  0
 22 41  1  0  0  0  0
 22 42  1  0  0  0  0
 22 43  1  0  0  0  0
 23 24  1  0  0  0  0
 24 44  1  0  0  0  0
 24 45  1  0  0  0  0
 25 26  4  0  0  0  0
 25 46  1  0  0  0  0
 26 27  4  0  0  0  0
 26 47  1  0  0  0  0
 27 28  4  0  0  0  0
 28 29  4  0  0  0  0
 28 48  1  0  0  0  0
 29 49  1  0  0  0  0
M  END
> <ConfClashScore>
0 

> <ConfOneFourInteractionScore>
-0.986948 

> <ConfScore>
0.103032 

> <ConfScorePBest>
0.00224709 

> <ConfTolerance>
1.0913 

> <HETNAM>
     OWQ A 303  OWQ                                                       

> <pdb_OW>
Q_303 -16.5129 3.80749 7.62812 0.15963 1.39178 -0.28144 -3.20151 0 0 0 -1.30514 0 0 0 0 0 0 0 0 -8.31393

$$$$
6yky_lig_1.pdb
 OpenBabel04162415593D

 49 53  0  0  0  0  0  0  0  0999 V2000
   25.1048    1.8135  -65.3760 C   0  0  0  1  0  0  0  0  0  0  0  0
   26.9167    0.5034  -65.9326 C   0  0  0  1  0  0  0  0  0  0  0  0
   25.4178    1.8283  -64.0983 N   0  0  0  1  0  0  0  0  0  0  0  0
   26.7669    1.4473  -61.1215 C   0  0  0  1  0  0  0  0  0  0  0  0
   27.2032    2.7031  -60.7439 C   0  0  0  1  0  0  0  0  0  0  0  0
   25.9287    1.0701  -58.9074 C   0  0  0  1  0  0  0  0  0  0  0  0
   26.1311    0.6284  -60.2013 C   0  0  0  1  0  0  0  0  0  0  0  0
   26.3663    2.3296  -58.5284 C   0  0  0  1  0  0  0  0  0  0  0  0
   27.0001    3.1460  -59.4461 C   0  0  0  1  0  0  0  0  0  0  0  0
   23.0920    3.1250  -64.8460 C   0  0  0  1  0  0  0  0  0  0  0  0
   21.9071    2.2101  -64.4975 C   0  0  0  1  0  0  0  0  0  0  0  0
   20.8542    3.2277  -64.0320 C   0  0  0  1  0  0  0  0  0  0  0  0
   21.0602    5.7900  -63.8570 C   0  0  0  1  0  0  0  0  0  0  0  0
   25.8297    1.1707  -66.2748 N   0  0  0  1  0  0  0  0  0  0  0  0
   27.2965    0.4857  -64.5857 C   0  0  0  1  0  0  0  0  0  0  0  0
   26.4936    1.1852  -63.6614 C   0  0  0  1  0  0  0  0  0  0  0  0
   27.0809    1.0061  -62.4396 N   0  0  0  1  0  0  0  0  0  0  0  0
   28.3159   -0.0766  -63.9004 N   0  0  0  1  0  0  0  0  0  0  0  0
   28.2164    0.2092  -62.6490 N   0  0  0  1  0  0  0  0  0  0  0  0
   26.0980    2.6092  -57.2308 O   0  0  0  1  0  0  0  0  0  0  0  0
   23.9920    2.4856  -65.7896 N   0  0  0  1  0  0  0  0  0  0  0  0
   26.7228    3.7732  -56.6676 C   0  0  0  1  0  0  0  0  0  0  0  0
   21.4072    4.5643  -64.4048 N   0  0  0  1  0  0  0  0  0  0  0  0
   22.3958    4.3205  -65.4716 C   0  0  0  1  0  0  0  0  0  0  0  0
   21.5228    6.9676  -64.4146 C   0  0  0  1  0  0  0  0  0  0  0  0
   21.1493    8.1672  -63.8391 C   0  0  0  1  0  0  0  0  0  0  0  0
   20.3616    8.2522  -62.7628 N   0  0  0  1  0  0  0  0  0  0  0  0
   19.9239    7.1026  -62.2298 C   0  0  0  1  0  0  0  0  0  0  0  0
   20.2456    5.8584  -62.7436 C   0  0  0  1  0  0  0  0  0  0  0  0
   27.4790    0.0013  -66.6492 H   0  0  0  1  0  0  0  0  0  0  0  0
   27.6838    3.3159  -61.4332 H   0  0  0  1  0  0  0  0  0  0  0  0
   25.4482    0.4573  -58.2180 H   0  0  0  1  0  0  0  0  0  0  0  0
   25.8065   -0.3181  -60.4845 H   0  0  0  1  0  0  0  0  0  0  0  0
   27.3249    4.0925  -59.1629 H   0  0  0  1  0  0  0  0  0  0  0  0
   23.6359    3.4073  -63.9688 H   0  0  0  1  0  0  0  0  0  0  0  0
   22.1601    1.5254  -63.7152 H   0  0  0  1  0  0  0  0  0  0  0  0
   21.5703    1.6649  -65.3544 H   0  0  0  1  0  0  0  0  0  0  0  0
   19.9220    3.0562  -64.5284 H   0  0  0  1  0  0  0  0  0  0  0  0
   20.7125    3.1628  -62.9734 H   0  0  0  1  0  0  0  0  0  0  0  0
   23.7948    2.5384  -66.7481 H   0  0  0  1  0  0  0  0  0  0  0  0
   26.4475    4.6368  -57.2361 H   0  0  0  1  0  0  0  0  0  0  0  0
   27.7859    3.6542  -56.6923 H   0  0  0  1  0  0  0  0  0  0  0  0
   26.4006    3.8957  -55.6546 H   0  0  0  1  0  0  0  0  0  0  0  0
   23.0582    5.1498  -65.6071 H   0  0  0  1  0  0  0  0  0  0  0  0
   21.9328    4.0770  -66.4050 H   0  0  0  1  0  0  0  0  0  0  0  0
   22.1402    6.9510  -65.2513 H   0  0  0  1  0  0  0  0  0  0  0  0
   21.4991    9.0490  -64.2654 H   0  0  0  1  0  0  0  0  0  0  0  0
   19.3129    7.1478  -61.3895 H   0  0  0  1  0  0  0  0  0  0  0  0
   19.8809    4.9914  -62.2998 H   0  0  0  1  0  0  0  0  0  0  0  0
  1  3  4  0  0  0  0
  1 14  4  0  0  0  0
  1 21  1  0  0  0  0
  2 14  4  0  0  0  0
  2 15  4  0  0  0  0
  2 30  1  0  0  0  0
  3 16  4  0  0  0  0
  4  5  4  0  0  0  0
  4  7  4  0  0  0  0
  4 17  1  0  0  0  0
  5  9  4  0  0  0  0
  5 31  1  0  0  0  0
  6  7  4  0  0  0  0
  6  8  4  0  0  0  0
  6 32  1  0  0  0  0
  7 33  1  0  0  0  0
  8  9  4  0  0  0  0
  8 20  1  0  0  0  0
  9 34  1  0  0  0  0
 10 11  1  0  0  0  0
 10 21  1  0  0  0  0
 10 24  1  0  0  0  0
 10 35  1  0  0  0  0
 11 12  1  0  0  0  0
 11 36  1  0  0  0  0
 11 37  1  0  0  0  0
 12 23  1  0  0  0  0
 12 38  1  0  0  0  0
 12 39  1  0  0  0  0
 13 23  1  0  0  0  0
 13 25  4  0  0  0  0
 13 29  4  0  0  0  0
 15 16  4  0  0  0  0
 15 18  4  0  0  0  0
 16 17  4  0  0  0  0
 17 19  4  0  0  0  0
 18 19  4  0  0  0  0
 20 22  1  0  0  0  0
 21 40  1  0  0  0  0
 22 41  1  0  0  0  0
 22 42  1  0  0  0  0
 22 43  1  0  0  0  0
 23 24  1  0  0  0  0
 24 44  1  0  0  0  0
 24 45  1  0  0  0  0
 25 26  4  0  0  0  0
 25 46  1  0  0  0  0
 26 27  4  0  0  0  0
 26 47  1  0  0  0  0
 27 28  4  0  0  0  0
 28 29  4  0  0  0  0
 28 48  1  0  0  0  0
 29 49  1  0  0  0  0
M  END
> <ConfClashScore>
0 

> <ConfOneFourInteractionScore>
-0.991755 

> <ConfScore>
0.103216 

> <ConfScorePBest>
0.00223376 

> <ConfTolerance>
0.524247 

> <HETNAM>
     OWQ A 303  OWQ                                                       

> <pdb_OW>
Q_303 -16.5129 3.80749 7.62812 0.15963 1.39178 -0.28144 -3.20151 0 0 0 -1.30514 0 0 0 0 0 0 0 0 -8.31393

$$$$
6yky_lig_1.pdb
 OpenBabel04162415593D

 49 53  0  0  0  0  0  0  0  0999 V2000
   25.1049    1.8136  -65.3760 C   0  0  0  1  0  0  0  0  0  0  0  0
   26.9167    0.5034  -65.9325 C   0  0  0  1  0  0  0  0  0  0  0  0
   25.4179    1.8284  -64.0982 N   0  0  0  1  0  0  0  0  0  0  0  0
   26.6855    1.4951  -61.1608 C   0  0  0  1  0  0  0  0  0  0  0  0
   26.4584    0.6118  -60.1223 C   0  0  0  1  0  0  0  0  0  0  0  0
   25.9723    3.3147  -59.7724 C   0  0  0  1  0  0  0  0  0  0  0  0
   26.4396    2.8481  -60.9865 C   0  0  0  1  0  0  0  0  0  0  0  0
   25.7444    2.4289  -58.7307 C   0  0  0  1  0  0  0  0  0  0  0  0
   25.9896    1.0798  -58.9046 C   0  0  0  1  0  0  0  0  0  0  0  0
   23.1256    3.1736  -64.8126 C   0  0  0  1  0  0  0  0  0  0  0  0
   22.1777    4.2057  -65.4838 C   0  0  0  1  0  0  0  0  0  0  0  0
   21.8745    5.3030  -64.4421 C   0  0  0  1  0  0  0  0  0  0  0  0
   23.0252    5.7800  -62.1922 C   0  0  0  1  0  0  0  0  0  0  0  0
   25.8297    1.1707  -66.2748 N   0  0  0  1  0  0  0  0  0  0  0  0
   27.2965    0.4857  -64.5857 C   0  0  0  1  0  0  0  0  0  0  0  0
   26.4937    1.1853  -63.6614 C   0  0  0  1  0  0  0  0  0  0  0  0
   27.0810    1.0062  -62.4395 N   0  0  0  1  0  0  0  0  0  0  0  0
   28.3159   -0.0766  -63.9004 N   0  0  0  1  0  0  0  0  0  0  0  0
   28.2164    0.2093  -62.6490 N   0  0  0  1  0  0  0  0  0  0  0  0
   25.2837    2.9985  -57.5957 O   0  0  0  1  0  0  0  0  0  0  0  0
   23.9768    2.4949  -65.7951 N   0  0  0  1  0  0  0  0  0  0  0  0
   24.8155    2.1637  -56.5250 C   0  0  0  1  0  0  0  0  0  0  0  0
   22.9546    5.1068  -63.4341 N   0  0  0  1  0  0  0  0  0  0  0  0
   23.9378    4.1180  -63.9055 C   0  0  0  1  0  0  0  0  0  0  0  0
   22.1383    5.4781  -61.1753 C   0  0  0  1  0  0  0  0  0  0  0  0
   22.2453    6.1571  -59.9766 C   0  0  0  1  0  0  0  0  0  0  0  0
   23.1644    7.0994  -59.7453 N   0  0  0  1  0  0  0  0  0  0  0  0
   24.0151    7.3851  -60.7413 C   0  0  0  1  0  0  0  0  0  0  0  0
   23.9816    6.7518  -61.9714 C   0  0  0  1  0  0  0  0  0  0  0  0
   27.4789    0.0013  -66.6492 H   0  0  0  1  0  0  0  0  0  0  0  0
   26.6391   -0.4037  -60.2545 H   0  0  0  1  0  0  0  0  0  0  0  0
   25.7917    4.3302  -59.6403 H   0  0  0  1  0  0  0  0  0  0  0  0
   26.6068    3.5121  -61.7694 H   0  0  0  1  0  0  0  0  0  0  0  0
   25.8225    0.4158  -58.1219 H   0  0  0  1  0  0  0  0  0  0  0  0
   22.5839    2.4455  -64.2458 H   0  0  0  1  0  0  0  0  0  0  0  0
   21.2695    3.7262  -65.7840 H   0  0  0  1  0  0  0  0  0  0  0  0
   22.6541    4.6363  -66.3398 H   0  0  0  1  0  0  0  0  0  0  0  0
   20.9084    5.1625  -64.0043 H   0  0  0  1  0  0  0  0  0  0  0  0
   21.9294    6.2772  -64.8814 H   0  0  0  1  0  0  0  0  0  0  0  0
   23.7466    2.5242  -66.7473 H   0  0  0  1  0  0  0  0  0  0  0  0
   25.6501    1.6957  -56.0460 H   0  0  0  1  0  0  0  0  0  0  0  0
   24.1629    1.4124  -56.9182 H   0  0  0  1  0  0  0  0  0  0  0  0
   24.2849    2.7608  -55.8132 H   0  0  0  1  0  0  0  0  0  0  0  0
   24.7195    4.5952  -64.4589 H   0  0  0  1  0  0  0  0  0  0  0  0
   24.3601    3.5813  -63.0816 H   0  0  0  1  0  0  0  0  0  0  0  0
   21.4045    4.7536  -61.3102 H   0  0  0  1  0  0  0  0  0  0  0  0
   21.5764    5.9230  -59.2154 H   0  0  0  1  0  0  0  0  0  0  0  0
   24.7352    8.1183  -60.5818 H   0  0  0  1  0  0  0  0  0  0  0  0
   24.6635    7.0029  -62.7154 H   0  0  0  1  0  0  0  0  0  0  0  0
  1  3  4  0  0  0  0
  1 14  4  0  0  0  0
  1 21  1  0  0  0  0
  2 14  4  0  0  0  0
  2 15  4  0  0  0  0
  2 30  1  0  0  0  0
  3 16  4  0  0  0  0
  4  5  4  0  0  0  0
  4  7  4  0  0  0  0
  4 17  1  0  0  0  0
  5  9  4  0  0  0  0
  5 31  1  0  0  0  0
  6  7  4  0  0  0  0
  6  8  4  0  0  0  0
  6 32  1  0  0  0  0
  7 33  1  0  0  0  0
  8  9  4  0  0  0  0
  8 20  1  0  0  0  0
  9 34  1  0  0  0  0
 10 11  1  0  0  0  0
 10 21  1  0  0  0  0
 10 24  1  0  0  0  0
 10 35  1  0  0  0  0
 11 12  1  0  0  0  0
 11 36  1  0  0  0  0
 11 37  1  0  0  0  0
 12 23  1  0  0  0  0
 12 38  1  0  0  0  0
 12 39  1  0  0  0  0
 13 23  1  0  0  0  0
 13 25  4  0  0  0  0
 13 29  4  0  0  0  0
 15 16  4  0  0  0  0
 15 18  4  0  0  0  0
 16 17  4  0  0  0  0
 17 19  4  0  0  0  0
 18 19  4  0  0  0  0
 20 22  1  0  0  0  0
 21 40  1  0  0  0  0
 22 41  1  0  0  0  0
 22 42  1  0  0  0  0
 22 43  1  0  0  0  0
 23 24  1  0  0  0  0
 24 44  1  0  0  0  0
 24 45  1  0  0  0  0
 25 26  4  0  0  0  0
 25 46  1  0  0  0  0
 26 27  4  0  0  0  0
 26 47  1  0  0  0  0
 27 28  4  0  0  0  0
 28 29  4  0  0  0  0
 28 48  1  0  0  0  0
 29 49  1  0  0  0  0
M  END
> <ConfClashScore>
0 

> <ConfOneFourInteractionScore>
-0.987833 

> <ConfScore>
0.103882 

> <ConfScorePBest>
0.00222043 

> <ConfTolerance>
0.425504 

> <HETNAM>
     OWQ A 303  OWQ                                                       

> <pdb_OW>
Q_303 -16.5129 3.80749 7.62812 0.15963 1.39178 -0.28144 -3.20151 0 0 0 -1.30514 0 0 0 0 0 0 0 0 -8.31393

$$$$
6yky_lig_1.pdb
 OpenBabel04162415593D

 49 53  0  0  0  0  0  0  0  0999 V2000
   25.1048    1.8136  -65.3760 C   0  0  0  1  0  0  0  0  0  0  0  0
   26.9167    0.5034  -65.9326 C   0  0  0  1  0  0  0  0  0  0  0  0
   25.4178    1.8283  -64.0982 N   0  0  0  1  0  0  0  0  0  0  0  0
   26.8116    1.5872  -61.1666 C   0  0  0  1  0  0  0  0  0  0  0  0
   25.8087    1.0706  -60.3683 C   0  0  0  1  0  0  0  0  0  0  0  0
   27.1751    3.3443  -59.5767 C   0  0  0  1  0  0  0  0  0  0  0  0
   27.4941    2.7272  -60.7717 C   0  0  0  1  0  0  0  0  0  0  0  0
   26.1692    2.8263  -58.7759 C   0  0  0  1  0  0  0  0  0  0  0  0
   25.4888    1.6895  -59.1700 C   0  0  0  1  0  0  0  0  0  0  0  0
   23.1381    3.1669  -64.7111 C   0  0  0  1  0  0  0  0  0  0  0  0
   22.7736    2.2236  -63.5313 C   0  0  0  1  0  0  0  0  0  0  0  0
   21.4123    2.6861  -62.9712 C   0  0  0  1  0  0  0  0  0  0  0  0
   19.6930    4.3245  -63.9808 C   0  0  0  1  0  0  0  0  0  0  0  0
   25.8296    1.1707  -66.2748 N   0  0  0  1  0  0  0  0  0  0  0  0
   27.2965    0.4857  -64.5857 C   0  0  0  1  0  0  0  0  0  0  0  0
   26.4937    1.1851  -63.6614 C   0  0  0  1  0  0  0  0  0  0  0  0
   27.0809    1.0061  -62.4395 N   0  0  0  1  0  0  0  0  0  0  0  0
   28.3159   -0.0766  -63.9004 N   0  0  0  1  0  0  0  0  0  0  0  0
   28.2164    0.2092  -62.6490 N   0  0  0  1  0  0  0  0  0  0  0  0
   25.9557    3.4016  -57.5687 O   0  0  0  1  0  0  0  0  0  0  0  0
   23.9888    2.5048  -65.6921 N   0  0  0  1  0  0  0  0  0  0  0  0
   26.6262    4.6442  -57.3062 C   0  0  0  1  0  0  0  0  0  0  0  0
   20.8742    3.5336  -64.0726 N   0  0  0  1  0  0  0  0  0  0  0  0
   21.7282    3.4431  -65.2683 C   0  0  0  1  0  0  0  0  0  0  0  0
   18.9222    4.3097  -62.8331 C   0  0  0  1  0  0  0  0  0  0  0  0
   17.7863    5.0952  -62.7851 C   0  0  0  1  0  0  0  0  0  0  0  0
   17.3869    5.8723  -63.7963 N   0  0  0  1  0  0  0  0  0  0  0  0
   18.1412    5.8736  -64.9047 C   0  0  0  1  0  0  0  0  0  0  0  0
   19.2952    5.1212  -65.0368 C   0  0  0  1  0  0  0  0  0  0  0  0
   27.4790    0.0014  -66.6492 H   0  0  0  1  0  0  0  0  0  0  0  0
   25.2939    0.2175  -60.6667 H   0  0  0  1  0  0  0  0  0  0  0  0
   27.6898    4.1973  -59.2783 H   0  0  0  1  0  0  0  0  0  0  0  0
   28.2461    3.1183  -61.3744 H   0  0  0  1  0  0  0  0  0  0  0  0
   24.7368    1.2985  -58.5673 H   0  0  0  1  0  0  0  0  0  0  0  0
   23.6146    4.0629  -64.3718 H   0  0  0  1  0  0  0  0  0  0  0  0
   23.5223    2.2858  -62.7694 H   0  0  0  1  0  0  0  0  0  0  0  0
   22.7015    1.2144  -63.8796 H   0  0  0  1  0  0  0  0  0  0  0  0
   21.5379    3.2548  -62.0735 H   0  0  0  1  0  0  0  0  0  0  0  0
   20.7711    1.8515  -62.7786 H   0  0  0  1  0  0  0  0  0  0  0  0
   23.7359    2.5648  -66.6370 H   0  0  0  1  0  0  0  0  0  0  0  0
   27.6834    4.5052  -57.3951 H   0  0  0  1  0  0  0  0  0  0  0  0
   26.3920    4.9731  -56.3154 H   0  0  0  1  0  0  0  0  0  0  0  0
   26.3028    5.3799  -58.0126 H   0  0  0  1  0  0  0  0  0  0  0  0
   21.4082    2.6430  -65.9024 H   0  0  0  1  0  0  0  0  0  0  0  0
   21.7110    4.3620  -65.8163 H   0  0  0  1  0  0  0  0  0  0  0  0
   19.1923    3.7186  -62.0212 H   0  0  0  1  0  0  0  0  0  0  0  0
   17.2128    5.0808  -61.9175 H   0  0  0  1  0  0  0  0  0  0  0  0
   17.8447    6.4691  -65.7041 H   0  0  0  1  0  0  0  0  0  0  0  0
   19.8523    5.1549  -65.9143 H   0  0  0  1  0  0  0  0  0  0  0  0
  1  3  4  0  0  0  0
  1 14  4  0  0  0  0
  1 21  1  0  0  0  0
  2 14  4  0  0  0  0
  2 15  4  0  0  0  0
  2 30  1  0  0  0  0
  3 16  4  0  0  0  0
  4  5  4  0  0  0  0
  4  7  4  0  0  0  0
  4 17  1  0  0  0  0
  5  9  4  0  0  0  0
  5 31  1  0  0  0  0
  6  7  4  0  0  0  0
  6  8  4  0  0  0  0
  6 32  1  0  0  0  0
  7 33  1  0  0  0  0
  8  9  4  0  0  0  0
  8 20  1  0  0  0  0
  9 34  1  0  0  0  0
 10 11  1  0  0  0  0
 10 21  1  0  0  0  0
 10 24  1  0  0  0  0
 10 35  1  0  0  0  0
 11 12  1  0  0  0  0
 11 36  1  0  0  0  0
 11 37  1  0  0  0  0
 12 23  1  0  0  0  0
 12 38  1  0  0  0  0
 12 39  1  0  0  0  0
 13 23  1  0  0  0  0
 13 25  4  0  0  0  0
 13 29  4  0  0  0  0
 15 16  4  0  0  0  0
 15 18  4  0  0  0  0
 16 17  4  0  0  0  0
 17 19  4  0  0  0  0
 18 19  4  0  0  0  0
 20 22  1  0  0  0  0
 21 40  1  0  0  0  0
 22 41  1  0  0  0  0
 22 42  1  0  0  0  0
 22 43  1  0  0  0  0
 23 24  1  0  0  0  0
 24 44  1  0  0  0  0
 24 45  1  0  0  0  0
 25 26  4  0  0  0  0
 25 46  1  0  0  0  0
 26 27  4  0  0  0  0
 26 47  1  0  0  0  0
 27 28  4  0  0  0  0
 28 29  4  0  0  0  0
 28 48  1  0  0  0  0
 29 49  1  0  0  0  0
M  END
> <ConfClashScore>
0 

> <ConfOneFourInteractionScore>
-0.987833 

> <ConfScore>
0.104166 

> <ConfScorePBest>
0.0022071 

> <ConfTolerance>
0.646134 

> <HETNAM>
     OWQ A 303  OWQ                                                       

> <pdb_OW>
Q_303 -16.5129 3.80749 7.62812 0.15963 1.39178 -0.28144 -3.20151 0 0 0 -1.30514 0 0 0 0 0 0 0 0 -8.31393

$$$$
6yky_lig_1.pdb
 OpenBabel04162415593D

 49 53  0  0  0  0  0  0  0  0999 V2000
   25.1047    1.8136  -65.3761 C   0  0  0  1  0  0  0  0  0  0  0  0
   26.9167    0.5034  -65.9326 C   0  0  0  1  0  0  0  0  0  0  0  0
   25.4178    1.8283  -64.0982 N   0  0  0  1  0  0  0  0  0  0  0  0
   26.7286    1.4700  -61.1391 C   0  0  0  1  0  0  0  0  0  0  0  0
   27.0316    2.7642  -60.7605 C   0  0  0  1  0  0  0  0  0  0  0  0
   25.9030    1.0158  -58.9347 C   0  0  0  1  0  0  0  0  0  0  0  0
   26.1659    0.5936  -60.2243 C   0  0  0  1  0  0  0  0  0  0  0  0
   26.2067    2.3138  -58.5547 C   0  0  0  1  0  0  0  0  0  0  0  0
   26.7678    3.1874  -59.4671 C   0  0  0  1  0  0  0  0  0  0  0  0
   23.0705    3.1234  -64.8820 C   0  0  0  1  0  0  0  0  0  0  0  0
   21.7321    2.3539  -64.8234 C   0  0  0  1  0  0  0  0  0  0  0  0
   20.6220    3.3744  -64.8096 C   0  0  0  1  0  0  0  0  0  0  0  0
   20.7431    5.8570  -65.4783 C   0  0  0  1  0  0  0  0  0  0  0  0
   25.8296    1.1707  -66.2747 N   0  0  0  1  0  0  0  0  0  0  0  0
   27.2964    0.4857  -64.5857 C   0  0  0  1  0  0  0  0  0  0  0  0
   26.4936    1.1852  -63.6614 C   0  0  0  1  0  0  0  0  0  0  0  0
   27.0809    1.0062  -62.4395 N   0  0  0  1  0  0  0  0  0  0  0  0
   28.3159   -0.0766  -63.9004 N   0  0  0  1  0  0  0  0  0  0  0  0
   28.2164    0.2092  -62.6491 N   0  0  0  1  0  0  0  0  0  0  0  0
   26.0001    2.8373  -57.3230 O   0  0  0  1  0  0  0  0  0  0  0  0
   24.0075    2.4762  -65.7838 N   0  0  0  1  0  0  0  0  0  0  0  0
   25.3777    1.9891  -56.3454 C   0  0  0  1  0  0  0  0  0  0  0  0
   21.3768    4.6447  -65.2581 N   0  0  0  1  0  0  0  0  0  0  0  0
   22.6517    4.4810  -65.4110 C   0  0  0  1  0  0  0  0  0  0  0  0
   19.3688    5.9638  -65.3703 C   0  0  0  1  0  0  0  0  0  0  0  0
   18.7780    7.1928  -65.5944 C   0  0  0  1  0  0  0  0  0  0  0  0
   19.4673    8.2920  -65.9152 N   0  0  0  1  0  0  0  0  0  0  0  0
   20.7985    8.1730  -66.0208 C   0  0  0  1  0  0  0  0  0  0  0  0
   21.4719    6.9825  -65.8099 C   0  0  0  1  0  0  0  0  0  0  0  0
   27.4788    0.0013  -66.6492 H   0  0  0  1  0  0  0  0  0  0  0  0
   27.4575    3.4204  -61.4457 H   0  0  0  1  0  0  0  0  0  0  0  0
   25.4771    0.3596  -58.2494 H   0  0  0  1  0  0  0  0  0  0  0  0
   25.9417   -0.3814  -60.5082 H   0  0  0  1  0  0  0  0  0  0  0  0
   26.9921    4.1625  -59.1831 H   0  0  0  1  0  0  0  0  0  0  0  0
   23.5101    3.2070  -63.9100 H   0  0  0  1  0  0  0  0  0  0  0  0
   21.6918    1.7585  -63.9352 H   0  0  0  1  0  0  0  0  0  0  0  0
   21.6364    1.7221  -65.6816 H   0  0  0  1  0  0  0  0  0  0  0  0
   20.2079    3.4898  -63.8297 H   0  0  0  1  0  0  0  0  0  0  0  0
   19.8443    3.1168  -65.4979 H   0  0  0  1  0  0  0  0  0  0  0  0
   23.8296    2.5253  -66.7463 H   0  0  0  1  0  0  0  0  0  0  0  0
   24.8324    2.5891  -55.6473 H   0  0  0  1  0  0  0  0  0  0  0  0
   26.1295    1.4324  -55.8261 H   0  0  0  1  0  0  0  0  0  0  0  0
   24.7073    1.3137  -56.8348 H   0  0  0  1  0  0  0  0  0  0  0  0
   23.1734    5.2459  -64.8745 H   0  0  0  1  0  0  0  0  0  0  0  0
   22.8944    4.5454  -66.4512 H   0  0  0  1  0  0  0  0  0  0  0  0
   18.7907    5.1349  -65.1250 H   0  0  0  1  0  0  0  0  0  0  0  0
   17.7442    7.2661  -65.5089 H   0  0  0  1  0  0  0  0  0  0  0  0
   21.3520    9.0164  -66.2735 H   0  0  0  1  0  0  0  0  0  0  0  0
   22.5070    6.9361  -65.8996 H   0  0  0  1  0  0  0  0  0  0  0  0
  1  3  4  0  0  0  0
  1 14  4  0  0  0  0
  1 21  1  0  0  0  0
  2 14  4  0  0  0  0
  2 15  4  0  0  0  0
  2 30  1  0  0  0  0
  3 16  4  0  0  0  0
  4  5  4  0  0  0  0
  4  7  4  0  0  0  0
  4 17  1  0  0  0  0
  5  9  4  0  0  0  0
  5 31  1  0  0  0  0
  6  7  4  0  0  0  0
  6  8  4  0  0  0  0
  6 32  1  0  0  0  0
  7 33  1  0  0  0  0
  8  9  4  0  0  0  0
  8 20  1  0  0  0  0
  9 34  1  0  0  0  0
 10 11  1  0  0  0  0
 10 21  1  0  0  0  0
 10 24  1  0  0  0  0
 10 35  1  0  0  0  0
 11 12  1  0  0  0  0
 11 36  1  0  0  0  0
 11 37  1  0  0  0  0
 12 23  1  0  0  0  0
 12 38  1  0  0  0  0
 12 39  1  0  0  0  0
 13 23  1  0  0  0  0
 13 25  4  0  0  0  0
 13 29  4  0  0  0  0
 15 16  4  0  0  0  0
 15 18  4  0  0  0  0
 16 17  4  0  0  0  0
 17 19  4  0  0  0  0
 18 19  4  0  0  0  0
 20 22  1  0  0  0  0
 21 40  1  0  0  0  0
 22 41  1  0  0  0  0
 22 42  1  0  0  0  0
 22 43  1  0  0  0  0
 23 24  1  0  0  0  0
 24 44  1  0  0  0  0
 24 45  1  0  0  0  0
 25 26  4  0  0  0  0
 25 46  1  0  0  0  0
 26 27  4  0  0  0  0
 26 47  1  0  0  0  0
 27 28  4  0  0  0  0
 28 29  4  0  0  0  0
 28 48  1  0  0  0  0
 29 49  1  0  0  0  0
M  END
> <ConfClashScore>
0 

> <ConfOneFourInteractionScore>
-0.986948 

> <ConfScore>
0.104317 

> <ConfScorePBest>
0.00219377 

> <ConfTolerance>
0.767744 

> <HETNAM>
     OWQ A 303  OWQ                                                       

> <pdb_OW>
Q_303 -16.5129 3.80749 7.62812 0.15963 1.39178 -0.28144 -3.20151 0 0 0 -1.30514 0 0 0 0 0 0 0 0 -8.31393

$$$$
6yky_lig_1.pdb
 OpenBabel04162415593D

 49 53  0  0  0  0  0  0  0  0999 V2000
   25.1047    1.8134  -65.3759 C   0  0  0  1  0  0  0  0  0  0  0  0
   26.9167    0.5034  -65.9326 C   0  0  0  1  0  0  0  0  0  0  0  0
   25.4177    1.8283  -64.0982 N   0  0  0  1  0  0  0  0  0  0  0  0
   26.7285    1.4698  -61.1390 C   0  0  0  1  0  0  0  0  0  0  0  0
   25.7087    2.3897  -60.9852 C   0  0  0  1  0  0  0  0  0  0  0  0
   27.1876    1.5823  -58.7888 C   0  0  0  1  0  0  0  0  0  0  0  0
   27.4709    1.0674  -60.0397 C   0  0  0  1  0  0  0  0  0  0  0  0
   26.1646    2.5051  -58.6342 C   0  0  0  1  0  0  0  0  0  0  0  0
   25.4245    2.9061  -59.7306 C   0  0  0  1  0  0  0  0  0  0  0  0
   23.0974    3.1334  -64.8465 C   0  0  0  1  0  0  0  0  0  0  0  0
   22.1348    4.0953  -65.5611 C   0  0  0  1  0  0  0  0  0  0  0  0
   21.7509    5.0541  -64.4236 C   0  0  0  1  0  0  0  0  0  0  0  0
   22.5054    5.0204  -61.9345 C   0  0  0  1  0  0  0  0  0  0  0  0
   25.8297    1.1707  -66.2747 N   0  0  0  1  0  0  0  0  0  0  0  0
   27.2964    0.4857  -64.5857 C   0  0  0  1  0  0  0  0  0  0  0  0
   26.4936    1.1851  -63.6614 C   0  0  0  1  0  0  0  0  0  0  0  0
   27.0809    1.0060  -62.4395 N   0  0  0  1  0  0  0  0  0  0  0  0
   28.3159   -0.0766  -63.9004 N   0  0  0  1  0  0  0  0  0  0  0  0
   28.2164    0.2092  -62.6490 N   0  0  0  1  0  0  0  0  0  0  0  0
   25.7998    3.0804  -57.4639 O   0  0  0  1  0  0  0  0  0  0  0  0
   23.9918    2.4855  -65.7894 N   0  0  0  1  0  0  0  0  0  0  0  0
   26.4168    2.5812  -56.2670 C   0  0  0  1  0  0  0  0  0  0  0  0
   22.6922    4.7375  -63.3078 N   0  0  0  1  0  0  0  0  0  0  0  0
   23.8548    4.0712  -63.9233 C   0  0  0  1  0  0  0  0  0  0  0  0
   23.0659    6.1487  -61.3648 C   0  0  0  1  0  0  0  0  0  0  0  0
   22.8552    6.3890  -60.0204 C   0  0  0  1  0  0  0  0  0  0  0  0
   22.1361    5.5826  -59.2337 N   0  0  0  1  0  0  0  0  0  0  0  0
   21.6023    4.4901  -59.7981 C   0  0  0  1  0  0  0  0  0  0  0  0
   21.7597    4.1749  -61.1365 C   0  0  0  1  0  0  0  0  0  0  0  0
   27.4789    0.0013  -66.6492 H   0  0  0  1  0  0  0  0  0  0  0  0
   25.1543    2.6946  -61.8107 H   0  0  0  1  0  0  0  0  0  0  0  0
   27.7418    1.2775  -57.9633 H   0  0  0  1  0  0  0  0  0  0  0  0
   28.2409    0.3782  -60.1562 H   0  0  0  1  0  0  0  0  0  0  0  0
   24.6546    3.5953  -59.6141 H   0  0  0  1  0  0  0  0  0  0  0  0
   22.5634    2.3901  -64.2922 H   0  0  0  1  0  0  0  0  0  0  0  0
   21.2785    3.5788  -65.9415 H   0  0  0  1  0  0  0  0  0  0  0  0
   22.6232    4.6136  -66.3598 H   0  0  0  1  0  0  0  0  0  0  0  0
   21.8675    6.0711  -64.7351 H   0  0  0  1  0  0  0  0  0  0  0  0
   20.7388    4.8877  -64.1187 H   0  0  0  1  0  0  0  0  0  0  0  0
   23.7909    2.5321  -66.7475 H   0  0  0  1  0  0  0  0  0  0  0  0
   26.0089    3.0873  -55.4171 H   0  0  0  1  0  0  0  0  0  0  0  0
   27.4720    2.7531  -56.3117 H   0  0  0  1  0  0  0  0  0  0  0  0
   26.2293    1.5314  -56.1804 H   0  0  0  1  0  0  0  0  0  0  0  0
   24.4459    3.5424  -63.2050 H   0  0  0  1  0  0  0  0  0  0  0  0
   24.4757    4.7560  -64.4622 H   0  0  0  1  0  0  0  0  0  0  0  0
   23.6353    6.8041  -61.9373 H   0  0  0  1  0  0  0  0  0  0  0  0
   23.2777    7.2408  -59.5993 H   0  0  0  1  0  0  0  0  0  0  0  0
   21.0425    3.8482  -59.2013 H   0  0  0  1  0  0  0  0  0  0  0  0
   21.3250    3.3177  -61.5337 H   0  0  0  1  0  0  0  0  0  0  0  0
  1  3  4  0  0  0  0
  1 14  4  0  0  0  0
  1 21  1  0  0  0  0
  2 14  4  0  0  0  0
  2 15  4  0  0  0  0
  2 30  1  0  0  0  0
  3 16  4  0  0  0  0
  4  5  4  0  0  0  0
  4  7  4  0  0  0  0
  4 17  1  0  0  0  0
  5  9  4  0  0  0  0
  5 31  1  0  0  0  0
  6  7  4  0  0  0  0
  6  8  4  0  0  0  0
  6 32  1  0  0  0  0
  7 33  1  0  0  0  0
  8  9  4  0  0  0  0
  8 20  1  0  0  0  0
  9 34  1  0  0  0  0
 10 11  1  0  0  0  0
 10 21  1  0  0  0  0
 10 24  1  0  0  0  0
 10 35  1  0  0  0  0
 11 12  1  0  0  0  0
 11 36  1  0  0  0  0
 11 37  1  0  0  0  0
 12 23  1  0  0  0  0
 12 38  1  0  0  0  0
 12 39  1  0  0  0  0
 13 23  1  0  0  0  0
 13 25  4  0  0  0  0
 13 29  4  0  0  0  0
 15 16  4  0  0  0  0
 15 18  4  0  0  0  0
 16 17  4  0  0  0  0
 17 19  4  0  0  0  0
 18 19  4  0  0  0  0
 20 22  1  0  0  0  0
 21 40  1  0  0  0  0
 22 41  1  0  0  0  0
 22 42  1  0  0  0  0
 22 43  1  0  0  0  0
 23 24  1  0  0  0  0
 24 44  1  0  0  0  0
 24 45  1  0  0  0  0
 25 26  4  0  0  0  0
 25 46  1  0  0  0  0
 26 27  4  0  0  0  0
 26 47  1  0  0  0  0
 27 28  4  0  0  0  0
 28 29  4  0  0  0  0
 28 48  1  0  0  0  0
 29 49  1  0  0  0  0
M  END
> <ConfClashScore>
0 

> <ConfOneFourInteractionScore>
-0.987833 

> <ConfScore>
0.104747 

> <ConfScorePBest>
0.00218045 

> <ConfTolerance>
0.426832 

> <HETNAM>
     OWQ A 303  OWQ                                                       

> <pdb_OW>
Q_303 -16.5129 3.80749 7.62812 0.15963 1.39178 -0.28144 -3.20151 0 0 0 -1.30514 0 0 0 0 0 0 0 0 -8.31393

$$$$
6yky_lig_1.pdb
 OpenBabel04162415593D

 49 53  0  0  0  0  0  0  0  0999 V2000
   25.1048    1.8136  -65.3760 C   0  0  0  1  0  0  0  0  0  0  0  0
   26.9167    0.5034  -65.9326 C   0  0  0  1  0  0  0  0  0  0  0  0
   25.4178    1.8285  -64.0982 N   0  0  0  1  0  0  0  0  0  0  0  0
   26.7670    1.4474  -61.1215 C   0  0  0  1  0  0  0  0  0  0  0  0
   25.4683    1.3669  -60.6558 C   0  0  0  1  0  0  0  0  0  0  0  0
   27.4267    2.5500  -59.0976 C   0  0  0  1  0  0  0  0  0  0  0  0
   27.7471    2.0422  -60.3425 C   0  0  0  1  0  0  0  0  0  0  0  0
   26.1241    2.4693  -58.6304 C   0  0  0  1  0  0  0  0  0  0  0  0
   25.1470    1.8762  -59.4073 C   0  0  0  1  0  0  0  0  0  0  0  0
   23.1786    3.2724  -64.8156 C   0  0  0  1  0  0  0  0  0  0  0  0
   22.1285    4.1430  -65.5593 C   0  0  0  1  0  0  0  0  0  0  0  0
   21.8364    5.3736  -64.6753 C   0  0  0  1  0  0  0  0  0  0  0  0
   23.1130    6.2521  -62.6128 C   0  0  0  1  0  0  0  0  0  0  0  0
   25.8296    1.1707  -66.2747 N   0  0  0  1  0  0  0  0  0  0  0  0
   27.2965    0.4858  -64.5857 C   0  0  0  1  0  0  0  0  0  0  0  0
   26.4937    1.1853  -63.6614 C   0  0  0  1  0  0  0  0  0  0  0  0
   27.0810    1.0062  -62.4395 N   0  0  0  1  0  0  0  0  0  0  0  0
   28.3158   -0.0766  -63.9004 N   0  0  0  1  0  0  0  0  0  0  0  0
   28.2164    0.2092  -62.6490 N   0  0  0  1  0  0  0  0  0  0  0  0
   25.6915    2.9343  -57.4343 O   0  0  0  1  0  0  0  0  0  0  0  0
   23.9889    2.4968  -65.7385 N   0  0  0  1  0  0  0  0  0  0  0  0
   26.6795    3.4798  -56.5461 C   0  0  0  1  0  0  0  0  0  0  0  0
   22.9937    5.3862  -63.7365 N   0  0  0  1  0  0  0  0  0  0  0  0
   23.9968    4.3824  -64.1279 C   0  0  0  1  0  0  0  0  0  0  0  0
   24.2306    7.0505  -62.4538 C   0  0  0  1  0  0  0  0  0  0  0  0
   24.3038    7.8793  -61.3504 C   0  0  0  1  0  0  0  0  0  0  0  0
   23.3475    7.9497  -60.4195 N   0  0  0  1  0  0  0  0  0  0  0  0
   22.2715    7.1670  -60.5840 C   0  0  0  1  0  0  0  0  0  0  0  0
   22.1147    6.3111  -61.6601 C   0  0  0  1  0  0  0  0  0  0  0  0
   27.4789    0.0014  -66.6492 H   0  0  0  1  0  0  0  0  0  0  0  0
   24.7321    0.9242  -61.2421 H   0  0  0  1  0  0  0  0  0  0  0  0
   28.1629    2.9927  -58.5113 H   0  0  0  1  0  0  0  0  0  0  0  0
   28.7237    2.1063  -60.6946 H   0  0  0  1  0  0  0  0  0  0  0  0
   24.1704    1.8120  -59.0552 H   0  0  0  1  0  0  0  0  0  0  0  0
   22.7207    2.6169  -64.1046 H   0  0  0  1  0  0  0  0  0  0  0  0
   22.5181    4.4571  -66.5051 H   0  0  0  1  0  0  0  0  0  0  0  0
   21.2305    3.5815  -65.7118 H   0  0  0  1  0  0  0  0  0  0  0  0
   20.9128    5.2584  -64.1473 H   0  0  0  1  0  0  0  0  0  0  0  0
   21.8043    6.2693  -65.2598 H   0  0  0  1  0  0  0  0  0  0  0  0
   23.7137    2.4646  -66.6785 H   0  0  0  1  0  0  0  0  0  0  0  0
   27.0298    4.4142  -56.9322 H   0  0  0  1  0  0  0  0  0  0  0  0
   27.5000    2.7980  -56.4638 H   0  0  0  1  0  0  0  0  0  0  0  0
   26.2447    3.6336  -55.5806 H   0  0  0  1  0  0  0  0  0  0  0  0
   24.7090    4.8035  -64.8065 H   0  0  0  1  0  0  0  0  0  0  0  0
   24.5057    4.0003  -63.2678 H   0  0  0  1  0  0  0  0  0  0  0  0
   25.0015    7.0278  -63.1514 H   0  0  0  1  0  0  0  0  0  0  0  0
   25.1463    8.4788  -61.2387 H   0  0  0  1  0  0  0  0  0  0  0  0
   21.5182    7.2048  -59.8681 H   0  0  0  1  0  0  0  0  0  0  0  0
   21.2613    5.7233  -61.7498 H   0  0  0  1  0  0  0  0  0  0  0  0
  1  3  4  0  0  0  0
  1 14  4  0  0  0  0
  1 21  1  0  0  0  0
  2 14  4  0  0  0  0
  2 15  4  0  0  0  0
  2 30  1  0  0  0  0
  3 16  4  0  0  0  0
  4  5  4  0  0  0  0
  4  7  4  0  0  0  0
  4 17  1  0  0  0  0
  5  9  4  0  0  0  0
  5 31  1  0  0  0  0
  6  7  4  0  0  0  0
  6  8  4  0  0  0  0
  6 32  1  0  0  0  0
  7 33  1  0  0  0  0
  8  9  4  0  0  0  0
  8 20  1  0  0  0  0
  9 34  1  0  0  0  0
 10 11  1  0  0  0  0
 10 21  1  0  0  0  0
 10 24  1  0  0  0  0
 10 35  1  0  0  0  0
 11 12  1  0  0  0  0
 11 36  1  0  0  0  0
 11 37  1  0  0  0  0
 12 23  1  0  0  0  0
 12 38  1  0  0  0  0
 12 39  1  0  0  0  0
 13 23  1  0  0  0  0
 13 25  4  0  0  0  0
 13 29  4  0  0  0  0
 15 16  4  0  0  0  0
 15 18  4  0  0  0  0
 16 17  4  0  0  0  0
 17 19  4  0  0  0  0
 18 19  4  0  0  0  0
 20 22  1  0  0  0  0
 21 40  1  0  0  0  0
 22 41  1  0  0  0  0
 22 42  1  0  0  0  0
 22 43  1  0  0  0  0
 23 24  1  0  0  0  0
 24 44  1  0  0  0  0
 24 45  1  0  0  0  0
 25 26  4  0  0  0  0
 25 46  1  0  0  0  0
 26 27  4  0  0  0  0
 26 47  1  0  0  0  0
 27 28  4  0  0  0  0
 28 29  4  0  0  0  0
 28 48  1  0  0  0  0
 29 49  1  0  0  0  0
M  END
> <ConfClashScore>
0 

> <ConfOneFourInteractionScore>
-0.987833 

> <ConfScore>
0.105919 

> <ConfScorePBest>
0.00216712 

> <ConfTolerance>
0.495563 

> <HETNAM>
     OWQ A 303  OWQ                                                       

> <pdb_OW>
Q_303 -16.5129 3.80749 7.62812 0.15963 1.39178 -0.28144 -3.20151 0 0 0 -1.30514 0 0 0 0 0 0 0 0 -8.31393

$$$$
6yky_lig_1.pdb
 OpenBabel04162415593D

 49 53  0  0  0  0  0  0  0  0999 V2000
   25.1049    1.8136  -65.3760 C   0  0  0  1  0  0  0  0  0  0  0  0
   26.9167    0.5034  -65.9326 C   0  0  0  1  0  0  0  0  0  0  0  0
   25.4180    1.8285  -64.0983 N   0  0  0  1  0  0  0  0  0  0  0  0
   26.6877    1.3786  -61.1216 C   0  0  0  1  0  0  0  0  0  0  0  0
   25.3410    1.5818  -60.8866 C   0  0  0  1  0  0  0  0  0  0  0  0
   27.1854    2.0728  -58.8815 C   0  0  0  1  0  0  0  0  0  0  0  0
   27.6117    1.6269  -60.1185 C   0  0  0  1  0  0  0  0  0  0  0  0
   25.8348    2.2766  -58.6457 C   0  0  0  1  0  0  0  0  0  0  0  0
   24.9137    2.0289  -59.6461 C   0  0  0  1  0  0  0  0  0  0  0  0
   23.6956    2.4153  -67.2361 C   0  0  0  1  0  0  0  0  0  0  0  0
   23.1168    3.7337  -67.7739 C   0  0  0  1  0  0  0  0  0  0  0  0
   22.3818    3.2591  -69.0369 C   0  0  0  1  0  0  0  0  0  0  0  0
   22.2077    0.8600  -70.0158 C   0  0  0  1  0  0  0  0  0  0  0  0
   25.8298    1.1707  -66.2748 N   0  0  0  1  0  0  0  0  0  0  0  0
   27.2965    0.4858  -64.5857 C   0  0  0  1  0  0  0  0  0  0  0  0
   26.4937    1.1852  -63.6614 C   0  0  0  1  0  0  0  0  0  0  0  0
   27.0809    1.0063  -62.4396 N   0  0  0  1  0  0  0  0  0  0  0  0
   28.3159   -0.0766  -63.9004 N   0  0  0  1  0  0  0  0  0  0  0  0
   28.2164    0.2092  -62.6490 N   0  0  0  1  0  0  0  0  0  0  0  0
   25.4839    2.7191  -57.4149 O   0  0  0  1  0  0  0  0  0  0  0  0
   23.9673    2.5007  -65.7989 N   0  0  0  1  0  0  0  0  0  0  0  0
   26.4775    2.6392  -56.3810 C   0  0  0  1  0  0  0  0  0  0  0  0
   22.3736    1.7679  -68.9502 N   0  0  0  1  0  0  0  0  0  0  0  0
   22.5735    1.4347  -67.5276 C   0  0  0  1  0  0  0  0  0  0  0  0
   23.3091    0.3188  -70.6528 C   0  0  0  1  0  0  0  0  0  0  0  0
   23.1085   -0.6410  -71.6267 C   0  0  0  1  0  0  0  0  0  0  0  0
   21.8985   -1.0759  -71.9916 N   0  0  0  1  0  0  0  0  0  0  0  0
   20.8395   -0.5394  -71.3688 C   0  0  0  1  0  0  0  0  0  0  0  0
   20.9493    0.4232  -70.3805 C   0  0  0  1  0  0  0  0  0  0  0  0
   27.4789    0.0013  -66.6492 H   0  0  0  1  0  0  0  0  0  0  0  0
   24.6482    1.3993  -61.6405 H   0  0  0  1  0  0  0  0  0  0  0  0
   27.8782    2.2553  -58.1276 H   0  0  0  1  0  0  0  0  0  0  0  0
   28.6254    1.4779  -60.2967 H   0  0  0  1  0  0  0  0  0  0  0  0
   23.9000    2.1780  -59.4680 H   0  0  0  1  0  0  0  0  0  0  0  0
   24.5921    2.1448  -67.7536 H   0  0  0  1  0  0  0  0  0  0  0  0
   23.8925    4.4310  -68.0131 H   0  0  0  1  0  0  0  0  0  0  0  0
   22.4411    4.1775  -67.0731 H   0  0  0  1  0  0  0  0  0  0  0  0
   21.3817    3.6390  -69.0535 H   0  0  0  1  0  0  0  0  0  0  0  0
   22.9007    3.5805  -69.9157 H   0  0  0  1  0  0  0  0  0  0  0  0
   23.3939    3.0021  -65.1822 H   0  0  0  1  0  0  0  0  0  0  0  0
   26.6528    1.6134  -56.1326 H   0  0  0  1  0  0  0  0  0  0  0  0
   26.1322    3.1620  -55.5137 H   0  0  0  1  0  0  0  0  0  0  0  0
   27.3878    3.0828  -56.7265 H   0  0  0  1  0  0  0  0  0  0  0  0
   22.8775    0.4182  -67.3885 H   0  0  0  1  0  0  0  0  0  0  0  0
   21.7014    1.6303  -66.9393 H   0  0  0  1  0  0  0  0  0  0  0  0
   24.2703    0.6280  -70.4038 H   0  0  0  1  0  0  0  0  0  0  0  0
   23.9416   -1.0455  -72.0999 H   0  0  0  1  0  0  0  0  0  0  0  0
   19.8893   -0.8622  -71.6416 H   0  0  0  1  0  0  0  0  0  0  0  0
   20.1003    0.8102  -69.9212 H   0  0  0  1  0  0  0  0  0  0  0  0
  1  3  4  0  0  0  0
  1 14  4  0  0  0  0
  1 21  1  0  0  0  0
  2 14  4  0  0  0  0
  2 15  4  0  0  0  0
  2 30  1  0  0  0  0
  3 16  4  0  0  0  0
  4  5  4  0  0  0  0
  4  7  4  0  0  0  0
  4 17  1  0  0  0  0
  5  9  4  0  0  0  0
  5 31  1  0  0  0  0
  6  7  4  0  0  0  0
  6  8  4  0  0  0  0
  6 32  1  0  0  0  0
  7 33  1  0  0  0  0
  8  9  4  0  0  0  0
  8 20  1  0  0  0  0
  9 34  1  0  0  0  0
 10 11  1  0  0  0  0
 10 21  1  0  0  0  0
 10 24  1  0  0  0  0
 10 35  1  0  0  0  0
 11 12  1  0  0  0  0
 11 36  1  0  0  0  0
 11 37  1  0  0  0  0
 12 23  1  0  0  0  0
 12 38  1  0  0  0  0
 12 39  1  0  0  0  0
 13 23  1  0  0  0  0
 13 25  4  0  0  0  0
 13 29  4  0  0  0  0
 15 16  4  0  0  0  0
 15 18  4  0  0  0  0
 16 17  4  0  0  0  0
 17 19  4  0  0  0  0
 18 19  4  0  0  0  0
 20 22  1  0  0  0  0
 21 40  1  0  0  0  0
 22 41  1  0  0  0  0
 22 42  1  0  0  0  0
 22 43  1  0  0  0  0
 23 24  1  0  0  0  0
 24 44  1  0  0  0  0
 24 45  1  0  0  0  0
 25 26  4  0  0  0  0
 25 46  1  0  0  0  0
 26 27  4  0  0  0  0
 26 47  1  0  0  0  0
 27 28  4  0  0  0  0
 28 29  4  0  0  0  0
 28 48  1  0  0  0  0
 29 49  1  0  0  0  0
M  END
> <ConfClashScore>
1.01886e-05 

> <ConfOneFourInteractionScore>
-0.986948 

> <ConfScore>
0.107064 

> <ConfScorePBest>
0.00215379 

> <ConfTolerance>
0.617844 

> <HETNAM>
     OWQ A 303  OWQ                                                       

> <pdb_OW>
Q_303 -16.5129 3.80749 7.62812 0.15963 1.39178 -0.28144 -3.20151 0 0 0 -1.30514 0 0 0 0 0 0 0 0 -8.31393

$$$$
6yky_lig_1.pdb
 OpenBabel04162415593D

 49 53  0  0  0  0  0  0  0  0999 V2000
   25.1046    1.8133  -65.3760 C   0  0  0  1  0  0  0  0  0  0  0  0
   26.9167    0.5034  -65.9326 C   0  0  0  1  0  0  0  0  0  0  0  0
   25.4176    1.8280  -64.0982 N   0  0  0  1  0  0  0  0  0  0  0  0
   26.7284    1.4697  -61.1390 C   0  0  0  1  0  0  0  0  0  0  0  0
   27.7488    1.9027  -60.3134 C   0  0  0  1  0  0  0  0  0  0  0  0
   25.1519    1.7879  -59.3613 C   0  0  0  1  0  0  0  0  0  0  0  0
   25.4284    1.4096  -60.6616 C   0  0  0  1  0  0  0  0  0  0  0  0
   26.1751    2.2222  -58.5331 C   0  0  0  1  0  0  0  0  0  0  0  0
   27.4711    2.2820  -59.0094 C   0  0  0  1  0  0  0  0  0  0  0  0
   23.7236    2.5498  -67.2832 C   0  0  0  1  0  0  0  0  0  0  0  0
   22.3173    3.1123  -67.5443 C   0  0  0  1  0  0  0  0  0  0  0  0
   22.0200    2.5677  -68.9500 C   0  0  0  1  0  0  0  0  0  0  0  0
   23.5205    1.1212  -70.4669 C   0  0  0  1  0  0  0  0  0  0  0  0
   25.8295    1.1705  -66.2747 N   0  0  0  1  0  0  0  0  0  0  0  0
   27.2965    0.4856  -64.5857 C   0  0  0  1  0  0  0  0  0  0  0  0
   26.4935    1.1850  -63.6614 C   0  0  0  1  0  0  0  0  0  0  0  0
   27.0808    1.0060  -62.4394 N   0  0  0  1  0  0  0  0  0  0  0  0
   28.3158   -0.0766  -63.9004 N   0  0  0  1  0  0  0  0  0  0  0  0
   28.2164    0.2092  -62.6490 N   0  0  0  1  0  0  0  0  0  0  0  0
   25.7809    2.5641  -57.2680 O   0  0  0  1  0  0  0  0  0  0  0  0
   24.0033    2.4660  -65.8550 N   0  0  0  1  0  0  0  0  0  0  0  0
   26.8778    2.9627  -56.4311 C   0  0  0  1  0  0  0  0  0  0  0  0
   23.1010    1.5739  -69.2235 N   0  0  0  1  0  0  0  0  0  0  0  0
   23.6339    1.1694  -67.9092 C   0  0  0  1  0  0  0  0  0  0  0  0
   24.5610    1.6585  -71.2019 C   0  0  0  1  0  0  0  0  0  0  0  0
   24.8680    1.0982  -72.4272 C   0  0  0  1  0  0  0  0  0  0  0  0
   24.2072    0.0590  -72.9464 N   0  0  0  1  0  0  0  0  0  0  0  0
   23.1979   -0.4492  -72.2250 C   0  0  0  1  0  0  0  0  0  0  0  0
   22.8255    0.0473  -70.9880 C   0  0  0  1  0  0  0  0  0  0  0  0
   27.4790    0.0014  -66.6492 H   0  0  0  1  0  0  0  0  0  0  0  0
   28.7246    1.9438  -60.6704 H   0  0  0  1  0  0  0  0  0  0  0  0
   24.1759    1.7467  -59.0042 H   0  0  0  1  0  0  0  0  0  0  0  0
   24.6614    1.0800  -61.2817 H   0  0  0  1  0  0  0  0  0  0  0  0
   28.2383    2.6116  -58.3893 H   0  0  0  1  0  0  0  0  0  0  0  0
   24.4746    3.1445  -67.7598 H   0  0  0  1  0  0  0  0  0  0  0  0
   22.3169    4.1822  -67.5326 H   0  0  0  1  0  0  0  0  0  0  0  0
   21.6120    2.7470  -66.8274 H   0  0  0  1  0  0  0  0  0  0  0  0
   22.0459    3.3577  -69.6711 H   0  0  0  1  0  0  0  0  0  0  0  0
   21.0608    2.0941  -68.9732 H   0  0  0  1  0  0  0  0  0  0  0  0
   23.3858    2.8885  -65.2220 H   0  0  0  1  0  0  0  0  0  0  0  0
   27.5424    2.1352  -56.2951 H   0  0  0  1  0  0  0  0  0  0  0  0
   26.5038    3.2795  -55.4800 H   0  0  0  1  0  0  0  0  0  0  0  0
   27.4047    3.7704  -56.8947 H   0  0  0  1  0  0  0  0  0  0  0  0
   24.5910    0.6975  -67.9880 H   0  0  0  1  0  0  0  0  0  0  0  0
   22.9615    0.5274  -67.3796 H   0  0  0  1  0  0  0  0  0  0  0  0
   25.1024    2.4692  -70.8394 H   0  0  0  1  0  0  0  0  0  0  0  0
   25.6536    1.5060  -72.9733 H   0  0  0  1  0  0  0  0  0  0  0  0
   22.6690   -1.2558  -72.6140 H   0  0  0  1  0  0  0  0  0  0  0  0
   22.0374   -0.3801  -70.4609 H   0  0  0  1  0  0  0  0  0  0  0  0
  1  3  4  0  0  0  0
  1 14  4  0  0  0  0
  1 21  1  0  0  0  0
  2 14  4  0  0  0  0
  2 15  4  0  0  0  0
  2 30  1  0  0  0  0
  3 16  4  0  0  0  0
  4  5  4  0  0  0  0
  4  7  4  0  0  0  0
  4 17  1  0  0  0  0
  5  9  4  0  0  0  0
  5 31  1  0  0  0  0
  6  7  4  0  0  0  0
  6  8  4  0  0  0  0
  6 32  1  0  0  0  0
  7 33  1  0  0  0  0
  8  9  4  0  0  0  0
  8 20  1  0  0  0  0
  9 34  1  0  0  0  0
 10 11  1  0  0  0  0
 10 21  1  0  0  0  0
 10 24  1  0  0  0  0
 10 35  1  0  0  0  0
 11 12  1  0  0  0  0
 11 36  1  0  0  0  0
 11 37  1  0  0  0  0
 12 23  1  0  0  0  0
 12 38  1  0  0  0  0
 12 39  1  0  0  0  0
 13 23  1  0  0  0  0
 13 25  4  0  0  0  0
 13 29  4  0  0  0  0
 15 16  4  0  0  0  0
 15 18  4  0  0  0  0
 16 17  4  0  0  0  0
 17 19  4  0  0  0  0
 18 19  4  0  0  0  0
 20 22  1  0  0  0  0
 21 40  1  0  0  0  0
 22 41  1  0  0  0  0
 22 42  1  0  0  0  0
 22 43  1  0  0  0  0
 23 24  1  0  0  0  0
 24 44  1  0  0  0  0
 24 45  1  0  0  0  0
 25 26  4  0  0  0  0
 25 46  1  0  0  0  0
 26 27  4  0  0  0  0
 26 47  1  0  0  0  0
 27 28  4  0  0  0  0
 28 29  4  0  0  0  0
 28 48  1  0  0  0  0
 29 49  1  0  0  0  0
M  END
> <ConfClashScore>
0 

> <ConfOneFourInteractionScore>
-0.987833 

> <ConfScore>
0.107433 

> <ConfScorePBest>
0.00214046 

> <ConfTolerance>
0.427229 

> <HETNAM>
     OWQ A 303  OWQ                                                       

> <pdb_OW>
Q_303 -16.5129 3.80749 7.62812 0.15963 1.39178 -0.28144 -3.20151 0 0 0 -1.30514 0 0 0 0 0 0 0 0 -8.31393

$$$$
6yky_lig_1.pdb
 OpenBabel04162415593D

 49 53  0  0  0  0  0  0  0  0999 V2000
   25.1048    1.8135  -65.3760 C   0  0  0  1  0  0  0  0  0  0  0  0
   26.9167    0.5034  -65.9326 C   0  0  0  1  0  0  0  0  0  0  0  0
   25.4178    1.8283  -64.0982 N   0  0  0  1  0  0  0  0  0  0  0  0
   26.7285    1.4697  -61.1391 C   0  0  0  1  0  0  0  0  0  0  0  0
   25.3984    1.5728  -60.7781 C   0  0  0  1  0  0  0  0  0  0  0  0
   27.3748    2.4361  -59.0424 C   0  0  0  1  0  0  0  0  0  0  0  0
   27.7181    1.9044  -60.2712 C   0  0  0  1  0  0  0  0  0  0  0  0
   26.0407    2.5395  -58.6801 C   0  0  0  1  0  0  0  0  0  0  0  0
   25.0542    2.1060  -59.5457 C   0  0  0  1  0  0  0  0  0  0  0  0
   23.0313    3.1548  -64.9262 C   0  0  0  1  0  0  0  0  0  0  0  0
   23.7114    4.1737  -64.0244 C   0  0  0  1  0  0  0  0  0  0  0  0
   22.7384    4.3475  -62.8565 C   0  0  0  1  0  0  0  0  0  0  0  0
   21.0967    2.6851  -61.7841 C   0  0  0  1  0  0  0  0  0  0  0  0
   25.8297    1.1707  -66.2747 N   0  0  0  1  0  0  0  0  0  0  0  0
   27.2965    0.4857  -64.5857 C   0  0  0  1  0  0  0  0  0  0  0  0
   26.4936    1.1851  -63.6614 C   0  0  0  1  0  0  0  0  0  0  0  0
   27.0808    1.0060  -62.4395 N   0  0  0  1  0  0  0  0  0  0  0  0
   28.3158   -0.0766  -63.9004 N   0  0  0  1  0  0  0  0  0  0  0  0
   28.2164    0.2092  -62.6490 N   0  0  0  1  0  0  0  0  0  0  0  0
   25.6582    2.9395  -57.4443 O   0  0  0  1  0  0  0  0  0  0  0  0
   24.0075    2.4761  -65.7838 N   0  0  0  1  0  0  0  0  0  0  0  0
   26.6880    3.4008  -56.5558 C   0  0  0  1  0  0  0  0  0  0  0  0
   22.0364    3.0551  -62.8109 N   0  0  0  1  0  0  0  0  0  0  0  0
   22.4075    2.1863  -63.9372 C   0  0  0  1  0  0  0  0  0  0  0  0
   20.8507    3.5874  -60.7659 C   0  0  0  1  0  0  0  0  0  0  0  0
   19.9479    3.2444  -59.7775 C   0  0  0  1  0  0  0  0  0  0  0  0
   19.2965    2.0777  -59.7500 N   0  0  0  1  0  0  0  0  0  0  0  0
   19.5478    1.2106  -60.7411 C   0  0  0  1  0  0  0  0  0  0  0  0
   20.4331    1.4737  -61.7717 C   0  0  0  1  0  0  0  0  0  0  0  0
   27.4790    0.0014  -66.6492 H   0  0  0  1  0  0  0  0  0  0  0  0
   24.6558    1.2504  -61.4309 H   0  0  0  1  0  0  0  0  0  0  0  0
   28.1174    2.7585  -58.3896 H   0  0  0  1  0  0  0  0  0  0  0  0
   28.7188    1.8306  -60.5446 H   0  0  0  1  0  0  0  0  0  0  0  0
   24.0535    2.1799  -59.2723 H   0  0  0  1  0  0  0  0  0  0  0  0
   22.2830    3.6185  -65.5344 H   0  0  0  1  0  0  0  0  0  0  0  0
   24.6554    3.8060  -63.6805 H   0  0  0  1  0  0  0  0  0  0  0  0
   23.8552    5.1005  -64.5397 H   0  0  0  1  0  0  0  0  0  0  0  0
   23.2641    4.5311  -61.9429 H   0  0  0  1  0  0  0  0  0  0  0  0
   22.0547    5.1493  -63.0425 H   0  0  0  1  0  0  0  0  0  0  0  0
   23.8444    2.5083  -66.7496 H   0  0  0  1  0  0  0  0  0  0  0  0
   27.1534    4.2709  -56.9698 H   0  0  0  1  0  0  0  0  0  0  0  0
   27.4205    2.6311  -56.4289 H   0  0  0  1  0  0  0  0  0  0  0  0
   26.2575    3.6442  -55.6070 H   0  0  0  1  0  0  0  0  0  0  0  0
   23.1125    1.4416  -63.6320 H   0  0  0  1  0  0  0  0  0  0  0  0
   21.5452    1.7114  -64.3565 H   0  0  0  1  0  0  0  0  0  0  0  0
   21.3360    4.5070  -60.7442 H   0  0  0  1  0  0  0  0  0  0  0  0
   19.7660    3.9290  -59.0161 H   0  0  0  1  0  0  0  0  0  0  0  0
   19.0535    0.2955  -60.7350 H   0  0  0  1  0  0  0  0  0  0  0  0
   20.5957    0.7728  -62.5227 H   0  0  0  1  0  0  0  0  0  0  0  0
  1  3  4  0  0  0  0
  1 14  4  0  0  0  0
  1 21  1  0  0  0  0
  2 14  4  0  0  0  0
  2 15  4  0  0  0  0
  2 30  1  0  0  0  0
  3 16  4  0  0  0  0
  4  5  4  0  0  0  0
  4  7  4  0  0  0  0
  4 17  1  0  0  0  0
  5  9  4  0  0  0  0
  5 31  1  0  0  0  0
  6  7  4  0  0  0  0
  6  8  4  0  0  0  0
  6 32  1  0  0  0  0
  7 33  1  0  0  0  0
  8  9  4  0  0  0  0
  8 20  1  0  0  0  0
  9 34  1  0  0  0  0
 10 11  1  0  0  0  0
 10 21  1  0  0  0  0
 10 24  1  0  0  0  0
 10 35  1  0  0  0  0
 11 12  1  0  0  0  0
 11 36  1  0  0  0  0
 11 37  1  0  0  0  0
 12 23  1  0  0  0  0
 12 38  1  0  0  0  0
 12 39  1  0  0  0  0
 13 23  1  0  0  0  0
 13 25  4  0  0  0  0
 13 29  4  0  0  0  0
 15 16  4  0  0  0  0
 15 18  4  0  0  0  0
 16 17  4  0  0  0  0
 17 19  4  0  0  0  0
 18 19  4  0  0  0  0
 20 22  1  0  0  0  0
 21 40  1  0  0  0  0
 22 41  1  0  0  0  0
 22 42  1  0  0  0  0
 22 43  1  0  0  0  0
 23 24  1  0  0  0  0
 24 44  1  0  0  0  0
 24 45  1  0  0  0  0
 25 26  4  0  0  0  0
 25 46  1  0  0  0  0
 26 27  4  0  0  0  0
 26 47  1  0  0  0  0
 27 28  4  0  0  0  0
 28 29  4  0  0  0  0
 28 48  1  0  0  0  0
 29 49  1  0  0  0  0
M  END
> <ConfClashScore>
0 

> <ConfOneFourInteractionScore>
-0.983503 

> <ConfScore>
0.107658 

> <ConfScorePBest>
0.00212713 

> <ConfTolerance>
0.514626 

> <HETNAM>
     OWQ A 303  OWQ                                                       

> <pdb_OW>
Q_303 -16.5129 3.80749 7.62812 0.15963 1.39178 -0.28144 -3.20151 0 0 0 -1.30514 0 0 0 0 0 0 0 0 -8.31393

$$$$
6yky_lig_1.pdb
 OpenBabel04162415593D

 49 53  0  0  0  0  0  0  0  0999 V2000
   25.1047    1.8136  -65.3759 C   0  0  0  1  0  0  0  0  0  0  0  0
   26.9167    0.5034  -65.9326 C   0  0  0  1  0  0  0  0  0  0  0  0
   25.4178    1.8284  -64.0981 N   0  0  0  1  0  0  0  0  0  0  0  0
   26.7287    1.4699  -61.1390 C   0  0  0  1  0  0  0  0  0  0  0  0
   25.5088    1.1252  -60.5883 C   0  0  0  1  0  0  0  0  0  0  0  0
   27.1931    2.8627  -59.2439 C   0  0  0  1  0  0  0  0  0  0  0  0
   27.5710    2.3420  -60.4671 C   0  0  0  1  0  0  0  0  0  0  0  0
   25.9697    2.5169  -58.6913 C   0  0  0  1  0  0  0  0  0  0  0  0
   25.1300    1.6473  -59.3615 C   0  0  0  1  0  0  0  0  0  0  0  0
   23.6606    2.6198  -67.1970 C   0  0  0  1  0  0  0  0  0  0  0  0
   24.8653    3.1225  -68.0084 C   0  0  0  1  0  0  0  0  0  0  0  0
   24.1781    3.7422  -69.2349 C   0  0  0  1  0  0  0  0  0  0  0  0
   21.6189    3.8648  -69.8177 C   0  0  0  1  0  0  0  0  0  0  0  0
   25.8296    1.1708  -66.2747 N   0  0  0  1  0  0  0  0  0  0  0  0
   27.2964    0.4857  -64.5857 C   0  0  0  1  0  0  0  0  0  0  0  0
   26.4937    1.1852  -63.6614 C   0  0  0  1  0  0  0  0  0  0  0  0
   27.0809    1.0062  -62.4394 N   0  0  0  1  0  0  0  0  0  0  0  0
   28.3159   -0.0766  -63.9004 N   0  0  0  1  0  0  0  0  0  0  0  0
   28.2164    0.2092  -62.6490 N   0  0  0  1  0  0  0  0  0  0  0  0
   25.4913    2.9656  -57.5065 O   0  0  0  1  0  0  0  0  0  0  0  0
   23.9919    2.4856  -65.7894 N   0  0  0  1  0  0  0  0  0  0  0  0
   26.3616    3.7923  -56.7182 C   0  0  0  1  0  0  0  0  0  0  0  0
   22.7247    3.7837  -68.8923 N   0  0  0  1  0  0  0  0  0  0  0  0
   22.6442    3.7254  -67.4211 C   0  0  0  1  0  0  0  0  0  0  0  0
   21.0610    2.7548  -70.4245 C   0  0  0  1  0  0  0  0  0  0  0  0
   20.0015    2.9345  -71.2934 C   0  0  0  1  0  0  0  0  0  0  0  0
   19.4843    4.1321  -71.5838 N   0  0  0  1  0  0  0  0  0  0  0  0
   20.0378    5.2000  -70.9916 C   0  0  0  1  0  0  0  0  0  0  0  0
   21.0979    5.1109  -70.1065 C   0  0  0  1  0  0  0  0  0  0  0  0
   27.4788    0.0013  -66.6491 H   0  0  0  1  0  0  0  0  0  0  0  0
   24.8753    0.4739  -61.0944 H   0  0  0  1  0  0  0  0  0  0  0  0
   27.8268    3.5138  -58.7378 H   0  0  0  1  0  0  0  0  0  0  0  0
   28.4871    2.6045  -60.8835 H   0  0  0  1  0  0  0  0  0  0  0  0
   24.2139    1.3848  -58.9452 H   0  0  0  1  0  0  0  0  0  0  0  0
   23.3041    1.6828  -67.5709 H   0  0  0  1  0  0  0  0  0  0  0  0
   25.4244    3.8542  -67.4635 H   0  0  0  1  0  0  0  0  0  0  0  0
   25.5102    2.3162  -68.2888 H   0  0  0  1  0  0  0  0  0  0  0  0
   24.5493    4.7297  -69.4136 H   0  0  0  1  0  0  0  0  0  0  0  0
   24.3417    3.1368  -70.1019 H   0  0  0  1  0  0  0  0  0  0  0  0
   23.4009    2.8883  -65.1193 H   0  0  0  1  0  0  0  0  0  0  0  0
   26.5908    4.6869  -57.2586 H   0  0  0  1  0  0  0  0  0  0  0  0
   27.2663    3.2603  -56.5096 H   0  0  0  1  0  0  0  0  0  0  0  0
   25.8764    4.0457  -55.7988 H   0  0  0  1  0  0  0  0  0  0  0  0
   22.9393    4.6460  -66.9624 H   0  0  0  1  0  0  0  0  0  0  0  0
   21.6675    3.4532  -67.0793 H   0  0  0  1  0  0  0  0  0  0  0  0
   21.4317    1.8027  -70.2309 H   0  0  0  1  0  0  0  0  0  0  0  0
   19.5853    2.0947  -71.7443 H   0  0  0  1  0  0  0  0  0  0  0  0
   19.6516    6.1411  -71.2079 H   0  0  0  1  0  0  0  0  0  0  0  0
   21.4947    5.9660  -69.6672 H   0  0  0  1  0  0  0  0  0  0  0  0
  1  3  4  0  0  0  0
  1 14  4  0  0  0  0
  1 21  1  0  0  0  0
  2 14  4  0  0  0  0
  2 15  4  0  0  0  0
  2 30  1  0  0  0  0
  3 16  4  0  0  0  0
  4  5  4  0  0  0  0
  4  7  4  0  0  0  0
  4 17  1  0  0  0  0
  5  9  4  0  0  0  0
  5 31  1  0  0  0  0
  6  7  4  0  0  0  0
  6  8  4  0  0  0  0
  6 32  1  0  0  0  0
  7 33  1  0  0  0  0
  8  9  4  0  0  0  0
  8 20  1  0  0  0  0
  9 34  1  0  0  0  0
 10 11  1  0  0  0  0
 10 21  1  0  0  0  0
 10 24  1  0  0  0  0
 10 35  1  0  0  0  0
 11 12  1  0  0  0  0
 11 36  1  0  0  0  0
 11 37  1  0  0  0  0
 12 23  1  0  0  0  0
 12 38  1  0  0  0  0
 12 39  1  0  0  0  0
 13 23  1  0  0  0  0
 13 25  4  0  0  0  0
 13 29  4  0  0  0  0
 15 16  4  0  0  0  0
 15 18  4  0  0  0  0
 16 17  4  0  0  0  0
 17 19  4  0  0  0  0
 18 19  4  0  0  0  0
 20 22  1  0  0  0  0
 21 40  1  0  0  0  0
 22 41  1  0  0  0  0
 22 42  1  0  0  0  0
 22 43  1  0  0  0  0
 23 24  1  0  0  0  0
 24 44  1  0  0  0  0
 24 45  1  0  0  0  0
 25 26  4  0  0  0  0
 25 46  1  0  0  0  0
 26 27  4  0  0  0  0
 26 47  1  0  0  0  0
 27 28  4  0  0  0  0
 28 29  4  0  0  0  0
 28 48  1  0  0  0  0
 29 49  1  0  0  0  0
M  END
> <ConfClashScore>
0 

> <ConfOneFourInteractionScore>
-0.987833 

> <ConfScore>
0.10784 

> <ConfScorePBest>
0.0021138 

> <ConfTolerance>
0.542093 

> <HETNAM>
     OWQ A 303  OWQ                                                       

> <pdb_OW>
Q_303 -16.5129 3.80749 7.62812 0.15963 1.39178 -0.28144 -3.20151 0 0 0 -1.30514 0 0 0 0 0 0 0 0 -8.31393

$$$$
6yky_lig_1.pdb
 OpenBabel04162415593D

 49 53  0  0  0  0  0  0  0  0999 V2000
   25.1047    1.8135  -65.3760 C   0  0  0  1  0  0  0  0  0  0  0  0
   26.9167    0.5034  -65.9326 C   0  0  0  1  0  0  0  0  0  0  0  0
   25.4178    1.8284  -64.0983 N   0  0  0  1  0  0  0  0  0  0  0  0
   26.7286    1.4699  -61.1391 C   0  0  0  1  0  0  0  0  0  0  0  0
   25.7797    2.4641  -60.9925 C   0  0  0  1  0  0  0  0  0  0  0  0
   27.1270    1.4985  -58.7752 C   0  0  0  1  0  0  0  0  0  0  0  0
   27.4051    0.9882  -60.0293 C   0  0  0  1  0  0  0  0  0  0  0  0
   26.1754    2.4958  -58.6281 C   0  0  0  1  0  0  0  0  0  0  0  0
   25.5009    2.9759  -59.7348 C   0  0  0  1  0  0  0  0  0  0  0  0
   23.0440    3.0918  -64.9275 C   0  0  0  1  0  0  0  0  0  0  0  0
   23.7167    4.1995  -64.1308 C   0  0  0  1  0  0  0  0  0  0  0  0
   22.8415    4.3110  -62.8952 C   0  0  0  1  0  0  0  0  0  0  0  0
   21.8815    2.4622  -61.4745 C   0  0  0  1  0  0  0  0  0  0  0  0
   25.8297    1.1707  -66.2748 N   0  0  0  1  0  0  0  0  0  0  0  0
   27.2964    0.4858  -64.5857 C   0  0  0  1  0  0  0  0  0  0  0  0
   26.4936    1.1852  -63.6613 C   0  0  0  1  0  0  0  0  0  0  0  0
   27.0808    1.0061  -62.4395 N   0  0  0  1  0  0  0  0  0  0  0  0
   28.3159   -0.0766  -63.9004 N   0  0  0  1  0  0  0  0  0  0  0  0
   28.2164    0.2092  -62.6490 N   0  0  0  1  0  0  0  0  0  0  0  0
   25.8231    3.0742  -57.4555 O   0  0  0  1  0  0  0  0  0  0  0  0
   23.9906    2.4740  -65.8606 N   0  0  0  1  0  0  0  0  0  0  0  0
   26.3071    2.4617  -56.2500 C   0  0  0  1  0  0  0  0  0  0  0  0
   22.4067    2.9248  -62.6702 N   0  0  0  1  0  0  0  0  0  0  0  0
   22.5953    2.0867  -63.8647 C   0  0  0  1  0  0  0  0  0  0  0  0
   21.6101    3.2893  -60.4003 C   0  0  0  1  0  0  0  0  0  0  0  0
   21.0826    2.7337  -59.2503 C   0  0  0  1  0  0  0  0  0  0  0  0
   20.8210    1.4299  -59.1172 N   0  0  0  1  0  0  0  0  0  0  0  0
   21.0931    0.6389  -60.1649 C   0  0  0  1  0  0  0  0  0  0  0  0
   21.6183    1.1116  -61.3548 C   0  0  0  1  0  0  0  0  0  0  0  0
   27.4789    0.0014  -66.6492 H   0  0  0  1  0  0  0  0  0  0  0  0
   25.2750    2.8283  -61.8258 H   0  0  0  1  0  0  0  0  0  0  0  0
   27.6317    1.1343  -57.9420 H   0  0  0  1  0  0  0  0  0  0  0  0
   28.1219    0.2429  -60.1402 H   0  0  0  1  0  0  0  0  0  0  0  0
   24.7841    3.7212  -59.6239 H   0  0  0  1  0  0  0  0  0  0  0  0
   22.2035    3.4711  -65.4701 H   0  0  0  1  0  0  0  0  0  0  0  0
   24.7187    3.9307  -63.8693 H   0  0  0  1  0  0  0  0  0  0  0  0
   23.7248    5.1176  -64.6803 H   0  0  0  1  0  0  0  0  0  0  0  0
   23.4006    4.6786  -62.0602 H   0  0  0  1  0  0  0  0  0  0  0  0
   22.0038    4.9521  -63.0742 H   0  0  0  1  0  0  0  0  0  0  0  0
   23.8342    2.5289  -66.8265 H   0  0  0  1  0  0  0  0  0  0  0  0
   27.2841    2.0603  -56.4207 H   0  0  0  1  0  0  0  0  0  0  0  0
   25.6439    1.6739  -55.9594 H   0  0  0  1  0  0  0  0  0  0  0  0
   26.3539    3.1946  -55.4718 H   0  0  0  1  0  0  0  0  0  0  0  0
   21.6796    1.6112  -64.1484 H   0  0  0  1  0  0  0  0  0  0  0  0
   23.3468    1.3436  -63.6974 H   0  0  0  1  0  0  0  0  0  0  0  0
   21.7993    4.3104  -60.4568 H   0  0  0  1  0  0  0  0  0  0  0  0
   20.8787    3.3623  -58.4472 H   0  0  0  1  0  0  0  0  0  0  0  0
   20.9000   -0.3794  -60.0792 H   0  0  0  1  0  0  0  0  0  0  0  0
   21.8112    0.4622  -62.1439 H   0  0  0  1  0  0  0  0  0  0  0  0
  1  3  4  0  0  0  0
  1 14  4  0  0  0  0
  1 21  1  0  0  0  0
  2 14  4  0  0  0  0
  2 15  4  0  0  0  0
  2 30  1  0  0  0  0
  3 16  4  0  0  0  0
  4  5  4  0  0  0  0
  4  7  4  0  0  0  0
  4 17  1  0  0  0  0
  5  9  4  0  0  0  0
  5 31  1  0  0  0  0
  6  7  4  0  0  0  0
  6  8  4  0  0  0  0
  6 32  1  0  0  0  0
  7 33  1  0  0  0  0
  8  9  4  0  0  0  0
  8 20  1  0  0  0  0
  9 34  1  0  0  0  0
 10 11  1  0  0  0  0
 10 21  1  0  0  0  0
 10 24  1  0  0  0  0
 10 35  1  0  0  0  0
 11 12  1  0  0  0  0
 11 36  1  0  0  0  0
 11 37  1  0  0  0  0
 12 23  1  0  0  0  0
 12 38  1  0  0  0  0
 12 39  1  0  0  0  0
 13 23  1  0  0  0  0
 13 25  4  0  0  0  0
 13 29  4  0  0  0  0
 15 16  4  0  0  0  0
 15 18  4  0  0  0  0
 16 17  4  0  0  0  0
 17 19  4  0  0  0  0
 18 19  4  0  0  0  0
 20 22  1  0  0  0  0
 21 40  1  0  0  0  0
 22 41  1  0  0  0  0
 22 42  1  0  0  0  0
 22 43  1  0  0  0  0
 23 24  1  0  0  0  0
 24 44  1  0  0  0  0
 24 45  1  0  0  0  0
 25 26  4  0  0  0  0
 25 46  1  0  0  0  0
 26 27  4  0  0  0  0
 26 47  1  0  0  0  0
 27 28  4  0  0  0  0
 28 29  4  0  0  0  0
 28 48  1  0  0  0  0
 29 49  1  0  0  0  0
M  END
> <ConfClashScore>
0 

> <ConfOneFourInteractionScore>
-0.983503 

> <ConfScore>
0.108413 

> <ConfScorePBest>
0.00210048 

> <ConfTolerance>
0.607694 

> <HETNAM>
     OWQ A 303  OWQ                                                       

> <pdb_OW>
Q_303 -16.5129 3.80749 7.62812 0.15963 1.39178 -0.28144 -3.20151 0 0 0 -1.30514 0 0 0 0 0 0 0 0 -8.31393

$$$$
6yky_lig_1.pdb
 OpenBabel04162415593D

 49 53  0  0  0  0  0  0  0  0999 V2000
   25.1049    1.8136  -65.3760 C   0  0  0  1  0  0  0  0  0  0  0  0
   26.9167    0.5034  -65.9325 C   0  0  0  1  0  0  0  0  0  0  0  0
   25.4179    1.8285  -64.0982 N   0  0  0  1  0  0  0  0  0  0  0  0
   26.7287    1.4701  -61.1391 C   0  0  0  1  0  0  0  0  0  0  0  0
   26.5168    0.5229  -60.1552 C   0  0  0  1  0  0  0  0  0  0  0  0
   26.0801    3.2025  -59.6143 C   0  0  0  1  0  0  0  0  0  0  0  0
   26.5075    2.8116  -60.8692 C   0  0  0  1  0  0  0  0  0  0  0  0
   25.8674    2.2527  -58.6273 C   0  0  0  1  0  0  0  0  0  0  0  0
   26.0882    0.9152  -58.8966 C   0  0  0  1  0  0  0  0  0  0  0  0
   23.0928    3.1672  -64.8870 C   0  0  0  1  0  0  0  0  0  0  0  0
   23.8085    4.2871  -64.1470 C   0  0  0  1  0  0  0  0  0  0  0  0
   22.9447    4.4882  -62.9147 C   0  0  0  1  0  0  0  0  0  0  0  0
   21.9217    2.7394  -61.3881 C   0  0  0  1  0  0  0  0  0  0  0  0
   25.8297    1.1707  -66.2748 N   0  0  0  1  0  0  0  0  0  0  0  0
   27.2965    0.4857  -64.5856 C   0  0  0  1  0  0  0  0  0  0  0  0
   26.4937    1.1853  -63.6614 C   0  0  0  1  0  0  0  0  0  0  0  0
   27.0810    1.0062  -62.4395 N   0  0  0  1  0  0  0  0  0  0  0  0
   28.3159   -0.0766  -63.9004 N   0  0  0  1  0  0  0  0  0  0  0  0
   28.2164    0.2092  -62.6490 N   0  0  0  1  0  0  0  0  0  0  0  0
   25.3533    2.6280  -57.4320 O   0  0  0  1  0  0  0  0  0  0  0  0
   24.0035    2.4788  -65.7852 N   0  0  0  1  0  0  0  0  0  0  0  0
   25.1125    1.5922  -56.4669 C   0  0  0  1  0  0  0  0  0  0  0  0
   22.4629    3.1305  -62.6219 N   0  0  0  1  0  0  0  0  0  0  0  0
   22.6150    2.2304  -63.7756 C   0  0  0  1  0  0  0  0  0  0  0  0
   22.8265    2.2981  -60.4405 C   0  0  0  1  0  0  0  0  0  0  0  0
   22.3538    1.9029  -59.2035 C   0  0  0  1  0  0  0  0  0  0  0  0
   21.0594    1.9211  -58.8714 N   0  0  0  1  0  0  0  0  0  0  0  0
   20.1928    2.3472  -59.8013 C   0  0  0  1  0  0  0  0  0  0  0  0
   20.5796    2.7644  -61.0629 C   0  0  0  1  0  0  0  0  0  0  0  0
   27.4789    0.0013  -66.6491 H   0  0  0  1  0  0  0  0  0  0  0  0
   26.6789   -0.4840  -60.3589 H   0  0  0  1  0  0  0  0  0  0  0  0
   25.9179    4.2094  -59.4105 H   0  0  0  1  0  0  0  0  0  0  0  0
   26.6631    3.5239  -61.6108 H   0  0  0  1  0  0  0  0  0  0  0  0
   25.9325    0.2028  -58.1550 H   0  0  0  1  0  0  0  0  0  0  0  0
   22.2630    3.5497  -65.4439 H   0  0  0  1  0  0  0  0  0  0  0  0
   24.8019    3.9959  -63.8769 H   0  0  0  1  0  0  0  0  0  0  0  0
   23.8458    5.1771  -64.7398 H   0  0  0  1  0  0  0  0  0  0  0  0
   23.5212    4.8752  -62.1005 H   0  0  0  1  0  0  0  0  0  0  0  0
   22.1290    5.1493  -63.1208 H   0  0  0  1  0  0  0  0  0  0  0  0
   23.8069    2.4984  -66.7452 H   0  0  0  1  0  0  0  0  0  0  0  0
   24.2081    1.0767  -56.7144 H   0  0  0  1  0  0  0  0  0  0  0  0
   25.0200    2.0266  -55.4934 H   0  0  0  1  0  0  0  0  0  0  0  0
   25.9296    0.9016  -56.4738 H   0  0  0  1  0  0  0  0  0  0  0  0
   23.3409    1.4700  -63.5762 H   0  0  0  1  0  0  0  0  0  0  0  0
   21.6818    1.7745  -64.0327 H   0  0  0  1  0  0  0  0  0  0  0  0
   23.8437    2.2642  -60.6545 H   0  0  0  1  0  0  0  0  0  0  0  0
   23.0405    1.5744  -58.4949 H   0  0  0  1  0  0  0  0  0  0  0  0
   19.1806    2.3650  -59.5630 H   0  0  0  1  0  0  0  0  0  0  0  0
   19.8731    3.0906  -61.7529 H   0  0  0  1  0  0  0  0  0  0  0  0
  1  3  4  0  0  0  0
  1 14  4  0  0  0  0
  1 21  1  0  0  0  0
  2 14  4  0  0  0  0
  2 15  4  0  0  0  0
  2 30  1  0  0  0  0
  3 16  4  0  0  0  0
  4  5  4  0  0  0  0
  4  7  4  0  0  0  0
  4 17  1  0  0  0  0
  5  9  4  0  0  0  0
  5 31  1  0  0  0  0
  6  7  4  0  0  0  0
  6  8  4  0  0  0  0
  6 32  1  0  0  0  0
  7 33  1  0  0  0  0
  8  9  4  0  0  0  0
  8 20  1  0  0  0  0
  9 34  1  0  0  0  0
 10 11  1  0  0  0  0
 10 21  1  0  0  0  0
 10 24  1  0  0  0  0
 10 35  1  0  0  0  0
 11 12  1  0  0  0  0
 11 36  1  0  0  0  0
 11 37  1  0  0  0  0
 12 23  1  0  0  0  0
 12 38  1  0  0  0  0
 12 39  1  0  0  0  0
 13 23  1  0  0  0  0
 13 25  4  0  0  0  0
 13 29  4  0  0  0  0
 15 16  4  0  0  0  0
 15 18  4  0  0  0  0
 16 17  4  0  0  0  0
 17 19  4  0  0  0  0
 18 19  4  0  0  0  0
 20 22  1  0  0  0  0
 21 40  1  0  0  0  0
 22 41  1  0  0  0  0
 22 42  1  0  0  0  0
 22 43  1  0  0  0  0
 23 24  1  0  0  0  0
 24 44  1  0  0  0  0
 24 45  1  0  0  0  0
 25 26  4  0  0  0  0
 25 46  1  0  0  0  0
 26 27  4  0  0  0  0
 26 47  1  0  0  0  0
 27 28  4  0  0  0  0
 28 29  4  0  0  0  0
 28 48  1  0  0  0  0
 29 49  1  0  0  0  0
M  END
> <ConfClashScore>
0 

> <ConfOneFourInteractionScore>
-0.983503 

> <ConfScore>
0.108949 

> <ConfScorePBest>
0.00208715 

> <ConfTolerance>
0.720684 

> <HETNAM>
     OWQ A 303  OWQ                                                       

> <pdb_OW>
Q_303 -16.5129 3.80749 7.62812 0.15963 1.39178 -0.28144 -3.20151 0 0 0 -1.30514 0 0 0 0 0 0 0 0 -8.31393

$$$$
6yky_lig_1.pdb
 OpenBabel04162415593D

 49 53  0  0  0  0  0  0  0  0999 V2000
   25.1047    1.8135  -65.3760 C   0  0  0  1  0  0  0  0  0  0  0  0
   26.9167    0.5034  -65.9326 C   0  0  0  1  0  0  0  0  0  0  0  0
   25.4178    1.8283  -64.0982 N   0  0  0  1  0  0  0  0  0  0  0  0
   26.7518    1.5716  -61.1738 C   0  0  0  1  0  0  0  0  0  0  0  0
   27.6024    1.4018  -60.0977 C   0  0  0  1  0  0  0  0  0  0  0  0
   25.1738    2.6852  -59.7535 C   0  0  0  1  0  0  0  0  0  0  0  0
   25.5345    2.2119  -61.0009 C   0  0  0  1  0  0  0  0  0  0  0  0
   26.0268    2.5149  -58.6741 C   0  0  0  1  0  0  0  0  0  0  0  0
   27.2404    1.8764  -58.8467 C   0  0  0  1  0  0  0  0  0  0  0  0
   23.1698    3.2819  -64.9078 C   0  0  0  1  0  0  0  0  0  0  0  0
   22.2234    2.4009  -64.0768 C   0  0  0  1  0  0  0  0  0  0  0  0
   21.1028    3.3919  -63.7262 C   0  0  0  1  0  0  0  0  0  0  0  0
   20.8974    5.9055  -64.3469 C   0  0  0  1  0  0  0  0  0  0  0  0
   25.8297    1.1706  -66.2748 N   0  0  0  1  0  0  0  0  0  0  0  0
   27.2964    0.4857  -64.5858 C   0  0  0  1  0  0  0  0  0  0  0  0
   26.4936    1.1851  -63.6614 C   0  0  0  1  0  0  0  0  0  0  0  0
   27.0809    1.0061  -62.4395 N   0  0  0  1  0  0  0  0  0  0  0  0
   28.3159   -0.0766  -63.9004 N   0  0  0  1  0  0  0  0  0  0  0  0
   28.2164    0.2092  -62.6490 N   0  0  0  1  0  0  0  0  0  0  0  0
   25.7164    3.0563  -57.4722 O   0  0  0  1  0  0  0  0  0  0  0  0
   24.0034    2.4786  -65.7853 N   0  0  0  1  0  0  0  0  0  0  0  0
   24.3904    3.5845  -57.3133 C   0  0  0  1  0  0  0  0  0  0  0  0
   21.3601    4.5933  -64.5757 N   0  0  0  1  0  0  0  0  0  0  0  0
   22.1948    4.1335  -65.7012 C   0  0  0  1  0  0  0  0  0  0  0  0
   19.9502    6.1601  -63.3724 C   0  0  0  1  0  0  0  0  0  0  0  0
   19.4587    7.4450  -63.2429 C   0  0  0  1  0  0  0  0  0  0  0  0
   19.8496    8.4629  -64.0159 N   0  0  0  1  0  0  0  0  0  0  0  0
   20.7653    8.2009  -64.9595 C   0  0  0  1  0  0  0  0  0  0  0  0
   21.3128    6.9451  -65.1560 C   0  0  0  1  0  0  0  0  0  0  0  0
   27.4789    0.0013  -66.6491 H   0  0  0  1  0  0  0  0  0  0  0  0
   28.5138    0.9178  -60.2266 H   0  0  0  1  0  0  0  0  0  0  0  0
   24.2623    3.1692  -59.6245 H   0  0  0  1  0  0  0  0  0  0  0  0
   24.8927    2.3361  -61.8098 H   0  0  0  1  0  0  0  0  0  0  0  0
   27.8822    1.7523  -58.0378 H   0  0  0  1  0  0  0  0  0  0  0  0
   23.7906    3.8856  -64.2793 H   0  0  0  1  0  0  0  0  0  0  0  0
   21.8509    1.5787  -64.6514 H   0  0  0  1  0  0  0  0  0  0  0  0
   22.7069    2.0317  -63.1966 H   0  0  0  1  0  0  0  0  0  0  0  0
   21.1426    3.6510  -62.6887 H   0  0  0  1  0  0  0  0  0  0  0  0
   20.1456    2.9709  -63.9527 H   0  0  0  1  0  0  0  0  0  0  0  0
   23.7514    2.4158  -66.7303 H   0  0  0  1  0  0  0  0  0  0  0  0
   24.3713    4.2574  -56.4816 H   0  0  0  1  0  0  0  0  0  0  0  0
   23.7054    2.7815  -57.1379 H   0  0  0  1  0  0  0  0  0  0  0  0
   24.1065    4.1084  -58.2020 H   0  0  0  1  0  0  0  0  0  0  0  0
   22.6804    4.9442  -66.2030 H   0  0  0  1  0  0  0  0  0  0  0  0
   21.6373    3.5573  -66.4098 H   0  0  0  1  0  0  0  0  0  0  0  0
   19.6140    5.3988  -62.7488 H   0  0  0  1  0  0  0  0  0  0  0  0
   18.7483    7.6296  -62.5060 H   0  0  0  1  0  0  0  0  0  0  0  0
   21.0794    8.9792  -65.5736 H   0  0  0  1  0  0  0  0  0  0  0  0
   22.0235    6.7872  -65.8986 H   0  0  0  1  0  0  0  0  0  0  0  0
  1  3  4  0  0  0  0
  1 14  4  0  0  0  0
  1 21  1  0  0  0  0
  2 14  4  0  0  0  0
  2 15  4  0  0  0  0
  2 30  1  0  0  0  0
  3 16  4  0  0  0  0
  4  5  4  0  0  0  0
  4  7  4  0  0  0  0
  4 17  1  0  0  0  0
  5  9  4  0  0  0  0
  5 31  1  0  0  0  0
  6  7  4  0  0  0  0
  6  8  4  0  0  0  0
  6 32  1  0  0  0  0
  7 33  1  0  0  0  0
  8  9  4  0  0  0  0
  8 20  1  0  0  0  0
  9 34  1  0  0  0  0
 10 11  1  0  0  0  0
 10 21  1  0  0  0  0
 10 24  1  0  0  0  0
 10 35  1  0  0  0  0
 11 12  1  0  0  0  0
 11 36  1  0  0  0  0
 11 37  1  0  0  0  0
 12 23  1  0  0  0  0
 12 38  1  0  0  0  0
 12 39  1  0  0  0  0
 13 23  1  0  0  0  0
 13 25  4  0  0  0  0
 13 29  4  0  0  0  0
 15 16  4  0  0  0  0
 15 18  4  0  0  0  0
 16 17  4  0  0  0  0
 17 19  4  0  0  0  0
 18 19  4  0  0  0  0
 20 22  1  0  0  0  0
 21 40  1  0  0  0  0
 22 41  1  0  0  0  0
 22 42  1  0  0  0  0
 22 43  1  0  0  0  0
 23 24  1  0  0  0  0
 24 44  1  0  0  0  0
 24 45  1  0  0  0  0
 25 26  4  0  0  0  0
 25 46  1  0  0  0  0
 26 27  4  0  0  0  0
 26 47  1  0  0  0  0
 27 28  4  0  0  0  0
 28 29  4  0  0  0  0
 28 48  1  0  0  0  0
 29 49  1  0  0  0  0
M  END
> <ConfClashScore>
0 

> <ConfOneFourInteractionScore>
-0.986948 

> <ConfScore>
0.110605 

> <ConfScorePBest>
0.00207382 

> <ConfTolerance>
0.606134 

> <HETNAM>
     OWQ A 303  OWQ                                                       

> <pdb_OW>
Q_303 -16.5129 3.80749 7.62812 0.15963 1.39178 -0.28144 -3.20151 0 0 0 -1.30514 0 0 0 0 0 0 0 0 -8.31393

$$$$
6yky_lig_1.pdb
 OpenBabel04162415593D

 49 53  0  0  0  0  0  0  0  0999 V2000
   25.1048    1.8135  -65.3759 C   0  0  0  1  0  0  0  0  0  0  0  0
   26.9167    0.5034  -65.9326 C   0  0  0  1  0  0  0  0  0  0  0  0
   25.4178    1.8283  -64.0982 N   0  0  0  1  0  0  0  0  0  0  0  0
   26.7670    1.4473  -61.1216 C   0  0  0  1  0  0  0  0  0  0  0  0
   27.6670    2.2271  -60.4201 C   0  0  0  1  0  0  0  0  0  0  0  0
   25.3333    1.3709  -59.2016 C   0  0  0  1  0  0  0  0  0  0  0  0
   25.5997    1.0163  -60.5107 C   0  0  0  1  0  0  0  0  0  0  0  0
   26.2359    2.1531  -58.4979 C   0  0  0  1  0  0  0  0  0  0  0  0
   27.3998    2.5827  -59.1073 C   0  0  0  1  0  0  0  0  0  0  0  0
   23.1133    3.1583  -64.8490 C   0  0  0  1  0  0  0  0  0  0  0  0
   21.9609    2.2417  -64.4083 C   0  0  0  1  0  0  0  0  0  0  0  0
   20.9045    3.2633  -63.9597 C   0  0  0  1  0  0  0  0  0  0  0  0
   21.0564    5.8597  -63.9203 C   0  0  0  1  0  0  0  0  0  0  0  0
   25.8297    1.1707  -66.2748 N   0  0  0  1  0  0  0  0  0  0  0  0
   27.2965    0.4857  -64.5857 C   0  0  0  1  0  0  0  0  0  0  0  0
   26.4937    1.1852  -63.6614 C   0  0  0  1  0  0  0  0  0  0  0  0
   27.0810    1.0061  -62.4395 N   0  0  0  1  0  0  0  0  0  0  0  0
   28.3158   -0.0766  -63.9004 N   0  0  0  1  0  0  0  0  0  0  0  0
   28.2164    0.2092  -62.6490 N   0  0  0  1  0  0  0  0  0  0  0  0
   26.0386    2.5289  -57.2193 O   0  0  0  1  0  0  0  0  0  0  0  0
   23.9920    2.4856  -65.7894 N   0  0  0  1  0  0  0  0  0  0  0  0
   24.7630    2.1417  -56.6574 C   0  0  0  1  0  0  0  0  0  0  0  0
   21.4159    4.5876  -64.4239 N   0  0  0  1  0  0  0  0  0  0  0  0
   22.3704    4.3048  -65.5118 C   0  0  0  1  0  0  0  0  0  0  0  0
   19.9862    6.5526  -64.4552 C   0  0  0  1  0  0  0  0  0  0  0  0
   19.6669    7.7905  -63.9307 C   0  0  0  1  0  0  0  0  0  0  0  0
   20.3431    8.3607  -62.9287 N   0  0  0  1  0  0  0  0  0  0  0  0
   21.3810    7.6796  -62.4226 C   0  0  0  1  0  0  0  0  0  0  0  0
   21.7675    6.4337  -62.8847 C   0  0  0  1  0  0  0  0  0  0  0  0
   27.4789    0.0013  -66.6491 H   0  0  0  1  0  0  0  0  0  0  0  0
   28.5447    2.5471  -60.8772 H   0  0  0  1  0  0  0  0  0  0  0  0
   24.4557    1.0511  -58.7445 H   0  0  0  1  0  0  0  0  0  0  0  0
   24.9244    0.4262  -61.0373 H   0  0  0  1  0  0  0  0  0  0  0  0
   28.0751    3.1729  -58.5806 H   0  0  0  1  0  0  0  0  0  0  0  0
   23.6823    3.4981  -64.0089 H   0  0  0  1  0  0  0  0  0  0  0  0
   22.2559    1.6055  -63.6003 H   0  0  0  1  0  0  0  0  0  0  0  0
   21.6050    1.6444  -65.2216 H   0  0  0  1  0  0  0  0  0  0  0  0
   20.8022    3.2534  -62.8946 H   0  0  0  1  0  0  0  0  0  0  0  0
   19.9589    3.0473  -64.4113 H   0  0  0  1  0  0  0  0  0  0  0  0
   23.7800    2.5152  -66.7458 H   0  0  0  1  0  0  0  0  0  0  0  0
   24.0161    2.1563  -57.4235 H   0  0  0  1  0  0  0  0  0  0  0  0
   24.4919    2.8277  -55.8824 H   0  0  0  1  0  0  0  0  0  0  0  0
   24.8374    1.1547  -56.2510 H   0  0  0  1  0  0  0  0  0  0  0  0
   23.0103    5.1377  -65.7161 H   0  0  0  1  0  0  0  0  0  0  0  0
   21.8795    4.0021  -66.4130 H   0  0  0  1  0  0  0  0  0  0  0  0
   19.4319    6.1498  -65.2375 H   0  0  0  1  0  0  0  0  0  0  0  0
   18.8592    8.3049  -64.3363 H   0  0  0  1  0  0  0  0  0  0  0  0
   21.9221    8.1085  -61.6448 H   0  0  0  1  0  0  0  0  0  0  0  0
   22.5779    5.9391  -62.4603 H   0  0  0  1  0  0  0  0  0  0  0  0
  1  3  4  0  0  0  0
  1 14  4  0  0  0  0
  1 21  1  0  0  0  0
  2 14  4  0  0  0  0
  2 15  4  0  0  0  0
  2 30  1  0  0  0  0
  3 16  4  0  0  0  0
  4  5  4  0  0  0  0
  4  7  4  0  0  0  0
  4 17  1  0  0  0  0
  5  9  4  0  0  0  0
  5 31  1  0  0  0  0
  6  7  4  0  0  0  0
  6  8  4  0  0  0  0
  6 32  1  0  0  0  0
  7 33  1  0  0  0  0
  8  9  4  0  0  0  0
  8 20  1  0  0  0  0
  9 34  1  0  0  0  0
 10 11  1  0  0  0  0
 10 21  1  0  0  0  0
 10 24  1  0  0  0  0
 10 35  1  0  0  0  0
 11 12  1  0  0  0  0
 11 36  1  0  0  0  0
 11 37  1  0  0  0  0
 12 23  1  0  0  0  0
 12 38  1  0  0  0  0
 12 39  1  0  0  0  0
 13 23  1  0  0  0  0
 13 25  4  0  0  0  0
 13 29  4  0  0  0  0
 15 16  4  0  0  0  0
 15 18  4  0  0  0  0
 16 17  4  0  0  0  0
 17 19  4  0  0  0  0
 18 19  4  0  0  0  0
 20 22  1  0  0  0  0
 21 40  1  0  0  0  0
 22 41  1  0  0  0  0
 22 42  1  0  0  0  0
 22 43  1  0  0  0  0
 23 24  1  0  0  0  0
 24 44  1  0  0  0  0
 24 45  1  0  0  0  0
 25 26  4  0  0  0  0
 25 46  1  0  0  0  0
 26 27  4  0  0  0  0
 26 47  1  0  0  0  0
 27 28  4  0  0  0  0
 28 29  4  0  0  0  0
 28 48  1  0  0  0  0
 29 49  1  0  0  0  0
M  END
> <ConfClashScore>
0 

> <ConfOneFourInteractionScore>
-0.986948 

> <ConfScore>
0.111699 

> <ConfScorePBest>
0.00206049 

> <ConfTolerance>
0.670379 

> <HETNAM>
     OWQ A 303  OWQ                                                       

> <pdb_OW>
Q_303 -16.5129 3.80749 7.62812 0.15963 1.39178 -0.28144 -3.20151 0 0 0 -1.30514 0 0 0 0 0 0 0 0 -8.31393

$$$$
6yky_lig_1.pdb
 OpenBabel04162415593D

 49 53  0  0  0  0  0  0  0  0999 V2000
   25.1048    1.8136  -65.3759 C   0  0  0  1  0  0  0  0  0  0  0  0
   26.9167    0.5034  -65.9326 C   0  0  0  1  0  0  0  0  0  0  0  0
   25.4179    1.8284  -64.0981 N   0  0  0  1  0  0  0  0  0  0  0  0
   26.7286    1.4700  -61.1390 C   0  0  0  1  0  0  0  0  0  0  0  0
   25.4703    1.2111  -60.6294 C   0  0  0  1  0  0  0  0  0  0  0  0
   27.2457    2.7835  -59.2013 C   0  0  0  1  0  0  0  0  0  0  0  0
   27.6168    2.2595  -60.4253 C   0  0  0  1  0  0  0  0  0  0  0  0
   25.9837    2.5240  -58.6900 C   0  0  0  1  0  0  0  0  0  0  0  0
   25.0983    1.7367  -59.4019 C   0  0  0  1  0  0  0  0  0  0  0  0
   23.7950    2.6629  -67.2772 C   0  0  0  1  0  0  0  0  0  0  0  0
   22.8641    3.8257  -67.5271 C   0  0  0  1  0  0  0  0  0  0  0  0
   22.2933    3.5570  -68.9051 C   0  0  0  1  0  0  0  0  0  0  0  0
   21.6415    1.3646  -69.9650 C   0  0  0  1  0  0  0  0  0  0  0  0
   25.8296    1.1707  -66.2747 N   0  0  0  1  0  0  0  0  0  0  0  0
   27.2965    0.4858  -64.5857 C   0  0  0  1  0  0  0  0  0  0  0  0
   26.4937    1.1852  -63.6613 C   0  0  0  1  0  0  0  0  0  0  0  0
   27.0810    1.0061  -62.4394 N   0  0  0  1  0  0  0  0  0  0  0  0
   28.3159   -0.0766  -63.9004 N   0  0  0  1  0  0  0  0  0  0  0  0
   28.2164    0.2093  -62.6490 N   0  0  0  1  0  0  0  0  0  0  0  0
   25.5900    3.1170  -57.5462 O   0  0  0  1  0  0  0  0  0  0  0  0
   24.0057    2.4651  -65.8540 N   0  0  0  1  0  0  0  0  0  0  0  0
   26.6601    3.6616  -56.7394 C   0  0  0  1  0  0  0  0  0  0  0  0
   22.2910    2.0846  -68.9814 N   0  0  0  1  0  0  0  0  0  0  0  0
   23.0598    1.4723  -67.8894 C   0  0  0  1  0  0  0  0  0  0  0  0
   21.6637   -0.0178  -69.9515 C   0  0  0  1  0  0  0  0  0  0  0  0
   20.9221   -0.7037  -70.8946 C   0  0  0  1  0  0  0  0  0  0  0  0
   20.1811   -0.0992  -71.8282 N   0  0  0  1  0  0  0  0  0  0  0  0
   20.1722    1.2413  -71.8324 C   0  0  0  1  0  0  0  0  0  0  0  0
   20.8819    2.0066  -70.9234 C   0  0  0  1  0  0  0  0  0  0  0  0
   27.4788    0.0014  -66.6492 H   0  0  0  1  0  0  0  0  0  0  0  0
   24.8027    0.6221  -61.1668 H   0  0  0  1  0  0  0  0  0  0  0  0
   27.9134    3.3724  -58.6638 H   0  0  0  1  0  0  0  0  0  0  0  0
   28.5622    2.4575  -60.8107 H   0  0  0  1  0  0  0  0  0  0  0  0
   24.1528    1.5387  -59.0165 H   0  0  0  1  0  0  0  0  0  0  0  0
   24.7373    2.8183  -67.7597 H   0  0  0  1  0  0  0  0  0  0  0  0
   23.4012    4.7511  -67.5130 H   0  0  0  1  0  0  0  0  0  0  0  0
   22.0860    3.8529  -66.7931 H   0  0  0  1  0  0  0  0  0  0  0  0
   22.9133    3.9806  -69.6674 H   0  0  0  1  0  0  0  0  0  0  0  0
   21.3013    3.9482  -68.9933 H   0  0  0  1  0  0  0  0  0  0  0  0
   23.3413    2.8086  -65.2208 H   0  0  0  1  0  0  0  0  0  0  0  0
   26.7506    4.7110  -56.9273 H   0  0  0  1  0  0  0  0  0  0  0  0
   27.5790    3.1740  -56.9900 H   0  0  0  1  0  0  0  0  0  0  0  0
   26.4422    3.5023  -55.7039 H   0  0  0  1  0  0  0  0  0  0  0  0
   23.7500    0.7462  -68.2652 H   0  0  0  1  0  0  0  0  0  0  0  0
   22.4113    1.0117  -67.1737 H   0  0  0  1  0  0  0  0  0  0  0  0
   22.2279   -0.5318  -69.2451 H   0  0  0  1  0  0  0  0  0  0  0  0
   20.9416   -1.7433  -70.8768 H   0  0  0  1  0  0  0  0  0  0  0  0
   19.6045    1.7301  -72.5538 H   0  0  0  1  0  0  0  0  0  0  0  0
   20.8438    3.0451  -70.9612 H   0  0  0  1  0  0  0  0  0  0  0  0
  1  3  4  0  0  0  0
  1 14  4  0  0  0  0
  1 21  1  0  0  0  0
  2 14  4  0  0  0  0
  2 15  4  0  0  0  0
  2 30  1  0  0  0  0
  3 16  4  0  0  0  0
  4  5  4  0  0  0  0
  4  7  4  0  0  0  0
  4 17  1  0  0  0  0
  5  9  4  0  0  0  0
  5 31  1  0  0  0  0
  6  7  4  0  0  0  0
  6  8  4  0  0  0  0
  6 32  1  0  0  0  0
  7 33  1  0  0  0  0
  8  9  4  0  0  0  0
  8 20  1  0  0  0  0
  9 34  1  0  0  0  0
 10 11  1  0  0  0  0
 10 21  1  0  0  0  0
 10 24  1  0  0  0  0
 10 35  1  0  0  0  0
 11 12  1  0  0  0  0
 11 36  1  0  0  0  0
 11 37  1  0  0  0  0
 12 23  1  0  0  0  0
 12 38  1  0  0  0  0
 12 39  1  0  0  0  0
 13 23  1  0  0  0  0
 13 25  4  0  0  0  0
 13 29  4  0  0  0  0
 15 16  4  0  0  0  0
 15 18  4  0  0  0  0
 16 17  4  0  0  0  0
 17 19  4  0  0  0  0
 18 19  4  0  0  0  0
 20 22  1  0  0  0  0
 21 40  1  0  0  0  0
 22 41  1  0  0  0  0
 22 42  1  0  0  0  0
 22 43  1  0  0  0  0
 23 24  1  0  0  0  0
 24 44  1  0  0  0  0
 24 45  1  0  0  0  0
 25 26  4  0  0  0  0
 25 46  1  0  0  0  0
 26 27  4  0  0  0  0
 26 47  1  0  0  0  0
 27 28  4  0  0  0  0
 28 29  4  0  0  0  0
 28 48  1  0  0  0  0
 29 49  1  0  0  0  0
M  END
> <ConfClashScore>
0 

> <ConfOneFourInteractionScore>
-0.984874 

> <ConfScore>
0.111948 

> <ConfScorePBest>
0.00204716 

> <ConfTolerance>
0.527581 

> <HETNAM>
     OWQ A 303  OWQ                                                       

> <pdb_OW>
Q_303 -16.5129 3.80749 7.62812 0.15963 1.39178 -0.28144 -3.20151 0 0 0 -1.30514 0 0 0 0 0 0 0 0 -8.31393

$$$$
6yky_lig_1.pdb
 OpenBabel04162415593D

 49 53  0  0  0  0  0  0  0  0999 V2000
   25.1048    1.8135  -65.3760 C   0  0  0  1  0  0  0  0  0  0  0  0
   26.9167    0.5034  -65.9326 C   0  0  0  1  0  0  0  0  0  0  0  0
   25.4179    1.8283  -64.0982 N   0  0  0  1  0  0  0  0  0  0  0  0
   26.7866    1.5430  -61.1529 C   0  0  0  1  0  0  0  0  0  0  0  0
   25.9179    2.6111  -61.0310 C   0  0  0  1  0  0  0  0  0  0  0  0
   27.2259    1.6286  -58.7977 C   0  0  0  1  0  0  0  0  0  0  0  0
   27.4436    1.0527  -60.0351 C   0  0  0  1  0  0  0  0  0  0  0  0
   26.3547    2.6999  -58.6752 C   0  0  0  1  0  0  0  0  0  0  0  0
   25.6997    3.1886  -59.7899 C   0  0  0  1  0  0  0  0  0  0  0  0
   23.2205    3.2032  -64.6969 C   0  0  0  1  0  0  0  0  0  0  0  0
   21.9965    2.4179  -64.3250 C   0  0  0  1  0  0  0  0  0  0  0  0
   20.8342    3.3549  -64.5299 C   0  0  0  1  0  0  0  0  0  0  0  0
   20.6303    4.7715  -66.6561 C   0  0  0  1  0  0  0  0  0  0  0  0
   25.8297    1.1707  -66.2747 N   0  0  0  1  0  0  0  0  0  0  0  0
   27.2966    0.4857  -64.5857 C   0  0  0  1  0  0  0  0  0  0  0  0
   26.4937    1.1852  -63.6614 C   0  0  0  1  0  0  0  0  0  0  0  0
   27.0809    1.0061  -62.4395 N   0  0  0  1  0  0  0  0  0  0  0  0
   28.3159   -0.0766  -63.9004 N   0  0  0  1  0  0  0  0  0  0  0  0
   28.2164    0.2092  -62.6490 N   0  0  0  1  0  0  0  0  0  0  0  0
   26.0745    3.2011  -57.4667 O   0  0  0  1  0  0  0  0  0  0  0  0
   23.9680    2.5094  -65.7453 N   0  0  0  1  0  0  0  0  0  0  0  0
   25.2176    4.3806  -57.3010 C   0  0  0  1  0  0  0  0  0  0  0  0
   21.3264    4.2736  -65.5738 N   0  0  0  1  0  0  0  0  0  0  0  0
   22.7284    4.5412  -65.2026 C   0  0  0  1  0  0  0  0  0  0  0  0
   21.2215    4.8383  -67.9042 C   0  0  0  1  0  0  0  0  0  0  0  0
   20.4869    5.3402  -68.9616 C   0  0  0  1  0  0  0  0  0  0  0  0
   19.2274    5.7709  -68.8426 N   0  0  0  1  0  0  0  0  0  0  0  0
   18.6681    5.7044  -67.6261 C   0  0  0  1  0  0  0  0  0  0  0  0
   19.3293    5.2130  -66.5140 C   0  0  0  1  0  0  0  0  0  0  0  0
   27.4790    0.0014  -66.6492 H   0  0  0  1  0  0  0  0  0  0  0  0
   25.4280    2.9814  -61.8703 H   0  0  0  1  0  0  0  0  0  0  0  0
   27.7158    1.2582  -57.9583 H   0  0  0  1  0  0  0  0  0  0  0  0
   28.1003    0.2516  -60.1276 H   0  0  0  1  0  0  0  0  0  0  0  0
   25.0430    3.9896  -59.6975 H   0  0  0  1  0  0  0  0  0  0  0  0
   23.8479    3.3386  -63.8409 H   0  0  0  1  0  0  0  0  0  0  0  0
   21.8986    1.5587  -64.9552 H   0  0  0  1  0  0  0  0  0  0  0  0
   22.0492    2.1069  -63.3026 H   0  0  0  1  0  0  0  0  0  0  0  0
   19.9670    2.8241  -64.8632 H   0  0  0  1  0  0  0  0  0  0  0  0
   20.6044    3.8847  -63.6291 H   0  0  0  1  0  0  0  0  0  0  0  0
   23.6729    2.5367  -66.6793 H   0  0  0  1  0  0  0  0  0  0  0  0
   24.3500    4.2815  -57.9195 H   0  0  0  1  0  0  0  0  0  0  0  0
   25.7598    5.2580  -57.5856 H   0  0  0  1  0  0  0  0  0  0  0  0
   24.9179    4.4624  -56.2771 H   0  0  0  1  0  0  0  0  0  0  0  0
   23.2947    4.8607  -66.0523 H   0  0  0  1  0  0  0  0  0  0  0  0
   22.7857    5.2847  -64.4352 H   0  0  0  1  0  0  0  0  0  0  0  0
   22.2006    4.5167  -68.0445 H   0  0  0  1  0  0  0  0  0  0  0  0
   20.9374    5.3851  -69.8980 H   0  0  0  1  0  0  0  0  0  0  0  0
   17.6897    6.0385  -67.5124 H   0  0  0  1  0  0  0  0  0  0  0  0
   18.8555    5.1767  -65.5889 H   0  0  0  1  0  0  0  0  0  0  0  0
  1  3  4  0  0  0  0
  1 14  4  0  0  0  0
  1 21  1  0  0  0  0
  2 14  4  0  0  0  0
  2 15  4  0  0  0  0
  2 30  1  0  0  0  0
  3 16  4  0  0  0  0
  4  5  4  0  0  0  0
  4  7  4  0  0  0  0
  4 17  1  0  0  0  0
  5  9  4  0  0  0  0
  5 31  1  0  0  0  0
  6  7  4  0  0  0  0
  6  8  4  0  0  0  0
  6 32  1  0  0  0  0
  7 33  1  0  0  0  0
  8  9  4  0  0  0  0
  8 20  1  0  0  0  0
  9 34  1  0  0  0  0
 10 11  1  0  0  0  0
 10 21  1  0  0  0  0
 10 24  1  0  0  0  0
 10 35  1  0  0  0  0
 11 12  1  0  0  0  0
 11 36  1  0  0  0  0
 11 37  1  0  0  0  0
 12 23  1  0  0  0  0
 12 38  1  0  0  0  0
 12 39  1  0  0  0  0
 13 23  1  0  0  0  0
 13 25  4  0  0  0  0
 13 29  4  0  0  0  0
 15 16  4  0  0  0  0
 15 18  4  0  0  0  0
 16 17  4  0  0  0  0
 17 19  4  0  0  0  0
 18 19  4  0  0  0  0
 20 22  1  0  0  0  0
 21 40  1  0  0  0  0
 22 41  1  0  0  0  0
 22 42  1  0  0  0  0
 22 43  1  0  0  0  0
 23 24  1  0  0  0  0
 24 44  1  0  0  0  0
 24 45  1  0  0  0  0
 25 26  4  0  0  0  0
 25 46  1  0  0  0  0
 26 27  4  0  0  0  0
 26 47  1  0  0  0  0
 27 28  4  0  0  0  0
 28 29  4  0  0  0  0
 28 48  1  0  0  0  0
 29 49  1  0  0  0  0
M  END
> <ConfClashScore>
0 

> <ConfOneFourInteractionScore>
-0.986948 

> <ConfScore>
0.111993 

> <ConfScorePBest>
0.00203384 

> <ConfTolerance>
1.15008 

> <HETNAM>
     OWQ A 303  OWQ                                                       

> <pdb_OW>
Q_303 -16.5129 3.80749 7.62812 0.15963 1.39178 -0.28144 -3.20151 0 0 0 -1.30514 0 0 0 0 0 0 0 0 -8.31393

$$$$
6yky_lig_1.pdb
 OpenBabel04162415593D

 49 53  0  0  0  0  0  0  0  0999 V2000
   25.1049    1.8137  -65.3759 C   0  0  0  1  0  0  0  0  0  0  0  0
   26.9167    0.5034  -65.9326 C   0  0  0  1  0  0  0  0  0  0  0  0
   25.4179    1.8285  -64.0982 N   0  0  0  1  0  0  0  0  0  0  0  0
   26.7287    1.4700  -61.1390 C   0  0  0  1  0  0  0  0  0  0  0  0
   25.9649    2.6129  -60.9954 C   0  0  0  1  0  0  0  0  0  0  0  0
   26.9627    1.3243  -58.7577 C   0  0  0  1  0  0  0  0  0  0  0  0
   27.2307    0.8262  -60.0188 C   0  0  0  1  0  0  0  0  0  0  0  0
   26.1967    2.4706  -58.6134 C   0  0  0  1  0  0  0  0  0  0  0  0
   25.6963    3.1124  -59.7306 C   0  0  0  1  0  0  0  0  0  0  0  0
   23.5047    2.6841  -67.0497 C   0  0  0  1  0  0  0  0  0  0  0  0
   23.3235    1.3441  -67.7465 C   0  0  0  1  0  0  0  0  0  0  0  0
   23.3926    1.6851  -69.2364 C   0  0  0  1  0  0  0  0  0  0  0  0
   24.6845    3.5216  -70.4603 C   0  0  0  1  0  0  0  0  0  0  0  0
   25.8297    1.1708  -66.2747 N   0  0  0  1  0  0  0  0  0  0  0  0
   27.2965    0.4858  -64.5857 C   0  0  0  1  0  0  0  0  0  0  0  0
   26.4937    1.1853  -63.6613 C   0  0  0  1  0  0  0  0  0  0  0  0
   27.0810    1.0062  -62.4395 N   0  0  0  1  0  0  0  0  0  0  0  0
   28.3159   -0.0766  -63.9004 N   0  0  0  1  0  0  0  0  0  0  0  0
   28.2164    0.2093  -62.6490 N   0  0  0  1  0  0  0  0  0  0  0  0
   26.0205    3.0117  -57.3845 O   0  0  0  1  0  0  0  0  0  0  0  0
   23.9890    2.5050  -65.6920 N   0  0  0  1  0  0  0  0  0  0  0  0
   26.6590    2.3527  -56.2797 C   0  0  0  1  0  0  0  0  0  0  0  0
   24.2302    2.8945  -69.2641 N   0  0  0  1  0  0  0  0  0  0  0  0
   24.5429    3.3795  -67.9121 C   0  0  0  1  0  0  0  0  0  0  0  0
   25.5251    4.6177  -70.4009 C   0  0  0  1  0  0  0  0  0  0  0  0
   26.0228    5.1383  -71.5803 C   0  0  0  1  0  0  0  0  0  0  0  0
   25.7315    4.6381  -72.7850 N   0  0  0  1  0  0  0  0  0  0  0  0
   24.9119    3.5781  -72.8280 C   0  0  0  1  0  0  0  0  0  0  0  0
   24.3717    2.9917  -71.6968 C   0  0  0  1  0  0  0  0  0  0  0  0
   27.4789    0.0013  -66.6491 H   0  0  0  1  0  0  0  0  0  0  0  0
   25.5917    3.0981  -61.8362 H   0  0  0  1  0  0  0  0  0  0  0  0
   27.3359    0.8391  -57.9168 H   0  0  0  1  0  0  0  0  0  0  0  0
   27.8087   -0.0315  -60.1272 H   0  0  0  1  0  0  0  0  0  0  0  0
   25.1182    3.9700  -59.6222 H   0  0  0  1  0  0  0  0  0  0  0  0
   22.5878    3.2354  -67.0321 H   0  0  0  1  0  0  0  0  0  0  0  0
   22.3759    0.9128  -67.4994 H   0  0  0  1  0  0  0  0  0  0  0  0
   24.1059    0.6664  -67.4754 H   0  0  0  1  0  0  0  0  0  0  0  0
   23.8467    0.8909  -69.7913 H   0  0  0  1  0  0  0  0  0  0  0  0
   22.4180    1.8841  -69.6303 H   0  0  0  1  0  0  0  0  0  0  0  0
   23.4754    2.9100  -64.9622 H   0  0  0  1  0  0  0  0  0  0  0  0
   27.6757    2.6785  -56.2086 H   0  0  0  1  0  0  0  0  0  0  0  0
   26.6339    1.2941  -56.4333 H   0  0  0  1  0  0  0  0  0  0  0  0
   26.1430    2.5945  -55.3740 H   0  0  0  1  0  0  0  0  0  0  0  0
   24.4419    4.4430  -67.8524 H   0  0  0  1  0  0  0  0  0  0  0  0
   25.5339    3.0980  -67.6225 H   0  0  0  1  0  0  0  0  0  0  0  0
   25.7780    5.0426  -69.4859 H   0  0  0  1  0  0  0  0  0  0  0  0
   26.6565    5.9612  -71.5278 H   0  0  0  1  0  0  0  0  0  0  0  0
   24.6703    3.1770  -73.7566 H   0  0  0  1  0  0  0  0  0  0  0  0
   23.7421    2.1678  -71.7764 H   0  0  0  1  0  0  0  0  0  0  0  0
  1  3  4  0  0  0  0
  1 14  4  0  0  0  0
  1 21  1  0  0  0  0
  2 14  4  0  0  0  0
  2 15  4  0  0  0  0
  2 30  1  0  0  0  0
  3 16  4  0  0  0  0
  4  5  4  0  0  0  0
  4  7  4  0  0  0  0
  4 17  1  0  0  0  0
  5  9  4  0  0  0  0
  5 31  1  0  0  0  0
  6  7  4  0  0  0  0
  6  8  4  0  0  0  0
  6 32  1  0  0  0  0
  7 33  1  0  0  0  0
  8  9  4  0  0  0  0
  8 20  1  0  0  0  0
  9 34  1  0  0  0  0
 10 11  1  0  0  0  0
 10 21  1  0  0  0  0
 10 24  1  0  0  0  0
 10 35  1  0  0  0  0
 11 12  1  0  0  0  0
 11 36  1  0  0  0  0
 11 37  1  0  0  0  0
 12 23  1  0  0  0  0
 12 38  1  0  0  0  0
 12 39  1  0  0  0  0
 13 23  1  0  0  0  0
 13 25  4  0  0  0  0
 13 29  4  0  0  0  0
 15 16  4  0  0  0  0
 15 18  4  0  0  0  0
 16 17  4  0  0  0  0
 17 19  4  0  0  0  0
 18 19  4  0  0  0  0
 20 22  1  0  0  0  0
 21 40  1  0  0  0  0
 22 41  1  0  0  0  0
 22 42  1  0  0  0  0
 22 43  1  0  0  0  0
 23 24  1  0  0  0  0
 24 44  1  0  0  0  0
 24 45  1  0  0  0  0
 25 26  4  0  0  0  0
 25 46  1  0  0  0  0
 26 27  4  0  0  0  0
 26 47  1  0  0  0  0
 27 28  4  0  0  0  0
 28 29  4  0  0  0  0
 28 48  1  0  0  0  0
 29 49  1  0  0  0  0
M  END
> <ConfClashScore>
0 

> <ConfOneFourInteractionScore>
-0.983503 

> <ConfScore>
0.113706 

> <ConfScorePBest>
0.00202051 

> <ConfTolerance>
0.499035 

> <HETNAM>
     OWQ A 303  OWQ                                                       

> <pdb_OW>
Q_303 -16.5129 3.80749 7.62812 0.15963 1.39178 -0.28144 -3.20151 0 0 0 -1.30514 0 0 0 0 0 0 0 0 -8.31393

$$$$
6yky_lig_1.pdb
 OpenBabel04162415593D

 49 53  0  0  0  0  0  0  0  0999 V2000
   25.1048    1.8136  -65.3760 C   0  0  0  1  0  0  0  0  0  0  0  0
   26.9167    0.5034  -65.9326 C   0  0  0  1  0  0  0  0  0  0  0  0
   25.4179    1.8285  -64.0982 N   0  0  0  1  0  0  0  0  0  0  0  0
   26.8199    1.5227  -61.1375 C   0  0  0  1  0  0  0  0  0  0  0  0
   27.6803    1.2368  -60.0942 C   0  0  0  1  0  0  0  0  0  0  0  0
   25.3546    2.6617  -59.6198 C   0  0  0  1  0  0  0  0  0  0  0  0
   25.6540    2.2338  -60.8995 C   0  0  0  1  0  0  0  0  0  0  0  0
   26.2175    2.3750  -58.5734 C   0  0  0  1  0  0  0  0  0  0  0  0
   27.3799    1.6659  -58.8109 C   0  0  0  1  0  0  0  0  0  0  0  0
   23.5045    2.5896  -67.1048 C   0  0  0  1  0  0  0  0  0  0  0  0
   24.3812    3.5320  -67.9448 C   0  0  0  1  0  0  0  0  0  0  0  0
   23.4130    3.9421  -69.0652 C   0  0  0  1  0  0  0  0  0  0  0  0
   20.9606    3.1975  -69.4445 C   0  0  0  1  0  0  0  0  0  0  0  0
   25.8297    1.1707  -66.2747 N   0  0  0  1  0  0  0  0  0  0  0  0
   27.2964    0.4857  -64.5857 C   0  0  0  1  0  0  0  0  0  0  0  0
   26.4936    1.1852  -63.6614 C   0  0  0  1  0  0  0  0  0  0  0  0
   27.0809    1.0062  -62.4396 N   0  0  0  1  0  0  0  0  0  0  0  0
   28.3159   -0.0766  -63.9004 N   0  0  0  1  0  0  0  0  0  0  0  0
   28.2164    0.2092  -62.6490 N   0  0  0  1  0  0  0  0  0  0  0  0
   25.9216    2.7897  -57.3187 O   0  0  0  1  0  0  0  0  0  0  0  0
   23.9889    2.4968  -65.7385 N   0  0  0  1  0  0  0  0  0  0  0  0
   26.9059    2.5528  -56.3000 C   0  0  0  1  0  0  0  0  0  0  0  0
   22.0730    3.4486  -68.6273 N   0  0  0  1  0  0  0  0  0  0  0  0
   22.1523    3.2778  -67.1647 C   0  0  0  1  0  0  0  0  0  0  0  0
   20.8626    3.5312  -70.7827 C   0  0  0  1  0  0  0  0  0  0  0  0
   19.7018    3.2162  -71.4629 C   0  0  0  1  0  0  0  0  0  0  0  0
   18.6590    2.6045  -70.8930 N   0  0  0  1  0  0  0  0  0  0  0  0
   18.7660    2.2907  -69.5940 C   0  0  0  1  0  0  0  0  0  0  0  0
   19.8925    2.5655  -68.8384 C   0  0  0  1  0  0  0  0  0  0  0  0
   27.4789    0.0013  -66.6492 H   0  0  0  1  0  0  0  0  0  0  0  0
   28.5529    0.6998  -60.2722 H   0  0  0  1  0  0  0  0  0  0  0  0
   24.4820    3.1987  -59.4419 H   0  0  0  1  0  0  0  0  0  0  0  0
   25.0047    2.4454  -61.6839 H   0  0  0  1  0  0  0  0  0  0  0  0
   28.0293    1.4543  -58.0266 H   0  0  0  1  0  0  0  0  0  0  0  0
   23.4619    1.6113  -67.5359 H   0  0  0  1  0  0  0  0  0  0  0  0
   25.2370    3.0228  -68.3362 H   0  0  0  1  0  0  0  0  0  0  0  0
   24.6996    4.3797  -67.3749 H   0  0  0  1  0  0  0  0  0  0  0  0
   23.6963    3.4862  -69.9908 H   0  0  0  1  0  0  0  0  0  0  0  0
   23.4015    5.0059  -69.1799 H   0  0  0  1  0  0  0  0  0  0  0  0
   23.4802    2.9543  -65.0370 H   0  0  0  1  0  0  0  0  0  0  0  0
   26.4945    2.7957  -55.3426 H   0  0  0  1  0  0  0  0  0  0  0  0
   27.7642    3.1643  -56.4847 H   0  0  0  1  0  0  0  0  0  0  0  0
   27.1921    1.5219  -56.3139 H   0  0  0  1  0  0  0  0  0  0  0  0
   21.3658    2.6590  -66.7858 H   0  0  0  1  0  0  0  0  0  0  0  0
   22.1510    4.2141  -66.6468 H   0  0  0  1  0  0  0  0  0  0  0  0
   21.6478    4.0103  -71.2681 H   0  0  0  1  0  0  0  0  0  0  0  0
   19.6361    3.4681  -72.4698 H   0  0  0  1  0  0  0  0  0  0  0  0
   17.9635    1.8176  -69.1317 H   0  0  0  1  0  0  0  0  0  0  0  0
   19.9338    2.3012  -67.8334 H   0  0  0  1  0  0  0  0  0  0  0  0
  1  3  4  0  0  0  0
  1 14  4  0  0  0  0
  1 21  1  0  0  0  0
  2 14  4  0  0  0  0
  2 15  4  0  0  0  0
  2 30  1  0  0  0  0
  3 16  4  0  0  0  0
  4  5  4  0  0  0  0
  4  7  4  0  0  0  0
  4 17  1  0  0  0  0
  5  9  4  0  0  0  0
  5 31  1  0  0  0  0
  6  7  4  0  0  0  0
  6  8  4  0  0  0  0
  6 32  1  0  0  0  0
  7 33  1  0  0  0  0
  8  9  4  0  0  0  0
  8 20  1  0  0  0  0
  9 34  1  0  0  0  0
 10 11  1  0  0  0  0
 10 21  1  0  0  0  0
 10 24  1  0  0  0  0
 10 35  1  0  0  0  0
 11 12  1  0  0  0  0
 11 36  1  0  0  0  0
 11 37  1  0  0  0  0
 12 23  1  0  0  0  0
 12 38  1  0  0  0  0
 12 39  1  0  0  0  0
 13 23  1  0  0  0  0
 13 25  4  0  0  0  0
 13 29  4  0  0  0  0
 15 16  4  0  0  0  0
 15 18  4  0  0  0  0
 16 17  4  0  0  0  0
 17 19  4  0  0  0  0
 18 19  4  0  0  0  0
 20 22  1  0  0  0  0
 21 40  1  0  0  0  0
 22 41  1  0  0  0  0
 22 42  1  0  0  0  0
 22 43  1  0  0  0  0
 23 24  1  0  0  0  0
 24 44  1  0  0  0  0
 24 45  1  0  0  0  0
 25 26  4  0  0  0  0
 25 46  1  0  0  0  0
 26 27  4  0  0  0  0
 26 47  1  0  0  0  0
 27 28  4  0  0  0  0
 28 29  4  0  0  0  0
 28 48  1  0  0  0  0
 29 49  1  0  0  0  0
M  END
> <ConfClashScore>
0 

> <ConfOneFourInteractionScore>
-0.986948 

> <ConfScore>
0.11683 

> <ConfScorePBest>
0.00200718 

> <ConfTolerance>
0.560577 

> <HETNAM>
     OWQ A 303  OWQ                                                       

> <pdb_OW>
Q_303 -16.5129 3.80749 7.62812 0.15963 1.39178 -0.28144 -3.20151 0 0 0 -1.30514 0 0 0 0 0 0 0 0 -8.31393

$$$$
6yky_lig_1.pdb
 OpenBabel04162415593D

 49 53  0  0  0  0  0  0  0  0999 V2000
   25.1048    1.8137  -65.3760 C   0  0  0  1  0  0  0  0  0  0  0  0
   26.9167    0.5034  -65.9326 C   0  0  0  1  0  0  0  0  0  0  0  0
   25.4179    1.8285  -64.0983 N   0  0  0  1  0  0  0  0  0  0  0  0
   26.7866    1.5432  -61.1530 C   0  0  0  1  0  0  0  0  0  0  0  0
   25.4777    1.8065  -60.7960 C   0  0  0  1  0  0  0  0  0  0  0  0
   27.5434    2.4884  -59.0839 C   0  0  0  1  0  0  0  0  0  0  0  0
   27.8213    1.8871  -60.2969 C   0  0  0  1  0  0  0  0  0  0  0  0
   26.2306    2.7526  -58.7257 C   0  0  0  1  0  0  0  0  0  0  0  0
   25.1992    2.4096  -59.5793 C   0  0  0  1  0  0  0  0  0  0  0  0
   23.1530    3.2492  -64.8992 C   0  0  0  1  0  0  0  0  0  0  0  0
   21.9977    3.9132  -65.6810 C   0  0  0  1  0  0  0  0  0  0  0  0
   21.8206    5.3068  -65.1331 C   0  0  0  1  0  0  0  0  0  0  0  0
   23.4780    6.6701  -63.7243 C   0  0  0  1  0  0  0  0  0  0  0  0
   25.8297    1.1707  -66.2748 N   0  0  0  1  0  0  0  0  0  0  0  0
   27.2965    0.4857  -64.5857 C   0  0  0  1  0  0  0  0  0  0  0  0
   26.4937    1.1853  -63.6614 C   0  0  0  1  0  0  0  0  0  0  0  0
   27.0810    1.0063  -62.4395 N   0  0  0  1  0  0  0  0  0  0  0  0
   28.3159   -0.0766  -63.9004 N   0  0  0  1  0  0  0  0  0  0  0  0
   28.2164    0.2092  -62.6490 N   0  0  0  1  0  0  0  0  0  0  0  0
   25.9685    3.4316  -57.5837 O   0  0  0  1  0  0  0  0  0  0  0  0
   24.0076    2.4764  -65.7837 N   0  0  0  1  0  0  0  0  0  0  0  0
   27.0331    3.5306  -56.6175 C   0  0  0  1  0  0  0  0  0  0  0  0
   23.1378    5.4899  -64.3479 N   0  0  0  1  0  0  0  0  0  0  0  0
   23.8951    4.4402  -64.3254 C   0  0  0  1  0  0  0  0  0  0  0  0
   23.1477    6.8880  -62.3996 C   0  0  0  1  0  0  0  0  0  0  0  0
   23.5116    8.0846  -61.8119 C   0  0  0  1  0  0  0  0  0  0  0  0
   24.1682    9.0518  -62.4599 N   0  0  0  1  0  0  0  0  0  0  0  0
   24.4783    8.8289  -63.7450 C   0  0  0  1  0  0  0  0  0  0  0  0
   24.1559    7.6589  -64.4103 C   0  0  0  1  0  0  0  0  0  0  0  0
   27.4788    0.0012  -66.6492 H   0  0  0  1  0  0  0  0  0  0  0  0
   24.7017    1.5521  -61.4400 H   0  0  0  1  0  0  0  0  0  0  0  0
   28.3193    2.7428  -58.4398 H   0  0  0  1  0  0  0  0  0  0  0  0
   28.8065    1.6926  -60.5673 H   0  0  0  1  0  0  0  0  0  0  0  0
   24.2139    2.6041  -59.3089 H   0  0  0  1  0  0  0  0  0  0  0  0
   22.7789    2.6167  -64.1215 H   0  0  0  1  0  0  0  0  0  0  0  0
   22.2401    3.9583  -66.7222 H   0  0  0  1  0  0  0  0  0  0  0  0
   21.0968    3.3515  -65.5481 H   0  0  0  1  0  0  0  0  0  0  0  0
   20.9684    5.3694  -64.4892 H   0  0  0  1  0  0  0  0  0  0  0  0
   21.7289    6.0279  -65.9182 H   0  0  0  1  0  0  0  0  0  0  0  0
   23.7708    2.4354  -66.7339 H   0  0  0  1  0  0  0  0  0  0  0  0
   27.3688    2.5494  -56.3540 H   0  0  0  1  0  0  0  0  0  0  0  0
   26.6748    4.0316  -55.7424 H   0  0  0  1  0  0  0  0  0  0  0  0
   27.8461    4.0845  -57.0385 H   0  0  0  1  0  0  0  0  0  0  0  0
   24.7727    4.6246  -64.9090 H   0  0  0  1  0  0  0  0  0  0  0  0
   24.1760    4.2284  -63.3149 H   0  0  0  1  0  0  0  0  0  0  0  0
   22.6348    6.1650  -61.8556 H   0  0  0  1  0  0  0  0  0  0  0  0
   23.2620    8.2405  -60.8145 H   0  0  0  1  0  0  0  0  0  0  0  0
   24.9858    9.5712  -64.2673 H   0  0  0  1  0  0  0  0  0  0  0  0
   24.4190    7.5268  -65.4077 H   0  0  0  1  0  0  0  0  0  0  0  0
  1  3  4  0  0  0  0
  1 14  4  0  0  0  0
  1 21  1  0  0  0  0
  2 14  4  0  0  0  0
  2 15  4  0  0  0  0
  2 30  1  0  0  0  0
  3 16  4  0  0  0  0
  4  5  4  0  0  0  0
  4  7  4  0  0  0  0
  4 17  1  0  0  0  0
  5  9  4  0  0  0  0
  5 31  1  0  0  0  0
  6  7  4  0  0  0  0
  6  8  4  0  0  0  0
  6 32  1  0  0  0  0
  7 33  1  0  0  0  0
  8  9  4  0  0  0  0
  8 20  1  0  0  0  0
  9 34  1  0  0  0  0
 10 11  1  0  0  0  0
 10 21  1  0  0  0  0
 10 24  1  0  0  0  0
 10 35  1  0  0  0  0
 11 12  1  0  0  0  0
 11 36  1  0  0  0  0
 11 37  1  0  0  0  0
 12 23  1  0  0  0  0
 12 38  1  0  0  0  0
 12 39  1  0  0  0  0
 13 23  1  0  0  0  0
 13 25  4  0  0  0  0
 13 29  4  0  0  0  0
 15 16  4  0  0  0  0
 15 18  4  0  0  0  0
 16 17  4  0  0  0  0
 17 19  4  0  0  0  0
 18 19  4  0  0  0  0
 20 22  1  0  0  0  0
 21 40  1  0  0  0  0
 22 41  1  0  0  0  0
 22 42  1  0  0  0  0
 22 43  1  0  0  0  0
 23 24  1  0  0  0  0
 24 44  1  0  0  0  0
 24 45  1  0  0  0  0
 25 26  4  0  0  0  0
 25 46  1  0  0  0  0
 26 27  4  0  0  0  0
 26 47  1  0  0  0  0
 27 28  4  0  0  0  0
 28 29  4  0  0  0  0
 28 48  1  0  0  0  0
 29 49  1  0  0  0  0
M  END
> <ConfClashScore>
0 

> <ConfOneFourInteractionScore>
-0.984874 

> <ConfScore>
0.117289 

> <ConfScorePBest>
0.00199385 

> <ConfTolerance>
0.693703 

> <HETNAM>
     OWQ A 303  OWQ                                                       

> <pdb_OW>
Q_303 -16.5129 3.80749 7.62812 0.15963 1.39178 -0.28144 -3.20151 0 0 0 -1.30514 0 0 0 0 0 0 0 0 -8.31393

$$$$
6yky_lig_1.pdb
 OpenBabel04162415593D

 49 53  0  0  0  0  0  0  0  0999 V2000
   25.1048    1.8135  -65.3759 C   0  0  0  1  0  0  0  0  0  0  0  0
   26.9167    0.5034  -65.9326 C   0  0  0  1  0  0  0  0  0  0  0  0
   25.4178    1.8283  -64.0982 N   0  0  0  1  0  0  0  0  0  0  0  0
   26.7865    1.5430  -61.1528 C   0  0  0  1  0  0  0  0  0  0  0  0
   26.2404    2.8074  -61.0391 C   0  0  0  1  0  0  0  0  0  0  0  0
   26.9300    1.3877  -58.7648 C   0  0  0  1  0  0  0  0  0  0  0  0
   27.1342    0.8330  -60.0142 C   0  0  0  1  0  0  0  0  0  0  0  0
   26.3823    2.6560  -58.6506 C   0  0  0  1  0  0  0  0  0  0  0  0
   26.0355    3.3637  -59.7861 C   0  0  0  1  0  0  0  0  0  0  0  0
   23.1301    3.2153  -64.8926 C   0  0  0  1  0  0  0  0  0  0  0  0
   21.8378    3.6403  -65.6080 C   0  0  0  1  0  0  0  0  0  0  0  0
   21.3892    4.8374  -64.7557 C   0  0  0  1  0  0  0  0  0  0  0  0
   22.5101    5.8328  -62.6536 C   0  0  0  1  0  0  0  0  0  0  0  0
   25.8297    1.1707  -66.2748 N   0  0  0  1  0  0  0  0  0  0  0  0
   27.2965    0.4857  -64.5857 C   0  0  0  1  0  0  0  0  0  0  0  0
   26.4937    1.1852  -63.6613 C   0  0  0  1  0  0  0  0  0  0  0  0
   27.0809    1.0061  -62.4394 N   0  0  0  1  0  0  0  0  0  0  0  0
   28.3159   -0.0766  -63.9004 N   0  0  0  1  0  0  0  0  0  0  0  0
   28.2164    0.2092  -62.6490 N   0  0  0  1  0  0  0  0  0  0  0  0
   26.2344    3.0962  -57.3785 O   0  0  0  1  0  0  0  0  0  0  0  0
   24.0074    2.4762  -65.7837 N   0  0  0  1  0  0  0  0  0  0  0  0
   25.6836    4.4103  -57.1988 C   0  0  0  1  0  0  0  0  0  0  0  0
   22.5464    5.1386  -63.8605 N   0  0  0  1  0  0  0  0  0  0  0  0
   23.7349    4.5543  -64.5093 C   0  0  0  1  0  0  0  0  0  0  0  0
   22.5963    7.2063  -62.5207 C   0  0  0  1  0  0  0  0  0  0  0  0
   22.5418    7.7563  -61.2541 C   0  0  0  1  0  0  0  0  0  0  0  0
   22.4124    7.0273  -60.1414 N   0  0  0  1  0  0  0  0  0  0  0  0
   22.3345    5.6966  -60.2846 C   0  0  0  1  0  0  0  0  0  0  0  0
   22.3769    5.0631  -61.5144 C   0  0  0  1  0  0  0  0  0  0  0  0
   27.4790    0.0014  -66.6491 H   0  0  0  1  0  0  0  0  0  0  0  0
   25.9832    3.3416  -61.8935 H   0  0  0  1  0  0  0  0  0  0  0  0
   27.1872    0.8535  -57.9104 H   0  0  0  1  0  0  0  0  0  0  0  0
   27.5489   -0.1169  -60.1000 H   0  0  0  1  0  0  0  0  0  0  0  0
   25.6208    4.3136  -59.7004 H   0  0  0  1  0  0  0  0  0  0  0  0
   22.9183    2.6227  -64.0273 H   0  0  0  1  0  0  0  0  0  0  0  0
   21.1089    2.8570  -65.5943 H   0  0  0  1  0  0  0  0  0  0  0  0
   22.0298    3.9319  -66.6194 H   0  0  0  1  0  0  0  0  0  0  0  0
   20.5248    4.5836  -64.1785 H   0  0  0  1  0  0  0  0  0  0  0  0
   21.1683    5.6791  -65.3785 H   0  0  0  1  0  0  0  0  0  0  0  0
   23.7869    2.4594  -66.7384 H   0  0  0  1  0  0  0  0  0  0  0  0
   24.6207    4.3411  -57.0961 H   0  0  0  1  0  0  0  0  0  0  0  0
   25.9209    5.0156  -58.0487 H   0  0  0  1  0  0  0  0  0  0  0  0
   26.0988    4.8534  -56.3177 H   0  0  0  1  0  0  0  0  0  0  0  0
   24.0477    5.1171  -65.3639 H   0  0  0  1  0  0  0  0  0  0  0  0
   24.5557    4.4487  -63.8311 H   0  0  0  1  0  0  0  0  0  0  0  0
   22.7001    7.8141  -63.3582 H   0  0  0  1  0  0  0  0  0  0  0  0
   22.6046    8.7902  -61.1620 H   0  0  0  1  0  0  0  0  0  0  0  0
   22.2373    5.1119  -59.4301 H   0  0  0  1  0  0  0  0  0  0  0  0
   22.3098    4.0274  -61.5796 H   0  0  0  1  0  0  0  0  0  0  0  0
  1  3  4  0  0  0  0
  1 14  4  0  0  0  0
  1 21  1  0  0  0  0
  2 14  4  0  0  0  0
  2 15  4  0  0  0  0
  2 30  1  0  0  0  0
  3 16  4  0  0  0  0
  4  5  4  0  0  0  0
  4  7  4  0  0  0  0
  4 17  1  0  0  0  0
  5  9  4  0  0  0  0
  5 31  1  0  0  0  0
  6  7  4  0  0  0  0
  6  8  4  0  0  0  0
  6 32  1  0  0  0  0
  7 33  1  0  0  0  0
  8  9  4  0  0  0  0
  8 20  1  0  0  0  0
  9 34  1  0  0  0  0
 10 11  1  0  0  0  0
 10 21  1  0  0  0  0
 10 24  1  0  0  0  0
 10 35  1  0  0  0  0
 11 12  1  0  0  0  0
 11 36  1  0  0  0  0
 11 37  1  0  0  0  0
 12 23  1  0  0  0  0
 12 38  1  0  0  0  0
 12 39  1  0  0  0  0
 13 23  1  0  0  0  0
 13 25  4  0  0  0  0
 13 29  4  0  0  0  0
 15 16  4  0  0  0  0
 15 18  4  0  0  0  0
 16 17  4  0  0  0  0
 17 19  4  0  0  0  0
 18 19  4  0  0  0  0
 20 22  1  0  0  0  0
 21 40  1  0  0  0  0
 22 41  1  0  0  0  0
 22 42  1  0  0  0  0
 22 43  1  0  0  0  0
 23 24  1  0  0  0  0
 24 44  1  0  0  0  0
 24 45  1  0  0  0  0
 25 26  4  0  0  0  0
 25 46  1  0  0  0  0
 26 27  4  0  0  0  0
 26 47  1  0  0  0  0
 27 28  4  0  0  0  0
 28 29  4  0  0  0  0
 28 48  1  0  0  0  0
 29 49  1  0  0  0  0
M  END
> <ConfClashScore>
0 

> <ConfOneFourInteractionScore>
-0.986948 

> <ConfScore>
0.12243 

> <ConfScorePBest>
0.00198052 

> <ConfTolerance>
0.499018 

> <HETNAM>
     OWQ A 303  OWQ                                                       

> <pdb_OW>
Q_303 -16.5129 3.80749 7.62812 0.15963 1.39178 -0.28144 -3.20151 0 0 0 -1.30514 0 0 0 0 0 0 0 0 -8.31393

$$$$
6yky_lig_1.pdb
 OpenBabel04162415593D

 49 53  0  0  0  0  0  0  0  0999 V2000
   25.1049    1.8138  -65.3760 C   0  0  0  1  0  0  0  0  0  0  0  0
   26.9167    0.5034  -65.9326 C   0  0  0  1  0  0  0  0  0  0  0  0
   25.4179    1.8286  -64.0983 N   0  0  0  1  0  0  0  0  0  0  0  0
   26.6856    1.4951  -61.1608 C   0  0  0  1  0  0  0  0  0  0  0  0
   27.6202    2.1995  -60.4257 C   0  0  0  1  0  0  0  0  0  0  0  0
   25.1427    1.6279  -59.3308 C   0  0  0  1  0  0  0  0  0  0  0  0
   25.4460    1.2065  -60.6118 C   0  0  0  1  0  0  0  0  0  0  0  0
   26.0800    2.3345  -58.5934 C   0  0  0  1  0  0  0  0  0  0  0  0
   27.3159    2.6221  -59.1411 C   0  0  0  1  0  0  0  0  0  0  0  0
   23.6306    2.5736  -67.2486 C   0  0  0  1  0  0  0  0  0  0  0  0
   24.5635    3.5383  -68.0318 C   0  0  0  1  0  0  0  0  0  0  0  0
   23.7395    4.1436  -69.1877 C   0  0  0  1  0  0  0  0  0  0  0  0
   21.1951    4.0980  -69.5815 C   0  0  0  1  0  0  0  0  0  0  0  0
   25.8298    1.1708  -66.2748 N   0  0  0  1  0  0  0  0  0  0  0  0
   27.2965    0.4857  -64.5857 C   0  0  0  1  0  0  0  0  0  0  0  0
   26.4937    1.1852  -63.6614 C   0  0  0  1  0  0  0  0  0  0  0  0
   27.0810    1.0062  -62.4395 N   0  0  0  1  0  0  0  0  0  0  0  0
   28.3159   -0.0766  -63.9004 N   0  0  0  1  0  0  0  0  0  0  0  0
   28.2164    0.2093  -62.6490 N   0  0  0  1  0  0  0  0  0  0  0  0
   25.8993    2.7929  -57.3320 O   0  0  0  1  0  0  0  0  0  0  0  0
   24.0272    2.4527  -65.8449 N   0  0  0  1  0  0  0  0  0  0  0  0
   24.6484    2.4878  -56.6958 C   0  0  0  1  0  0  0  0  0  0  0  0
   22.3358    3.8672  -68.7708 N   0  0  0  1  0  0  0  0  0  0  0  0
   22.2928    3.3223  -67.4039 C   0  0  0  1  0  0  0  0  0  0  0  0
   20.0329    4.6674  -69.0948 C   0  0  0  1  0  0  0  0  0  0  0  0
   19.0090    4.9475  -69.9794 C   0  0  0  1  0  0  0  0  0  0  0  0
   19.0796    4.6932  -71.2896 N   0  0  0  1  0  0  0  0  0  0  0  0
   20.2104    4.1371  -71.7471 C   0  0  0  1  0  0  0  0  0  0  0  0
   21.2858    3.8274  -70.9328 C   0  0  0  1  0  0  0  0  0  0  0  0
   27.4789    0.0013  -66.6492 H   0  0  0  1  0  0  0  0  0  0  0  0
   28.5518    2.4125  -60.8362 H   0  0  0  1  0  0  0  0  0  0  0  0
   24.2113    1.4150  -58.9203 H   0  0  0  1  0  0  0  0  0  0  0  0
   24.7442    0.6730  -61.1635 H   0  0  0  1  0  0  0  0  0  0  0  0
   28.0178    3.1556  -58.5893 H   0  0  0  1  0  0  0  0  0  0  0  0
   23.5972    1.6020  -67.6954 H   0  0  0  1  0  0  0  0  0  0  0  0
   25.4005    2.9992  -68.4234 H   0  0  0  1  0  0  0  0  0  0  0  0
   24.9108    4.3163  -67.3845 H   0  0  0  1  0  0  0  0  0  0  0  0
   23.9152    5.1954  -69.2768 H   0  0  0  1  0  0  0  0  0  0  0  0
   23.9676    3.6636  -70.1163 H   0  0  0  1  0  0  0  0  0  0  0  0
   23.4458    2.8821  -65.1831 H   0  0  0  1  0  0  0  0  0  0  0  0
   24.7122    2.7194  -55.6531 H   0  0  0  1  0  0  0  0  0  0  0  0
   24.4313    1.4471  -56.8172 H   0  0  0  1  0  0  0  0  0  0  0  0
   23.8698    3.0696  -57.1433 H   0  0  0  1  0  0  0  0  0  0  0  0
   22.2141    4.1104  -66.6844 H   0  0  0  1  0  0  0  0  0  0  0  0
   21.4675    2.6507  -67.2898 H   0  0  0  1  0  0  0  0  0  0  0  0
   19.9314    4.8810  -68.0820 H   0  0  0  1  0  0  0  0  0  0  0  0
   18.1388    5.3780  -69.6065 H   0  0  0  1  0  0  0  0  0  0  0  0
   20.2830    3.9283  -72.7633 H   0  0  0  1  0  0  0  0  0  0  0  0
   22.1458    3.3992  -71.3310 H   0  0  0  1  0  0  0  0  0  0  0  0
  1  3  4  0  0  0  0
  1 14  4  0  0  0  0
  1 21  1  0  0  0  0
  2 14  4  0  0  0  0
  2 15  4  0  0  0  0
  2 30  1  0  0  0  0
  3 16  4  0  0  0  0
  4  5  4  0  0  0  0
  4  7  4  0  0  0  0
  4 17  1  0  0  0  0
  5  9  4  0  0  0  0
  5 31  1  0  0  0  0
  6  7  4  0  0  0  0
  6  8  4  0  0  0  0
  6 32  1  0  0  0  0
  7 33  1  0  0  0  0
  8  9  4  0  0  0  0
  8 20  1  0  0  0  0
  9 34  1  0  0  0  0
 10 11  1  0  0  0  0
 10 21  1  0  0  0  0
 10 24  1  0  0  0  0
 10 35  1  0  0  0  0
 11 12  1  0  0  0  0
 11 36  1  0  0  0  0
 11 37  1  0  0  0  0
 12 23  1  0  0  0  0
 12 38  1  0  0  0  0
 12 39  1  0  0  0  0
 13 23  1  0  0  0  0
 13 25  4  0  0  0  0
 13 29  4  0  0  0  0
 15 16  4  0  0  0  0
 15 18  4  0  0  0  0
 16 17  4  0  0  0  0
 17 19  4  0  0  0  0
 18 19  4  0  0  0  0
 20 22  1  0  0  0  0
 21 40  1  0  0  0  0
 22 41  1  0  0  0  0
 22 42  1  0  0  0  0
 22 43  1  0  0  0  0
 23 24  1  0  0  0  0
 24 44  1  0  0  0  0
 24 45  1  0  0  0  0
 25 26  4  0  0  0  0
 25 46  1  0  0  0  0
 26 27  4  0  0  0  0
 26 47  1  0  0  0  0
 27 28  4  0  0  0  0
 28 29  4  0  0  0  0
 28 48  1  0  0  0  0
 29 49  1  0  0  0  0
M  END
> <ConfClashScore>
0 

> <ConfOneFourInteractionScore>
-0.986948 

> <ConfScore>
0.122893 

> <ConfScorePBest>
0.00196719 

> <ConfTolerance>
0.619741 

> <HETNAM>
     OWQ A 303  OWQ                                                       

> <pdb_OW>
Q_303 -16.5129 3.80749 7.62812 0.15963 1.39178 -0.28144 -3.20151 0 0 0 -1.30514 0 0 0 0 0 0 0 0 -8.31393

$$$$
6yky_lig_1.pdb
 OpenBabel04162415593D

 49 53  0  0  0  0  0  0  0  0999 V2000
   25.1047    1.8134  -65.3759 C   0  0  0  1  0  0  0  0  0  0  0  0
   26.9167    0.5034  -65.9326 C   0  0  0  1  0  0  0  0  0  0  0  0
   25.4177    1.8282  -64.0982 N   0  0  0  1  0  0  0  0  0  0  0  0
   26.7669    1.4472  -61.1215 C   0  0  0  1  0  0  0  0  0  0  0  0
   26.3354    2.7430  -60.9098 C   0  0  0  1  0  0  0  0  0  0  0  0
   26.7629    1.0572  -58.7561 C   0  0  0  1  0  0  0  0  0  0  0  0
   26.9835    0.6038  -60.0429 C   0  0  0  1  0  0  0  0  0  0  0  0
   26.3301    2.3569  -58.5436 C   0  0  0  1  0  0  0  0  0  0  0  0
   26.1142    3.1976  -59.6192 C   0  0  0  1  0  0  0  0  0  0  0  0
   23.5196    2.5881  -67.1615 C   0  0  0  1  0  0  0  0  0  0  0  0
   23.2025    1.1973  -67.7774 C   0  0  0  1  0  0  0  0  0  0  0  0
   23.3906    1.3125  -69.3046 C   0  0  0  1  0  0  0  0  0  0  0  0
   24.5021    3.1750  -70.6627 C   0  0  0  1  0  0  0  0  0  0  0  0
   25.8296    1.1707  -66.2747 N   0  0  0  1  0  0  0  0  0  0  0  0
   27.2965    0.4857  -64.5857 C   0  0  0  1  0  0  0  0  0  0  0  0
   26.4936    1.1851  -63.6613 C   0  0  0  1  0  0  0  0  0  0  0  0
   27.0809    1.0060  -62.4394 N   0  0  0  1  0  0  0  0  0  0  0  0
   28.3159   -0.0766  -63.9004 N   0  0  0  1  0  0  0  0  0  0  0  0
   28.2164    0.2092  -62.6490 N   0  0  0  1  0  0  0  0  0  0  0  0
   26.0272    2.7749  -57.2917 O   0  0  0  1  0  0  0  0  0  0  0  0
   24.0073    2.4760  -65.7837 N   0  0  0  1  0  0  0  0  0  0  0  0
   25.6263    4.1452  -57.1364 C   0  0  0  1  0  0  0  0  0  0  0  0
   24.1965    2.5584  -69.4435 N   0  0  0  1  0  0  0  0  0  0  0  0
   24.6279    3.0531  -68.1259 C   0  0  0  1  0  0  0  0  0  0  0  0
   23.4956    3.6328  -71.4928 C   0  0  0  1  0  0  0  0  0  0  0  0
   23.8418    4.2390  -72.6853 C   0  0  0  1  0  0  0  0  0  0  0  0
   25.1062    4.4059  -73.0850 N   0  0  0  1  0  0  0  0  0  0  0  0
   26.0718    3.9535  -72.2723 C   0  0  0  1  0  0  0  0  0  0  0  0
   25.8149    3.3382  -71.0597 C   0  0  0  1  0  0  0  0  0  0  0  0
   27.4789    0.0014  -66.6491 H   0  0  0  1  0  0  0  0  0  0  0  0
   26.1767    3.3769  -61.7189 H   0  0  0  1  0  0  0  0  0  0  0  0
   26.9215    0.4232  -57.9470 H   0  0  0  1  0  0  0  0  0  0  0  0
   27.3121   -0.3701  -60.2020 H   0  0  0  1  0  0  0  0  0  0  0  0
   25.7856    4.1714  -59.4602 H   0  0  0  1  0  0  0  0  0  0  0  0
   22.6703    3.2383  -67.1879 H   0  0  0  1  0  0  0  0  0  0  0  0
   23.8710    0.4615  -67.3815 H   0  0  0  1  0  0  0  0  0  0  0  0
   22.1935    0.9203  -67.5535 H   0  0  0  1  0  0  0  0  0  0  0  0
   23.9183    0.4666  -69.6928 H   0  0  0  1  0  0  0  0  0  0  0  0
   22.4483    1.4053  -69.8031 H   0  0  0  1  0  0  0  0  0  0  0  0
   23.4820    2.9286  -65.0912 H   0  0  0  1  0  0  0  0  0  0  0  0
   25.2955    4.3089  -56.1321 H   0  0  0  1  0  0  0  0  0  0  0  0
   24.8277    4.3619  -57.8146 H   0  0  0  1  0  0  0  0  0  0  0  0
   26.4573    4.7856  -57.3466 H   0  0  0  1  0  0  0  0  0  0  0  0
   24.7044    4.1203  -68.1285 H   0  0  0  1  0  0  0  0  0  0  0  0
   25.5709    2.6281  -67.8520 H   0  0  0  1  0  0  0  0  0  0  0  0
   22.4968    3.5228  -71.2247 H   0  0  0  1  0  0  0  0  0  0  0  0
   23.0795    4.5830  -73.3035 H   0  0  0  1  0  0  0  0  0  0  0  0
   27.0620    4.0707  -72.5677 H   0  0  0  1  0  0  0  0  0  0  0  0
   26.5956    3.0049  -70.4587 H   0  0  0  1  0  0  0  0  0  0  0  0
  1  3  4  0  0  0  0
  1 14  4  0  0  0  0
  1 21  1  0  0  0  0
  2 14  4  0  0  0  0
  2 15  4  0  0  0  0
  2 30  1  0  0  0  0
  3 16  4  0  0  0  0
  4  5  4  0  0  0  0
  4  7  4  0  0  0  0
  4 17  1  0  0  0  0
  5  9  4  0  0  0  0
  5 31  1  0  0  0  0
  6  7  4  0  0  0  0
  6  8  4  0  0  0  0
  6 32  1  0  0  0  0
  7 33  1  0  0  0  0
  8  9  4  0  0  0  0
  8 20  1  0  0  0  0
  9 34  1  0  0  0  0
 10 11  1  0  0  0  0
 10 21  1  0  0  0  0
 10 24  1  0  0  0  0
 10 35  1  0  0  0  0
 11 12  1  0  0  0  0
 11 36  1  0  0  0  0
 11 37  1  0  0  0  0
 12 23  1  0  0  0  0
 12 38  1  0  0  0  0
 12 39  1  0  0  0  0
 13 23  1  0  0  0  0
 13 25  4  0  0  0  0
 13 29  4  0  0  0  0
 15 16  4  0  0  0  0
 15 18  4  0  0  0  0
 16 17  4  0  0  0  0
 17 19  4  0  0  0  0
 18 19  4  0  0  0  0
 20 22  1  0  0  0  0
 21 40  1  0  0  0  0
 22 41  1  0  0  0  0
 22 42  1  0  0  0  0
 22 43  1  0  0  0  0
 23 24  1  0  0  0  0
 24 44  1  0  0  0  0
 24 45  1  0  0  0  0
 25 26  4  0  0  0  0
 25 46  1  0  0  0  0
 26 27  4  0  0  0  0
 26 47  1  0  0  0  0
 27 28  4  0  0  0  0
 28 29  4  0  0  0  0
 28 48  1  0  0  0  0
 29 49  1  0  0  0  0
M  END
> <ConfClashScore>
0 

> <ConfOneFourInteractionScore>
-0.983503 

> <ConfScore>
0.125161 

> <ConfScorePBest>
0.00195387 

> <ConfTolerance>
0.448259 

> <HETNAM>
     OWQ A 303  OWQ                                                       

> <pdb_OW>
Q_303 -16.5129 3.80749 7.62812 0.15963 1.39178 -0.28144 -3.20151 0 0 0 -1.30514 0 0 0 0 0 0 0 0 -8.31393

$$$$
6yky_lig_1.pdb
 OpenBabel04162415593D

 49 53  0  0  0  0  0  0  0  0999 V2000
   25.1047    1.8134  -65.3760 C   0  0  0  1  0  0  0  0  0  0  0  0
   26.9167    0.5034  -65.9326 C   0  0  0  1  0  0  0  0  0  0  0  0
   25.4177    1.8282  -64.0982 N   0  0  0  1  0  0  0  0  0  0  0  0
   26.7669    1.4472  -61.1215 C   0  0  0  1  0  0  0  0  0  0  0  0
   27.7470    1.4694  -60.1473 C   0  0  0  1  0  0  0  0  0  0  0  0
   25.1335    2.1094  -59.4964 C   0  0  0  1  0  0  0  0  0  0  0  0
   25.4577    1.7649  -60.7951 C   0  0  0  1  0  0  0  0  0  0  0  0
   26.1164    2.1318  -58.5192 C   0  0  0  1  0  0  0  0  0  0  0  0
   27.4217    1.8149  -58.8449 C   0  0  0  1  0  0  0  0  0  0  0  0
   23.5994    2.5980  -67.1754 C   0  0  0  1  0  0  0  0  0  0  0  0
   23.2694    1.2153  -67.7803 C   0  0  0  1  0  0  0  0  0  0  0  0
   23.8327    1.1854  -69.1787 C   0  0  0  1  0  0  0  0  0  0  0  0
   25.6142    2.7354  -70.2031 C   0  0  0  1  0  0  0  0  0  0  0  0
   25.8295    1.1706  -66.2747 N   0  0  0  1  0  0  0  0  0  0  0  0
   27.2964    0.4857  -64.5857 C   0  0  0  1  0  0  0  0  0  0  0  0
   26.4936    1.1851  -63.6614 C   0  0  0  1  0  0  0  0  0  0  0  0
   27.0808    1.0060  -62.4395 N   0  0  0  1  0  0  0  0  0  0  0  0
   28.3159   -0.0766  -63.9004 N   0  0  0  1  0  0  0  0  0  0  0  0
   28.2164    0.2092  -62.6490 N   0  0  0  1  0  0  0  0  0  0  0  0
   25.6822    2.4763  -57.2913 O   0  0  0  1  0  0  0  0  0  0  0  0
   24.0032    2.4785  -65.7853 N   0  0  0  1  0  0  0  0  0  0  0  0
   26.7201    2.6297  -56.2956 C   0  0  0  1  0  0  0  0  0  0  0  0
   24.7877    2.3986  -69.1435 N   0  0  0  1  0  0  0  0  0  0  0  0
   24.7503    3.0741  -68.0398 C   0  0  0  1  0  0  0  0  0  0  0  0
   26.5864    3.6963  -69.9951 C   0  0  0  1  0  0  0  0  0  0  0  0
   27.4190    4.0373  -71.0440 C   0  0  0  1  0  0  0  0  0  0  0  0
   27.3334    3.4870  -72.2590 N   0  0  0  1  0  0  0  0  0  0  0  0
   26.3835    2.5600  -72.4478 C   0  0  0  1  0  0  0  0  0  0  0  0
   25.5105    2.1564  -71.4527 C   0  0  0  1  0  0  0  0  0  0  0  0
   27.4790    0.0014  -66.6492 H   0  0  0  1  0  0  0  0  0  0  0  0
   28.7284    1.2272  -60.3915 H   0  0  0  1  0  0  0  0  0  0  0  0
   24.1519    2.3517  -59.2522 H   0  0  0  1  0  0  0  0  0  0  0  0
   24.7194    1.7442  -61.5274 H   0  0  0  1  0  0  0  0  0  0  0  0
   28.1600    1.8356  -58.1127 H   0  0  0  1  0  0  0  0  0  0  0  0
   22.7625    3.2606  -67.2484 H   0  0  0  1  0  0  0  0  0  0  0  0
   22.2092    1.0738  -67.8107 H   0  0  0  1  0  0  0  0  0  0  0  0
   23.7161    0.4426  -67.1901 H   0  0  0  1  0  0  0  0  0  0  0  0
   24.3623    0.2752  -69.3685 H   0  0  0  1  0  0  0  0  0  0  0  0
   23.0651    1.3119  -69.9133 H   0  0  0  1  0  0  0  0  0  0  0  0
   23.4431    2.9059  -65.1041 H   0  0  0  1  0  0  0  0  0  0  0  0
   26.2748    2.7286  -55.3278 H   0  0  0  1  0  0  0  0  0  0  0  0
   27.2967    3.5044  -56.5137 H   0  0  0  1  0  0  0  0  0  0  0  0
   27.3568    1.7698  -56.3089 H   0  0  0  1  0  0  0  0  0  0  0  0
   24.6181    4.1118  -68.2646 H   0  0  0  1  0  0  0  0  0  0  0  0
   25.6701    2.9377  -67.5104 H   0  0  0  1  0  0  0  0  0  0  0  0
   26.6891    4.1539  -69.0669 H   0  0  0  1  0  0  0  0  0  0  0  0
   28.1496    4.7590  -70.8796 H   0  0  0  1  0  0  0  0  0  0  0  0
   26.2987    2.1229  -73.3876 H   0  0  0  1  0  0  0  0  0  0  0  0
   24.7898    1.4308  -71.6423 H   0  0  0  1  0  0  0  0  0  0  0  0
  1  3  4  0  0  0  0
  1 14  4  0  0  0  0
  1 21  1  0  0  0  0
  2 14  4  0  0  0  0
  2 15  4  0  0  0  0
  2 30  1  0  0  0  0
  3 16  4  0  0  0  0
  4  5  4  0  0  0  0
  4  7  4  0  0  0  0
  4 17  1  0  0  0  0
  5  9  4  0  0  0  0
  5 31  1  0  0  0  0
  6  7  4  0  0  0  0
  6  8  4  0  0  0  0
  6 32  1  0  0  0  0
  7 33  1  0  0  0  0
  8  9  4  0  0  0  0
  8 20  1  0  0  0  0
  9 34  1  0  0  0  0
 10 11  1  0  0  0  0
 10 21  1  0  0  0  0
 10 24  1  0  0  0  0
 10 35  1  0  0  0  0
 11 12  1  0  0  0  0
 11 36  1  0  0  0  0
 11 37  1  0  0  0  0
 12 23  1  0  0  0  0
 12 38  1  0  0  0  0
 12 39  1  0  0  0  0
 13 23  1  0  0  0  0
 13 25  4  0  0  0  0
 13 29  4  0  0  0  0
 15 16  4  0  0  0  0
 15 18  4  0  0  0  0
 16 17  4  0  0  0  0
 17 19  4  0  0  0  0
 18 19  4  0  0  0  0
 20 22  1  0  0  0  0
 21 40  1  0  0  0  0
 22 41  1  0  0  0  0
 22 42  1  0  0  0  0
 22 43  1  0  0  0  0
 23 24  1  0  0  0  0
 24 44  1  0  0  0  0
 24 45  1  0  0  0  0
 25 26  4  0  0  0  0
 25 46  1  0  0  0  0
 26 27  4  0  0  0  0
 26 47  1  0  0  0  0
 27 28  4  0  0  0  0
 28 29  4  0  0  0  0
 28 48  1  0  0  0  0
 29 49  1  0  0  0  0
M  END
> <ConfClashScore>
0 

> <ConfOneFourInteractionScore>
-0.983503 

> <ConfScore>
0.126153 

> <ConfScorePBest>
0.00194054 

> <ConfTolerance>
0.487765 

> <HETNAM>
     OWQ A 303  OWQ                                                       

> <pdb_OW>
Q_303 -16.5129 3.80749 7.62812 0.15963 1.39178 -0.28144 -3.20151 0 0 0 -1.30514 0 0 0 0 0 0 0 0 -8.31393

$$$$
6yky_lig_1.pdb
 OpenBabel04162415593D

 49 53  0  0  0  0  0  0  0  0999 V2000
   25.1047    1.8134  -65.3759 C   0  0  0  1  0  0  0  0  0  0  0  0
   26.9167    0.5034  -65.9326 C   0  0  0  1  0  0  0  0  0  0  0  0
   25.4178    1.8283  -64.0982 N   0  0  0  1  0  0  0  0  0  0  0  0
   26.7669    1.4472  -61.1215 C   0  0  0  1  0  0  0  0  0  0  0  0
   27.6178    1.1541  -60.0726 C   0  0  0  1  0  0  0  0  0  0  0  0
   25.2153    2.4412  -59.5880 C   0  0  0  1  0  0  0  0  0  0  0  0
   25.5626    2.0894  -60.8786 C   0  0  0  1  0  0  0  0  0  0  0  0
   26.0686    2.1473  -58.5358 C   0  0  0  1  0  0  0  0  0  0  0  0
   27.2692    1.5070  -58.7782 C   0  0  0  1  0  0  0  0  0  0  0  0
   23.1377    3.1958  -64.8540 C   0  0  0  1  0  0  0  0  0  0  0  0
   21.6941    2.7345  -64.9839 C   0  0  0  1  0  0  0  0  0  0  0  0
   20.9096    3.9041  -64.4166 C   0  0  0  1  0  0  0  0  0  0  0  0
   21.2268    6.4082  -64.8295 C   0  0  0  1  0  0  0  0  0  0  0  0
   25.8296    1.1707  -66.2747 N   0  0  0  1  0  0  0  0  0  0  0  0
   27.2965    0.4858  -64.5857 C   0  0  0  1  0  0  0  0  0  0  0  0
   26.4936    1.1851  -63.6614 C   0  0  0  1  0  0  0  0  0  0  0  0
   27.0809    1.0061  -62.4394 N   0  0  0  1  0  0  0  0  0  0  0  0
   28.3158   -0.0766  -63.9004 N   0  0  0  1  0  0  0  0  0  0  0  0
   28.2164    0.2092  -62.6490 N   0  0  0  1  0  0  0  0  0  0  0  0
   25.6201    2.5347  -57.3181 O   0  0  0  1  0  0  0  0  0  0  0  0
   23.9919    2.4855  -65.7895 N   0  0  0  1  0  0  0  0  0  0  0  0
   26.4424    2.2165  -56.1844 C   0  0  0  1  0  0  0  0  0  0  0  0
   21.7155    5.0679  -64.8133 N   0  0  0  1  0  0  0  0  0  0  0  0
   23.0854    4.6872  -65.1915 C   0  0  0  1  0  0  0  0  0  0  0  0
   20.1543    6.8101  -65.6041 C   0  0  0  1  0  0  0  0  0  0  0  0
   19.7524    8.1311  -65.5485 C   0  0  0  1  0  0  0  0  0  0  0  0
   20.3501    9.0496  -64.7834 N   0  0  0  1  0  0  0  0  0  0  0  0
   21.3913    8.6471  -64.0411 C   0  0  0  1  0  0  0  0  0  0  0  0
   21.8574    7.3440  -64.0331 C   0  0  0  1  0  0  0  0  0  0  0  0
   27.4790    0.0014  -66.6492 H   0  0  0  1  0  0  0  0  0  0  0  0
   28.5195    0.6687  -60.2544 H   0  0  0  1  0  0  0  0  0  0  0  0
   24.3136    2.9266  -59.4062 H   0  0  0  1  0  0  0  0  0  0  0  0
   24.9205    2.3063  -61.6675 H   0  0  0  1  0  0  0  0  0  0  0  0
   27.9113    1.2901  -57.9893 H   0  0  0  1  0  0  0  0  0  0  0  0
   23.4964    3.0446  -63.8572 H   0  0  0  1  0  0  0  0  0  0  0  0
   21.4371    2.5597  -66.0078 H   0  0  0  1  0  0  0  0  0  0  0  0
   21.5222    1.8444  -64.4156 H   0  0  0  1  0  0  0  0  0  0  0  0
   19.9294    3.9521  -64.8428 H   0  0  0  1  0  0  0  0  0  0  0  0
   20.8330    3.8348  -63.3515 H   0  0  0  1  0  0  0  0  0  0  0  0
   23.7628    2.4889  -66.7424 H   0  0  0  1  0  0  0  0  0  0  0  0
   27.4734    2.3188  -56.4511 H   0  0  0  1  0  0  0  0  0  0  0  0
   26.2518    1.2094  -55.8773 H   0  0  0  1  0  0  0  0  0  0  0  0
   26.2143    2.8844  -55.3801 H   0  0  0  1  0  0  0  0  0  0  0  0
   23.2549    4.8507  -66.2353 H   0  0  0  1  0  0  0  0  0  0  0  0
   23.8071    5.2351  -64.6224 H   0  0  0  1  0  0  0  0  0  0  0  0
   19.6594    6.1311  -66.2168 H   0  0  0  1  0  0  0  0  0  0  0  0
   18.9434    8.4256  -66.1320 H   0  0  0  1  0  0  0  0  0  0  0  0
   21.8720    9.3481  -63.4419 H   0  0  0  1  0  0  0  0  0  0  0  0
   22.6673    7.0745  -63.4388 H   0  0  0  1  0  0  0  0  0  0  0  0
  1  3  4  0  0  0  0
  1 14  4  0  0  0  0
  1 21  1  0  0  0  0
  2 14  4  0  0  0  0
  2 15  4  0  0  0  0
  2 30  1  0  0  0  0
  3 16  4  0  0  0  0
  4  5  4  0  0  0  0
  4  7  4  0  0  0  0
  4 17  1  0  0  0  0
  5  9  4  0  0  0  0
  5 31  1  0  0  0  0
  6  7  4  0  0  0  0
  6  8  4  0  0  0  0
  6 32  1  0  0  0  0
  7 33  1  0  0  0  0
  8  9  4  0  0  0  0
  8 20  1  0  0  0  0
  9 34  1  0  0  0  0
 10 11  1  0  0  0  0
 10 21  1  0  0  0  0
 10 24  1  0  0  0  0
 10 35  1  0  0  0  0
 11 12  1  0  0  0  0
 11 36  1  0  0  0  0
 11 37  1  0  0  0  0
 12 23  1  0  0  0  0
 12 38  1  0  0  0  0
 12 39  1  0  0  0  0
 13 23  1  0  0  0  0
 13 25  4  0  0  0  0
 13 29  4  0  0  0  0
 15 16  4  0  0  0  0
 15 18  4  0  0  0  0
 16 17  4  0  0  0  0
 17 19  4  0  0  0  0
 18 19  4  0  0  0  0
 20 22  1  0  0  0  0
 21 40  1  0  0  0  0
 22 41  1  0  0  0  0
 22 42  1  0  0  0  0
 22 43  1  0  0  0  0
 23 24  1  0  0  0  0
 24 44  1  0  0  0  0
 24 45  1  0  0  0  0
 25 26  4  0  0  0  0
 25 46  1  0  0  0  0
 26 27  4  0  0  0  0
 26 47  1  0  0  0  0
 27 28  4  0  0  0  0
 28 29  4  0  0  0  0
 28 48  1  0  0  0  0
 29 49  1  0  0  0  0
M  END
> <ConfClashScore>
0 

> <ConfOneFourInteractionScore>
-0.986948 

> <ConfScore>
0.127071 

> <ConfScorePBest>
0.00192721 

> <ConfTolerance>
0.961009 

> <HETNAM>
     OWQ A 303  OWQ                                                       

> <pdb_OW>
Q_303 -16.5129 3.80749 7.62812 0.15963 1.39178 -0.28144 -3.20151 0 0 0 -1.30514 0 0 0 0 0 0 0 0 -8.31393

$$$$
6yky_lig_1.pdb
 OpenBabel04162415593D

 49 53  0  0  0  0  0  0  0  0999 V2000
   25.1048    1.8136  -65.3760 C   0  0  0  1  0  0  0  0  0  0  0  0
   26.9167    0.5034  -65.9326 C   0  0  0  1  0  0  0  0  0  0  0  0
   25.4178    1.8284  -64.0982 N   0  0  0  1  0  0  0  0  0  0  0  0
   26.7287    1.4700  -61.1391 C   0  0  0  1  0  0  0  0  0  0  0  0
   26.0245    2.6501  -60.9925 C   0  0  0  1  0  0  0  0  0  0  0  0
   26.9079    1.2783  -58.7561 C   0  0  0  1  0  0  0  0  0  0  0  0
   27.1733    0.7843  -60.0194 C   0  0  0  1  0  0  0  0  0  0  0  0
   26.2016    2.4621  -58.6090 C   0  0  0  1  0  0  0  0  0  0  0  0
   25.7584    3.1455  -59.7255 C   0  0  0  1  0  0  0  0  0  0  0  0
   23.7933    2.6068  -67.2987 C   0  0  0  1  0  0  0  0  0  0  0  0
   22.4247    3.2287  -67.6191 C   0  0  0  1  0  0  0  0  0  0  0  0
   22.1859    2.7338  -69.0539 C   0  0  0  1  0  0  0  0  0  0  0  0
   23.7115    1.2758  -70.5215 C   0  0  0  1  0  0  0  0  0  0  0  0
   25.8296    1.1707  -66.2747 N   0  0  0  1  0  0  0  0  0  0  0  0
   27.2964    0.4857  -64.5857 C   0  0  0  1  0  0  0  0  0  0  0  0
   26.4937    1.1852  -63.6613 C   0  0  0  1  0  0  0  0  0  0  0  0
   27.0809    1.0062  -62.4395 N   0  0  0  1  0  0  0  0  0  0  0  0
   28.3159   -0.0766  -63.9004 N   0  0  0  1  0  0  0  0  0  0  0  0
   28.2164    0.2092  -62.6490 N   0  0  0  1  0  0  0  0  0  0  0  0
   26.0094    2.8448  -57.3413 O   0  0  0  1  0  0  0  0  0  0  0  0
   23.9907    2.4740  -65.8607 N   0  0  0  1  0  0  0  0  0  0  0  0
   25.1541    3.9878  -57.0023 C   0  0  0  1  0  0  0  0  0  0  0  0
   23.2436    1.7077  -69.2973 N   0  0  0  1  0  0  0  0  0  0  0  0
   23.6884    1.2481  -67.9684 C   0  0  0  1  0  0  0  0  0  0  0  0
   23.2564    1.7838  -71.7243 C   0  0  0  1  0  0  0  0  0  0  0  0
   23.7897    1.2889  -72.8991 C   0  0  0  1  0  0  0  0  0  0  0  0
   24.7267    0.3367  -72.9370 N   0  0  0  1  0  0  0  0  0  0  0  0
   25.1557   -0.1499  -71.7638 C   0  0  0  1  0  0  0  0  0  0  0  0
   24.6791    0.2903  -70.5412 C   0  0  0  1  0  0  0  0  0  0  0  0
   27.4788    0.0013  -66.6492 H   0  0  0  1  0  0  0  0  0  0  0  0
   25.6945    3.1665  -61.8327 H   0  0  0  1  0  0  0  0  0  0  0  0
   27.2379    0.7619  -57.9159 H   0  0  0  1  0  0  0  0  0  0  0  0
   27.7066   -0.1017  -60.1298 H   0  0  0  1  0  0  0  0  0  0  0  0
   25.2251    4.0315  -59.6151 H   0  0  0  1  0  0  0  0  0  0  0  0
   24.5904    3.1855  -67.7167 H   0  0  0  1  0  0  0  0  0  0  0  0
   21.6683    2.8711  -66.9522 H   0  0  0  1  0  0  0  0  0  0  0  0
   22.4624    4.2971  -67.5763 H   0  0  0  1  0  0  0  0  0  0  0  0
   21.2128    2.2974  -69.1427 H   0  0  0  1  0  0  0  0  0  0  0  0
   22.2799    3.5414  -69.7494 H   0  0  0  1  0  0  0  0  0  0  0  0
   23.3349    2.8522  -65.2382 H   0  0  0  1  0  0  0  0  0  0  0  0
   24.1621    3.8107  -57.3624 H   0  0  0  1  0  0  0  0  0  0  0  0
   25.5456    4.8734  -57.4575 H   0  0  0  1  0  0  0  0  0  0  0  0
   25.1305    4.1126  -55.9399 H   0  0  0  1  0  0  0  0  0  0  0  0
   24.6306    0.7428  -68.0091 H   0  0  0  1  0  0  0  0  0  0  0  0
   22.9650    0.6178  -67.4948 H   0  0  0  1  0  0  0  0  0  0  0  0
   22.5263    2.5242  -71.7443 H   0  0  0  1  0  0  0  0  0  0  0  0
   23.4444    1.6775  -73.7998 H   0  0  0  1  0  0  0  0  0  0  0  0
   25.8818   -0.8943  -71.7726 H   0  0  0  1  0  0  0  0  0  0  0  0
   25.0426   -0.1131  -69.6544 H   0  0  0  1  0  0  0  0  0  0  0  0
  1  3  4  0  0  0  0
  1 14  4  0  0  0  0
  1 21  1  0  0  0  0
  2 14  4  0  0  0  0
  2 15  4  0  0  0  0
  2 30  1  0  0  0  0
  3 16  4  0  0  0  0
  4  5  4  0  0  0  0
  4  7  4  0  0  0  0
  4 17  1  0  0  0  0
  5  9  4  0  0  0  0
  5 31  1  0  0  0  0
  6  7  4  0  0  0  0
  6  8  4  0  0  0  0
  6 32  1  0  0  0  0
  7 33  1  0  0  0  0
  8  9  4  0  0  0  0
  8 20  1  0  0  0  0
  9 34  1  0  0  0  0
 10 11  1  0  0  0  0
 10 21  1  0  0  0  0
 10 24  1  0  0  0  0
 10 35  1  0  0  0  0
 11 12  1  0  0  0  0
 11 36  1  0  0  0  0
 11 37  1  0  0  0  0
 12 23  1  0  0  0  0
 12 38  1  0  0  0  0
 12 39  1  0  0  0  0
 13 23  1  0  0  0  0
 13 25  4  0  0  0  0
 13 29  4  0  0  0  0
 15 16  4  0  0  0  0
 15 18  4  0  0  0  0
 16 17  4  0  0  0  0
 17 19  4  0  0  0  0
 18 19  4  0  0  0  0
 20 22  1  0  0  0  0
 21 40  1  0  0  0  0
 22 41  1  0  0  0  0
 22 42  1  0  0  0  0
 22 43  1  0  0  0  0
 23 24  1  0  0  0  0
 24 44  1  0  0  0  0
 24 45  1  0  0  0  0
 25 26  4  0  0  0  0
 25 46  1  0  0  0  0
 26 27  4  0  0  0  0
 26 47  1  0  0  0  0
 27 28  4  0  0  0  0
 28 29  4  0  0  0  0
 28 48  1  0  0  0  0
 29 49  1  0  0  0  0
M  END
> <ConfClashScore>
0.000174363 

> <ConfOneFourInteractionScore>
-0.981795 

> <ConfScore>
0.127747 

> <ConfScorePBest>
0.00191388 

> <ConfTolerance>
0.435281 

> <HETNAM>
     OWQ A 303  OWQ                                                       

> <pdb_OW>
Q_303 -16.5129 3.80749 7.62812 0.15963 1.39178 -0.28144 -3.20151 0 0 0 -1.30514 0 0 0 0 0 0 0 0 -8.31393

$$$$
6yky_lig_1.pdb
 OpenBabel04162415593D

 49 53  0  0  0  0  0  0  0  0999 V2000
   25.1047    1.8134  -65.3759 C   0  0  0  1  0  0  0  0  0  0  0  0
   26.9167    0.5034  -65.9326 C   0  0  0  1  0  0  0  0  0  0  0  0
   25.4177    1.8281  -64.0982 N   0  0  0  1  0  0  0  0  0  0  0  0
   26.7669    1.4471  -61.1214 C   0  0  0  1  0  0  0  0  0  0  0  0
   26.5497    2.7987  -60.9314 C   0  0  0  1  0  0  0  0  0  0  0  0
   26.5442    1.0774  -58.7632 C   0  0  0  1  0  0  0  0  0  0  0  0
   26.7668    0.5854  -60.0356 C   0  0  0  1  0  0  0  0  0  0  0  0
   26.3264    2.4330  -58.5725 C   0  0  0  1  0  0  0  0  0  0  0  0
   26.3265    3.2919  -59.6554 C   0  0  0  1  0  0  0  0  0  0  0  0
   23.3610    2.6009  -67.0930 C   0  0  0  1  0  0  0  0  0  0  0  0
   22.7683    1.2485  -67.5766 C   0  0  0  1  0  0  0  0  0  0  0  0
   22.7651    1.2688  -69.1196 C   0  0  0  1  0  0  0  0  0  0  0  0
   23.9367    2.8752  -70.6991 C   0  0  0  1  0  0  0  0  0  0  0  0
   25.8296    1.1706  -66.2747 N   0  0  0  1  0  0  0  0  0  0  0  0
   27.2965    0.4857  -64.5857 C   0  0  0  1  0  0  0  0  0  0  0  0
   26.4936    1.1850  -63.6614 C   0  0  0  1  0  0  0  0  0  0  0  0
   27.0808    1.0060  -62.4395 N   0  0  0  1  0  0  0  0  0  0  0  0
   28.3159   -0.0766  -63.9004 N   0  0  0  1  0  0  0  0  0  0  0  0
   28.2164    0.2092  -62.6490 N   0  0  0  1  0  0  0  0  0  0  0  0
   26.1201    2.8511  -57.3010 O   0  0  0  1  0  0  0  0  0  0  0  0
   24.0074    2.4760  -65.7836 N   0  0  0  1  0  0  0  0  0  0  0  0
   26.4424    1.9304  -56.2471 C   0  0  0  1  0  0  0  0  0  0  0  0
   23.7154    2.3724  -69.4359 N   0  0  0  1  0  0  0  0  0  0  0  0
   24.3855    2.8525  -68.2163 C   0  0  0  1  0  0  0  0  0  0  0  0
   25.0314    2.5261  -71.4681 C   0  0  0  1  0  0  0  0  0  0  0  0
   25.1640    3.0818  -72.7264 C   0  0  0  1  0  0  0  0  0  0  0  0
   24.2868    3.9473  -73.2438 N   0  0  0  1  0  0  0  0  0  0  0  0
   23.2325    4.2802  -72.4855 C   0  0  0  1  0  0  0  0  0  0  0  0
   23.0200    3.7691  -71.2170 C   0  0  0  1  0  0  0  0  0  0  0  0
   27.4789    0.0014  -66.6492 H   0  0  0  1  0  0  0  0  0  0  0  0
   26.5538    3.4456  -61.7457 H   0  0  0  1  0  0  0  0  0  0  0  0
   26.5401    0.4305  -57.9490 H   0  0  0  1  0  0  0  0  0  0  0  0
   26.9342   -0.4310  -60.1782 H   0  0  0  1  0  0  0  0  0  0  0  0
   26.1591    4.3084  -59.5127 H   0  0  0  1  0  0  0  0  0  0  0  0
   22.6178    3.3696  -67.0526 H   0  0  0  1  0  0  0  0  0  0  0  0
   21.7691    1.1361  -67.2107 H   0  0  0  1  0  0  0  0  0  0  0  0
   23.3713    0.4383  -67.2233 H   0  0  0  1  0  0  0  0  0  0  0  0
   23.1094    0.3374  -69.5180 H   0  0  0  1  0  0  0  0  0  0  0  0
   21.7877    1.4806  -69.5002 H   0  0  0  1  0  0  0  0  0  0  0  0
   23.5535    2.9693  -65.0688 H   0  0  0  1  0  0  0  0  0  0  0  0
   27.4656    1.6299  -56.3357 H   0  0  0  1  0  0  0  0  0  0  0  0
   25.8107    1.0698  -56.3200 H   0  0  0  1  0  0  0  0  0  0  0  0
   26.2911    2.4053  -55.3003 H   0  0  0  1  0  0  0  0  0  0  0  0
   25.2860    2.3028  -68.0377 H   0  0  0  1  0  0  0  0  0  0  0  0
   24.6132    3.8950  -68.2948 H   0  0  0  1  0  0  0  0  0  0  0  0
   25.7416    1.8580  -71.1065 H   0  0  0  1  0  0  0  0  0  0  0  0
   25.9886    2.8127  -73.3002 H   0  0  0  1  0  0  0  0  0  0  0  0
   22.5407    4.9554  -72.8691 H   0  0  0  1  0  0  0  0  0  0  0  0
   22.1858    4.0527  -70.6643 H   0  0  0  1  0  0  0  0  0  0  0  0
  1  3  4  0  0  0  0
  1 14  4  0  0  0  0
  1 21  1  0  0  0  0
  2 14  4  0  0  0  0
  2 15  4  0  0  0  0
  2 30  1  0  0  0  0
  3 16  4  0  0  0  0
  4  5  4  0  0  0  0
  4  7  4  0  0  0  0
  4 17  1  0  0  0  0
  5  9  4  0  0  0  0
  5 31  1  0  0  0  0
  6  7  4  0  0  0  0
  6  8  4  0  0  0  0
  6 32  1  0  0  0  0
  7 33  1  0  0  0  0
  8  9  4  0  0  0  0
  8 20  1  0  0  0  0
  9 34  1  0  0  0  0
 10 11  1  0  0  0  0
 10 21  1  0  0  0  0
 10 24  1  0  0  0  0
 10 35  1  0  0  0  0
 11 12  1  0  0  0  0
 11 36  1  0  0  0  0
 11 37  1  0  0  0  0
 12 23  1  0  0  0  0
 12 38  1  0  0  0  0
 12 39  1  0  0  0  0
 13 23  1  0  0  0  0
 13 25  4  0  0  0  0
 13 29  4  0  0  0  0
 15 16  4  0  0  0  0
 15 18  4  0  0  0  0
 16 17  4  0  0  0  0
 17 19  4  0  0  0  0
 18 19  4  0  0  0  0
 20 22  1  0  0  0  0
 21 40  1  0  0  0  0
 22 41  1  0  0  0  0
 22 42  1  0  0  0  0
 22 43  1  0  0  0  0
 23 24  1  0  0  0  0
 24 44  1  0  0  0  0
 24 45  1  0  0  0  0
 25 26  4  0  0  0  0
 25 46  1  0  0  0  0
 26 27  4  0  0  0  0
 26 47  1  0  0  0  0
 27 28  4  0  0  0  0
 28 29  4  0  0  0  0
 28 48  1  0  0  0  0
 29 49  1  0  0  0  0
M  END
> <ConfClashScore>
0 

> <ConfOneFourInteractionScore>
-0.985577 

> <ConfScore>
0.129973 

> <ConfScorePBest>
0.00190055 

> <ConfTolerance>
0.582036 

> <HETNAM>
     OWQ A 303  OWQ                                                       

> <pdb_OW>
Q_303 -16.5129 3.80749 7.62812 0.15963 1.39178 -0.28144 -3.20151 0 0 0 -1.30514 0 0 0 0 0 0 0 0 -8.31393

$$$$
6yky_lig_1.pdb
 OpenBabel04162415593D

 49 53  0  0  0  0  0  0  0  0999 V2000
   25.1048    1.8135  -65.3760 C   0  0  0  1  0  0  0  0  0  0  0  0
   26.9167    0.5034  -65.9326 C   0  0  0  1  0  0  0  0  0  0  0  0
   25.4178    1.8284  -64.0982 N   0  0  0  1  0  0  0  0  0  0  0  0
   26.7286    1.4700  -61.1390 C   0  0  0  1  0  0  0  0  0  0  0  0
   25.9600    2.6096  -60.9956 C   0  0  0  1  0  0  0  0  0  0  0  0
   26.9670    1.3281  -58.7578 C   0  0  0  1  0  0  0  0  0  0  0  0
   27.2351    0.8297  -60.0188 C   0  0  0  1  0  0  0  0  0  0  0  0
   26.1960    2.4711  -58.6136 C   0  0  0  1  0  0  0  0  0  0  0  0
   25.6912    3.1093  -59.7309 C   0  0  0  1  0  0  0  0  0  0  0  0
   23.5528    2.4463  -67.1468 C   0  0  0  1  0  0  0  0  0  0  0  0
   22.1245    2.9837  -67.3304 C   0  0  0  1  0  0  0  0  0  0  0  0
   21.6994    2.2982  -68.6382 C   0  0  0  1  0  0  0  0  0  0  0  0
   23.0578    0.7004  -70.1276 C   0  0  0  1  0  0  0  0  0  0  0  0
   25.8296    1.1707  -66.2747 N   0  0  0  1  0  0  0  0  0  0  0  0
   27.2965    0.4858  -64.5857 C   0  0  0  1  0  0  0  0  0  0  0  0
   26.4936    1.1852  -63.6613 C   0  0  0  1  0  0  0  0  0  0  0  0
   27.0810    1.0062  -62.4395 N   0  0  0  1  0  0  0  0  0  0  0  0
   28.3158   -0.0766  -63.9004 N   0  0  0  1  0  0  0  0  0  0  0  0
   28.2164    0.2092  -62.6490 N   0  0  0  1  0  0  0  0  0  0  0  0
   25.8723    3.0530  -57.4346 O   0  0  0  1  0  0  0  0  0  0  0  0
   23.9679    2.5093  -65.7453 N   0  0  0  1  0  0  0  0  0  0  0  0
   26.5315    2.5612  -56.2572 C   0  0  0  1  0  0  0  0  0  0  0  0
   22.7561    1.2777  -68.9088 N   0  0  0  1  0  0  0  0  0  0  0  0
   23.4132    1.0090  -67.6162 C   0  0  0  1  0  0  0  0  0  0  0  0
   24.2004   -0.0627  -70.2825 C   0  0  0  1  0  0  0  0  0  0  0  0
   24.4619   -0.6248  -71.5175 C   0  0  0  1  0  0  0  0  0  0  0  0
   23.6662   -0.4676  -72.5798 N   0  0  0  1  0  0  0  0  0  0  0  0
   22.5642    0.2782  -72.4166 C   0  0  0  1  0  0  0  0  0  0  0  0
   22.2240    0.8745  -71.2149 C   0  0  0  1  0  0  0  0  0  0  0  0
   27.4789    0.0013  -66.6492 H   0  0  0  1  0  0  0  0  0  0  0  0
   25.5834    3.0922  -61.8363 H   0  0  0  1  0  0  0  0  0  0  0  0
   27.3435    0.8454  -57.9171 H   0  0  0  1  0  0  0  0  0  0  0  0
   27.8169   -0.0256  -60.1271 H   0  0  0  1  0  0  0  0  0  0  0  0
   25.1094    3.9646  -59.6226 H   0  0  0  1  0  0  0  0  0  0  0  0
   24.2516    2.9861  -67.7511 H   0  0  0  1  0  0  0  0  0  0  0  0
   21.4923    2.6966  -66.5164 H   0  0  0  1  0  0  0  0  0  0  0  0
   22.1185    4.0491  -67.4290 H   0  0  0  1  0  0  0  0  0  0  0  0
   21.6521    3.0095  -69.4361 H   0  0  0  1  0  0  0  0  0  0  0  0
   20.7453    1.8280  -68.5219 H   0  0  0  1  0  0  0  0  0  0  0  0
   23.4570    3.0280  -65.0893 H   0  0  0  1  0  0  0  0  0  0  0  0
   26.2710    1.5347  -56.1045 H   0  0  0  1  0  0  0  0  0  0  0  0
   26.2234    3.1369  -55.4095 H   0  0  0  1  0  0  0  0  0  0  0  0
   27.5909    2.6456  -56.3804 H   0  0  0  1  0  0  0  0  0  0  0  0
   22.7977    0.4273  -66.9622 H   0  0  0  1  0  0  0  0  0  0  0  0
   24.3614    0.5281  -67.7360 H   0  0  0  1  0  0  0  0  0  0  0  0
   24.8507   -0.2107  -69.4845 H   0  0  0  1  0  0  0  0  0  0  0  0
   25.3218   -1.1996  -71.6259 H   0  0  0  1  0  0  0  0  0  0  0  0
   21.9343    0.4153  -73.2327 H   0  0  0  1  0  0  0  0  0  0  0  0
   21.3569    1.4429  -71.1322 H   0  0  0  1  0  0  0  0  0  0  0  0
  1  3  4  0  0  0  0
  1 14  4  0  0  0  0
  1 21  1  0  0  0  0
  2 14  4  0  0  0  0
  2 15  4  0  0  0  0
  2 30  1  0  0  0  0
  3 16  4  0  0  0  0
  4  5  4  0  0  0  0
  4  7  4  0  0  0  0
  4 17  1  0  0  0  0
  5  9  4  0  0  0  0
  5 31  1  0  0  0  0
  6  7  4  0  0  0  0
  6  8  4  0  0  0  0
  6 32  1  0  0  0  0
  7 33  1  0  0  0  0
  8  9  4  0  0  0  0
  8 20  1  0  0  0  0
  9 34  1  0  0  0  0
 10 11  1  0  0  0  0
 10 21  1  0  0  0  0
 10 24  1  0  0  0  0
 10 35  1  0  0  0  0
 11 12  1  0  0  0  0
 11 36  1  0  0  0  0
 11 37  1  0  0  0  0
 12 23  1  0  0  0  0
 12 38  1  0  0  0  0
 12 39  1  0  0  0  0
 13 23  1  0  0  0  0
 13 25  4  0  0  0  0
 13 29  4  0  0  0  0
 15 16  4  0  0  0  0
 15 18  4  0  0  0  0
 16 17  4  0  0  0  0
 17 19  4  0  0  0  0
 18 19  4  0  0  0  0
 20 22  1  0  0  0  0
 21 40  1  0  0  0  0
 22 41  1  0  0  0  0
 22 42  1  0  0  0  0
 22 43  1  0  0  0  0
 23 24  1  0  0  0  0
 24 44  1  0  0  0  0
 24 45  1  0  0  0  0
 25 26  4  0  0  0  0
 25 46  1  0  0  0  0
 26 27  4  0  0  0  0
 26 47  1  0  0  0  0
 27 28  4  0  0  0  0
 28 29  4  0  0  0  0
 28 48  1  0  0  0  0
 29 49  1  0  0  0  0
M  END
> <ConfClashScore>
0 

> <ConfOneFourInteractionScore>
-0.987833 

> <ConfScore>
0.130614 

> <ConfScorePBest>
0.00188723 

> <ConfTolerance>
0.432818 

> <HETNAM>
     OWQ A 303  OWQ                                                       

> <pdb_OW>
Q_303 -16.5129 3.80749 7.62812 0.15963 1.39178 -0.28144 -3.20151 0 0 0 -1.30514 0 0 0 0 0 0 0 0 -8.31393

$$$$
6yky_lig_1.pdb
 OpenBabel04162415593D

 49 53  0  0  0  0  0  0  0  0999 V2000
   25.1047    1.8134  -65.3759 C   0  0  0  1  0  0  0  0  0  0  0  0
   26.9167    0.5034  -65.9325 C   0  0  0  1  0  0  0  0  0  0  0  0
   25.4177    1.8282  -64.0981 N   0  0  0  1  0  0  0  0  0  0  0  0
   26.7285    1.4698  -61.1390 C   0  0  0  1  0  0  0  0  0  0  0  0
   27.2321    2.6692  -60.6722 C   0  0  0  1  0  0  0  0  0  0  0  0
   25.6844    1.0794  -59.0167 C   0  0  0  1  0  0  0  0  0  0  0  0
   25.9558    0.6724  -60.3093 C   0  0  0  1  0  0  0  0  0  0  0  0
   26.1893    2.2824  -58.5482 C   0  0  0  1  0  0  0  0  0  0  0  0
   26.9598    3.0774  -59.3757 C   0  0  0  1  0  0  0  0  0  0  0  0
   23.0182    3.0034  -64.8446 C   0  0  0  1  0  0  0  0  0  0  0  0
   21.6513    3.2190  -65.5137 C   0  0  0  1  0  0  0  0  0  0  0  0
   21.0138    4.2676  -64.5893 C   0  0  0  1  0  0  0  0  0  0  0  0
   21.9869    5.3531  -62.4350 C   0  0  0  1  0  0  0  0  0  0  0  0
   25.8296    1.1706  -66.2747 N   0  0  0  1  0  0  0  0  0  0  0  0
   27.2965    0.4857  -64.5857 C   0  0  0  1  0  0  0  0  0  0  0  0
   26.4936    1.1851  -63.6614 C   0  0  0  1  0  0  0  0  0  0  0  0
   27.0809    1.0060  -62.4395 N   0  0  0  1  0  0  0  0  0  0  0  0
   28.3159   -0.0766  -63.9004 N   0  0  0  1  0  0  0  0  0  0  0  0
   28.2164    0.2093  -62.6490 N   0  0  0  1  0  0  0  0  0  0  0  0
   25.8508    2.7255  -57.3141 O   0  0  0  1  0  0  0  0  0  0  0  0
   23.9918    2.4854  -65.7895 N   0  0  0  1  0  0  0  0  0  0  0  0
   25.0462    1.8559  -56.5025 C   0  0  0  1  0  0  0  0  0  0  0  0
   22.1197    4.7307  -63.6982 N   0  0  0  1  0  0  0  0  0  0  0  0
   23.3774    4.4095  -64.3980 C   0  0  0  1  0  0  0  0  0  0  0  0
   23.0894    5.8849  -61.7921 C   0  0  0  1  0  0  0  0  0  0  0  0
   22.9141    6.4877  -60.5610 C   0  0  0  1  0  0  0  0  0  0  0  0
   21.7285    6.5829  -59.9514 N   0  0  0  1  0  0  0  0  0  0  0  0
   20.6691    6.0592  -60.5841 C   0  0  0  1  0  0  0  0  0  0  0  0
   20.7535    5.4415  -61.8197 C   0  0  0  1  0  0  0  0  0  0  0  0
   27.4789    0.0014  -66.6492 H   0  0  0  1  0  0  0  0  0  0  0  0
   27.8151    3.2656  -61.2935 H   0  0  0  1  0  0  0  0  0  0  0  0
   25.1013    0.4830  -58.3953 H   0  0  0  1  0  0  0  0  0  0  0  0
   25.5803   -0.2320  -60.6594 H   0  0  0  1  0  0  0  0  0  0  0  0
   27.3353    3.9818  -59.0256 H   0  0  0  1  0  0  0  0  0  0  0  0
   22.9416    2.3384  -64.0098 H   0  0  0  1  0  0  0  0  0  0  0  0
   21.7597    3.5923  -66.5105 H   0  0  0  1  0  0  0  0  0  0  0  0
   21.0789    2.3151  -65.5310 H   0  0  0  1  0  0  0  0  0  0  0  0
   20.2262    3.8296  -64.0125 H   0  0  0  1  0  0  0  0  0  0  0  0
   20.6260    5.0848  -65.1609 H   0  0  0  1  0  0  0  0  0  0  0  0
   23.8457    2.6221  -66.7488 H   0  0  0  1  0  0  0  0  0  0  0  0
   25.5977    0.9674  -56.2758 H   0  0  0  1  0  0  0  0  0  0  0  0
   24.1547    1.5961  -57.0341 H   0  0  0  1  0  0  0  0  0  0  0  0
   24.7867    2.3562  -55.5930 H   0  0  0  1  0  0  0  0  0  0  0  0
   24.2215    4.4225  -63.7406 H   0  0  0  1  0  0  0  0  0  0  0  0
   23.5589    5.0633  -65.2254 H   0  0  0  1  0  0  0  0  0  0  0  0
   24.0327    5.8324  -62.2268 H   0  0  0  1  0  0  0  0  0  0  0  0
   23.7475    6.8878  -60.0844 H   0  0  0  1  0  0  0  0  0  0  0  0
   19.7383    6.1199  -60.1241 H   0  0  0  1  0  0  0  0  0  0  0  0
   19.9044    5.0513  -62.2763 H   0  0  0  1  0  0  0  0  0  0  0  0
  1  3  4  0  0  0  0
  1 14  4  0  0  0  0
  1 21  1  0  0  0  0
  2 14  4  0  0  0  0
  2 15  4  0  0  0  0
  2 30  1  0  0  0  0
  3 16  4  0  0  0  0
  4  5  4  0  0  0  0
  4  7  4  0  0  0  0
  4 17  1  0  0  0  0
  5  9  4  0  0  0  0
  5 31  1  0  0  0  0
  6  7  4  0  0  0  0
  6  8  4  0  0  0  0
  6 32  1  0  0  0  0
  7 33  1  0  0  0  0
  8  9  4  0  0  0  0
  8 20  1  0  0  0  0
  9 34  1  0  0  0  0
 10 11  1  0  0  0  0
 10 21  1  0  0  0  0
 10 24  1  0  0  0  0
 10 35  1  0  0  0  0
 11 12  1  0  0  0  0
 11 36  1  0  0  0  0
 11 37  1  0  0  0  0
 12 23  1  0  0  0  0
 12 38  1  0  0  0  0
 12 39  1  0  0  0  0
 13 23  1  0  0  0  0
 13 25  4  0  0  0  0
 13 29  4  0  0  0  0
 15 16  4  0  0  0  0
 15 18  4  0  0  0  0
 16 17  4  0  0  0  0
 17 19  4  0  0  0  0
 18 19  4  0  0  0  0
 20 22  1  0  0  0  0
 21 40  1  0  0  0  0
 22 41  1  0  0  0  0
 22 42  1  0  0  0  0
 22 43  1  0  0  0  0
 23 24  1  0  0  0  0
 24 44  1  0  0  0  0
 24 45  1  0  0  0  0
 25 26  4  0  0  0  0
 25 46  1  0  0  0  0
 26 27  4  0  0  0  0
 26 47  1  0  0  0  0
 27 28  4  0  0  0  0
 28 29  4  0  0  0  0
 28 48  1  0  0  0  0
 29 49  1  0  0  0  0
M  END
> <ConfClashScore>
0 

> <ConfOneFourInteractionScore>
-0.991755 

> <ConfScore>
0.131157 

> <ConfScorePBest>
0.0018739 

> <ConfTolerance>
0.583425 

> <HETNAM>
     OWQ A 303  OWQ                                                       

> <pdb_OW>
Q_303 -16.5129 3.80749 7.62812 0.15963 1.39178 -0.28144 -3.20151 0 0 0 -1.30514 0 0 0 0 0 0 0 0 -8.31393

$$$$
6yky_lig_1.pdb
 OpenBabel04162415593D

 49 53  0  0  0  0  0  0  0  0999 V2000
   25.1048    1.8136  -65.3760 C   0  0  0  1  0  0  0  0  0  0  0  0
   26.9167    0.5034  -65.9326 C   0  0  0  1  0  0  0  0  0  0  0  0
   25.4179    1.8284  -64.0983 N   0  0  0  1  0  0  0  0  0  0  0  0
   26.6877    1.3786  -61.1216 C   0  0  0  1  0  0  0  0  0  0  0  0
   25.9276    0.5146  -60.3562 C   0  0  0  1  0  0  0  0  0  0  0  0
   26.5355    3.0408  -59.4007 C   0  0  0  1  0  0  0  0  0  0  0  0
   26.9900    2.6445  -60.6444 C   0  0  0  1  0  0  0  0  0  0  0  0
   25.7730    2.1743  -58.6328 C   0  0  0  1  0  0  0  0  0  0  0  0
   25.4718    0.9121  -59.1088 C   0  0  0  1  0  0  0  0  0  0  0  0
   23.5529    2.5185  -67.1624 C   0  0  0  1  0  0  0  0  0  0  0  0
   22.8253    3.8370  -67.4699 C   0  0  0  1  0  0  0  0  0  0  0  0
   21.9565    3.4400  -68.6734 C   0  0  0  1  0  0  0  0  0  0  0  0
   21.8071    1.1669  -69.8595 C   0  0  0  1  0  0  0  0  0  0  0  0
   25.8297    1.1706  -66.2748 N   0  0  0  1  0  0  0  0  0  0  0  0
   27.2965    0.4857  -64.5857 C   0  0  0  1  0  0  0  0  0  0  0  0
   26.4937    1.1853  -63.6614 C   0  0  0  1  0  0  0  0  0  0  0  0
   27.0810    1.0062  -62.4395 N   0  0  0  1  0  0  0  0  0  0  0  0
   28.3159   -0.0766  -63.9004 N   0  0  0  1  0  0  0  0  0  0  0  0
   28.2164    0.2092  -62.6490 N   0  0  0  1  0  0  0  0  0  0  0  0
   25.3234    2.5645  -57.4166 O   0  0  0  1  0  0  0  0  0  0  0  0
   24.0076    2.4763  -65.7838 N   0  0  0  1  0  0  0  0  0  0  0  0
   24.5298    1.6230  -56.6774 C   0  0  0  1  0  0  0  0  0  0  0  0
   22.0533    1.9517  -68.7545 N   0  0  0  1  0  0  0  0  0  0  0  0
   22.4652    1.4898  -67.4159 C   0  0  0  1  0  0  0  0  0  0  0  0
   21.6546    1.7378  -71.1096 C   0  0  0  1  0  0  0  0  0  0  0  0
   21.4126    0.9131  -72.1917 C   0  0  0  1  0  0  0  0  0  0  0  0
   21.3143   -0.4163  -72.0952 N   0  0  0  1  0  0  0  0  0  0  0  0
   21.4599   -0.9559  -70.8766 C   0  0  0  1  0  0  0  0  0  0  0  0
   21.7078   -0.2055  -69.7403 C   0  0  0  1  0  0  0  0  0  0  0  0
   27.4789    0.0013  -66.6492 H   0  0  0  1  0  0  0  0  0  0  0  0
   25.6976   -0.4337  -60.7159 H   0  0  0  1  0  0  0  0  0  0  0  0
   26.7655    3.9890  -59.0409 H   0  0  0  1  0  0  0  0  0  0  0  0
   27.5585    3.2960  -61.2221 H   0  0  0  1  0  0  0  0  0  0  0  0
   24.9033    0.2606  -58.5312 H   0  0  0  1  0  0  0  0  0  0  0  0
   24.3860    2.3726  -67.8179 H   0  0  0  1  0  0  0  0  0  0  0  0
   23.5159    4.6128  -67.7266 H   0  0  0  1  0  0  0  0  0  0  0  0
   22.2245    4.1529  -66.6427 H   0  0  0  1  0  0  0  0  0  0  0  0
   20.9415    3.7417  -68.5187 H   0  0  0  1  0  0  0  0  0  0  0  0
   22.3300    3.8894  -69.5697 H   0  0  0  1  0  0  0  0  0  0  0  0
   23.4839    2.9592  -65.1107 H   0  0  0  1  0  0  0  0  0  0  0  0
   23.6113    1.4448  -57.1966 H   0  0  0  1  0  0  0  0  0  0  0  0
   24.3189    2.0196  -55.7062 H   0  0  0  1  0  0  0  0  0  0  0  0
   25.0677    0.7033  -56.5786 H   0  0  0  1  0  0  0  0  0  0  0  0
   22.8483    0.4909  -67.4322 H   0  0  0  1  0  0  0  0  0  0  0  0
   21.6707    1.5562  -66.7024 H   0  0  0  1  0  0  0  0  0  0  0  0
   21.7206    2.7682  -71.2330 H   0  0  0  1  0  0  0  0  0  0  0  0
   21.3015    1.3493  -73.1293 H   0  0  0  1  0  0  0  0  0  0  0  0
   21.3828   -1.9885  -70.7805 H   0  0  0  1  0  0  0  0  0  0  0  0
   21.8172   -0.6664  -68.8145 H   0  0  0  1  0  0  0  0  0  0  0  0
  1  3  4  0  0  0  0
  1 14  4  0  0  0  0
  1 21  1  0  0  0  0
  2 14  4  0  0  0  0
  2 15  4  0  0  0  0
  2 30  1  0  0  0  0
  3 16  4  0  0  0  0
  4  5  4  0  0  0  0
  4  7  4  0  0  0  0
  4 17  1  0  0  0  0
  5  9  4  0  0  0  0
  5 31  1  0  0  0  0
  6  7  4  0  0  0  0
  6  8  4  0  0  0  0
  6 32  1  0  0  0  0
  7 33  1  0  0  0  0
  8  9  4  0  0  0  0
  8 20  1  0  0  0  0
  9 34  1  0  0  0  0
 10 11  1  0  0  0  0
 10 21  1  0  0  0  0
 10 24  1  0  0  0  0
 10 35  1  0  0  0  0
 11 12  1  0  0  0  0
 11 36  1  0  0  0  0
 11 37  1  0  0  0  0
 12 23  1  0  0  0  0
 12 38  1  0  0  0  0
 12 39  1  0  0  0  0
 13 23  1  0  0  0  0
 13 25  4  0  0  0  0
 13 29  4  0  0  0  0
 15 16  4  0  0  0  0
 15 18  4  0  0  0  0
 16 17  4  0  0  0  0
 17 19  4  0  0  0  0
 18 19  4  0  0  0  0
 20 22  1  0  0  0  0
 21 40  1  0  0  0  0
 22 41  1  0  0  0  0
 22 42  1  0  0  0  0
 22 43  1  0  0  0  0
 23 24  1  0  0  0  0
 24 44  1  0  0  0  0
 24 45  1  0  0  0  0
 25 26  4  0  0  0  0
 25 46  1  0  0  0  0
 26 27  4  0  0  0  0
 26 47  1  0  0  0  0
 27 28  4  0  0  0  0
 28 29  4  0  0  0  0
 28 48  1  0  0  0  0
 29 49  1  0  0  0  0
M  END
> <ConfClashScore>
0 

> <ConfOneFourInteractionScore>
-0.991755 

> <ConfScore>
0.131157 

> <ConfScorePBest>
0.00186057 

> <ConfTolerance>
0.518133 

> <HETNAM>
     OWQ A 303  OWQ                                                       

> <pdb_OW>
Q_303 -16.5129 3.80749 7.62812 0.15963 1.39178 -0.28144 -3.20151 0 0 0 -1.30514 0 0 0 0 0 0 0 0 -8.31393

$$$$
6yky_lig_1.pdb
 OpenBabel04162415593D

 49 53  0  0  0  0  0  0  0  0999 V2000
   25.1047    1.8136  -65.3760 C   0  0  0  1  0  0  0  0  0  0  0  0
   26.9167    0.5034  -65.9326 C   0  0  0  1  0  0  0  0  0  0  0  0
   25.4178    1.8283  -64.0982 N   0  0  0  1  0  0  0  0  0  0  0  0
   26.7286    1.4700  -61.1391 C   0  0  0  1  0  0  0  0  0  0  0  0
   25.8386    2.5237  -61.0525 C   0  0  0  1  0  0  0  0  0  0  0  0
   27.0073    1.5067  -58.7583 C   0  0  0  1  0  0  0  0  0  0  0  0
   27.3158    0.9624  -59.9906 C   0  0  0  1  0  0  0  0  0  0  0  0
   26.1145    2.5637  -58.6713 C   0  0  0  1  0  0  0  0  0  0  0  0
   25.5290    3.0696  -59.8165 C   0  0  0  1  0  0  0  0  0  0  0  0
   23.6785    2.6034  -67.2260 C   0  0  0  1  0  0  0  0  0  0  0  0
   22.3390    3.3182  -67.4641 C   0  0  0  1  0  0  0  0  0  0  0  0
   21.9551    2.8038  -68.8601 C   0  0  0  1  0  0  0  0  0  0  0  0
   23.2558    1.1901  -70.3997 C   0  0  0  1  0  0  0  0  0  0  0  0
   25.8296    1.1707  -66.2748 N   0  0  0  1  0  0  0  0  0  0  0  0
   27.2965    0.4857  -64.5857 C   0  0  0  1  0  0  0  0  0  0  0  0
   26.4936    1.1852  -63.6614 C   0  0  0  1  0  0  0  0  0  0  0  0
   27.0809    1.0062  -62.4395 N   0  0  0  1  0  0  0  0  0  0  0  0
   28.3159   -0.0766  -63.9004 N   0  0  0  1  0  0  0  0  0  0  0  0
   28.2164    0.2093  -62.6490 N   0  0  0  1  0  0  0  0  0  0  0  0
   25.7422    3.0390  -57.4591 O   0  0  0  1  0  0  0  0  0  0  0  0
   23.9767    2.4949  -65.7952 N   0  0  0  1  0  0  0  0  0  0  0  0
   24.8386    4.1552  -57.4413 C   0  0  0  1  0  0  0  0  0  0  0  0
   22.9129    1.6941  -69.1474 N   0  0  0  1  0  0  0  0  0  0  0  0
   23.4231    1.2388  -67.8409 C   0  0  0  1  0  0  0  0  0  0  0  0
   22.5584    0.1293  -70.9476 C   0  0  0  1  0  0  0  0  0  0  0  0
   22.9294   -0.3370  -72.1944 C   0  0  0  1  0  0  0  0  0  0  0  0
   23.9352    0.1832  -72.9041 N   0  0  0  1  0  0  0  0  0  0  0  0
   24.6055    1.2084  -72.3591 C   0  0  0  1  0  0  0  0  0  0  0  0
   24.2991    1.7401  -71.1185 C   0  0  0  1  0  0  0  0  0  0  0  0
   27.4789    0.0014  -66.6492 H   0  0  0  1  0  0  0  0  0  0  0  0
   25.4011    2.9071  -61.9146 H   0  0  0  1  0  0  0  0  0  0  0  0
   27.4448    1.1233  -57.8962 H   0  0  0  1  0  0  0  0  0  0  0  0
   27.9887    0.1721  -60.0563 H   0  0  0  1  0  0  0  0  0  0  0  0
   24.8563    3.8599  -59.7509 H   0  0  0  1  0  0  0  0  0  0  0  0
   24.4817    3.1083  -67.7209 H   0  0  0  1  0  0  0  0  0  0  0  0
   21.6115    3.0374  -66.7315 H   0  0  0  1  0  0  0  0  0  0  0  0
   22.4582    4.3816  -67.4597 H   0  0  0  1  0  0  0  0  0  0  0  0
   20.9488    2.4403  -68.8620 H   0  0  0  1  0  0  0  0  0  0  0  0
   22.0548    3.5827  -69.5870 H   0  0  0  1  0  0  0  0  0  0  0  0
   23.3777    2.9044  -65.1365 H   0  0  0  1  0  0  0  0  0  0  0  0
   24.9171    4.6631  -56.5028 H   0  0  0  1  0  0  0  0  0  0  0  0
   23.8365    3.8047  -57.5742 H   0  0  0  1  0  0  0  0  0  0  0  0
   25.0893    4.8293  -58.2335 H   0  0  0  1  0  0  0  0  0  0  0  0
   24.3197    0.6624  -67.9346 H   0  0  0  1  0  0  0  0  0  0  0  0
   22.6937    0.6783  -67.2943 H   0  0  0  1  0  0  0  0  0  0  0  0
   21.7695   -0.3094  -70.4310 H   0  0  0  1  0  0  0  0  0  0  0  0
   22.3988   -1.1335  -72.6012 H   0  0  0  1  0  0  0  0  0  0  0  0
   25.3941    1.6244  -72.8945 H   0  0  0  1  0  0  0  0  0  0  0  0
   24.8440    2.5385  -70.7349 H   0  0  0  1  0  0  0  0  0  0  0  0
  1  3  4  0  0  0  0
  1 14  4  0  0  0  0
  1 21  1  0  0  0  0
  2 14  4  0  0  0  0
  2 15  4  0  0  0  0
  2 30  1  0  0  0  0
  3 16  4  0  0  0  0
  4  5  4  0  0  0  0
  4  7  4  0  0  0  0
  4 17  1  0  0  0  0
  5  9  4  0  0  0  0
  5 31  1  0  0  0  0
  6  7  4  0  0  0  0
  6  8  4  0  0  0  0
  6 32  1  0  0  0  0
  7 33  1  0  0  0  0
  8  9  4  0  0  0  0
  8 20  1  0  0  0  0
  9 34  1  0  0  0  0
 10 11  1  0  0  0  0
 10 21  1  0  0  0  0
 10 24  1  0  0  0  0
 10 35  1  0  0  0  0
 11 12  1  0  0  0  0
 11 36  1  0  0  0  0
 11 37  1  0  0  0  0
 12 23  1  0  0  0  0
 12 38  1  0  0  0  0
 12 39  1  0  0  0  0
 13 23  1  0  0  0  0
 13 25  4  0  0  0  0
 13 29  4  0  0  0  0
 15 16  4  0  0  0  0
 15 18  4  0  0  0  0
 16 17  4  0  0  0  0
 17 19  4  0  0  0  0
 18 19  4  0  0  0  0
 20 22  1  0  0  0  0
 21 40  1  0  0  0  0
 22 41  1  0  0  0  0
 22 42  1  0  0  0  0
 22 43  1  0  0  0  0
 23 24  1  0  0  0  0
 24 44  1  0  0  0  0
 24 45  1  0  0  0  0
 25 26  4  0  0  0  0
 25 46  1  0  0  0  0
 26 27  4  0  0  0  0
 26 47  1  0  0  0  0
 27 28  4  0  0  0  0
 28 29  4  0  0  0  0
 28 48  1  0  0  0  0
 29 49  1  0  0  0  0
M  END
> <ConfClashScore>
0 

> <ConfOneFourInteractionScore>
-0.984874 

> <ConfScore>
0.131971 

> <ConfScorePBest>
0.00184724 

> <ConfTolerance>
0.37616 

> <HETNAM>
     OWQ A 303  OWQ                                                       

> <pdb_OW>
Q_303 -16.5129 3.80749 7.62812 0.15963 1.39178 -0.28144 -3.20151 0 0 0 -1.30514 0 0 0 0 0 0 0 0 -8.31393

$$$$
6yky_lig_1.pdb
 OpenBabel04162415593D

 49 53  0  0  0  0  0  0  0  0999 V2000
   25.1048    1.8136  -65.3760 C   0  0  0  1  0  0  0  0  0  0  0  0
   26.9167    0.5034  -65.9326 C   0  0  0  1  0  0  0  0  0  0  0  0
   25.4178    1.8284  -64.0983 N   0  0  0  1  0  0  0  0  0  0  0  0
   26.8455    1.6302  -61.1804 C   0  0  0  1  0  0  0  0  0  0  0  0
   26.1070    2.7965  -61.1135 C   0  0  0  1  0  0  0  0  0  0  0  0
   27.2810    1.7682  -58.8270 C   0  0  0  1  0  0  0  0  0  0  0  0
   27.4355    1.1166  -60.0360 C   0  0  0  1  0  0  0  0  0  0  0  0
   26.5404    2.9380  -58.7597 C   0  0  0  1  0  0  0  0  0  0  0  0
   25.9521    3.4499  -59.9008 C   0  0  0  1  0  0  0  0  0  0  0  0
   23.4546    2.4928  -67.1413 C   0  0  0  1  0  0  0  0  0  0  0  0
   21.9310    2.7472  -67.1189 C   0  0  0  1  0  0  0  0  0  0  0  0
   21.3042    1.8406  -68.1480 C   0  0  0  1  0  0  0  0  0  0  0  0
   22.3221   -0.2723  -69.2683 C   0  0  0  1  0  0  0  0  0  0  0  0
   25.8297    1.1708  -66.2748 N   0  0  0  1  0  0  0  0  0  0  0  0
   27.2965    0.4857  -64.5857 C   0  0  0  1  0  0  0  0  0  0  0  0
   26.4937    1.1852  -63.6615 C   0  0  0  1  0  0  0  0  0  0  0  0
   27.0810    1.0061  -62.4395 N   0  0  0  1  0  0  0  0  0  0  0  0
   28.3159   -0.0766  -63.9004 N   0  0  0  1  0  0  0  0  0  0  0  0
   28.2164    0.2092  -62.6491 N   0  0  0  1  0  0  0  0  0  0  0  0
   26.4325    3.5268  -57.5527 O   0  0  0  1  0  0  0  0  0  0  0  0
   24.0075    2.4763  -65.7838 N   0  0  0  1  0  0  0  0  0  0  0  0
   25.4938    4.6256  -57.4894 C   0  0  0  1  0  0  0  0  0  0  0  0
   22.4562    0.8471  -68.4140 N   0  0  0  1  0  0  0  0  0  0  0  0
   23.5550    1.1257  -67.7888 C   0  0  0  1  0  0  0  0  0  0  0  0
   21.1549   -0.4030  -69.9977 C   0  0  0  1  0  0  0  0  0  0  0  0
   21.0148   -1.4907  -70.8384 C   0  0  0  1  0  0  0  0  0  0  0  0
   21.9520   -2.4323  -70.9842 N   0  0  0  1  0  0  0  0  0  0  0  0
   23.0768   -2.2953  -70.2678 C   0  0  0  1  0  0  0  0  0  0  0  0
   23.3017   -1.2364  -69.4056 C   0  0  0  1  0  0  0  0  0  0  0  0
   27.4790    0.0014  -66.6491 H   0  0  0  1  0  0  0  0  0  0  0  0
   25.6676    3.1839  -61.9727 H   0  0  0  1  0  0  0  0  0  0  0  0
   27.7203    1.3807  -57.9676 H   0  0  0  1  0  0  0  0  0  0  0  0
   27.9945    0.2411  -60.0873 H   0  0  0  1  0  0  0  0  0  0  0  0
   25.3931    4.3254  -59.8497 H   0  0  0  1  0  0  0  0  0  0  0  0
   23.9608    3.2337  -67.7241 H   0  0  0  1  0  0  0  0  0  0  0  0
   21.7279    3.7694  -67.3609 H   0  0  0  1  0  0  0  0  0  0  0  0
   21.5380    2.5249  -66.1488 H   0  0  0  1  0  0  0  0  0  0  0  0
   21.0379    2.3783  -69.0339 H   0  0  0  1  0  0  0  0  0  0  0  0
   20.4403    1.3438  -67.7584 H   0  0  0  1  0  0  0  0  0  0  0  0
   23.5307    2.9998  -65.1063 H   0  0  0  1  0  0  0  0  0  0  0  0
   25.4718    5.0197  -56.4948 H   0  0  0  1  0  0  0  0  0  0  0  0
   24.5182    4.2768  -57.7563 H   0  0  0  1  0  0  0  0  0  0  0  0
   25.7973    5.3933  -58.1701 H   0  0  0  1  0  0  0  0  0  0  0  0
   23.7286    0.3883  -67.0331 H   0  0  0  1  0  0  0  0  0  0  0  0
   24.3681    1.1227  -68.4843 H   0  0  0  1  0  0  0  0  0  0  0  0
   20.3965    0.3039  -69.9150 H   0  0  0  1  0  0  0  0  0  0  0  0
   20.1351   -1.5811  -71.3858 H   0  0  0  1  0  0  0  0  0  0  0  0
   23.8164   -3.0200  -70.3647 H   0  0  0  1  0  0  0  0  0  0  0  0
   24.1912   -1.1680  -68.8711 H   0  0  0  1  0  0  0  0  0  0  0  0
  1  3  4  0  0  0  0
  1 14  4  0  0  0  0
  1 21  1  0  0  0  0
  2 14  4  0  0  0  0
  2 15  4  0  0  0  0
  2 30  1  0  0  0  0
  3 16  4  0  0  0  0
  4  5  4  0  0  0  0
  4  7  4  0  0  0  0
  4 17  1  0  0  0  0
  5  9  4  0  0  0  0
  5 31  1  0  0  0  0
  6  7  4  0  0  0  0
  6  8  4  0  0  0  0
  6 32  1  0  0  0  0
  7 33  1  0  0  0  0
  8  9  4  0  0  0  0
  8 20  1  0  0  0  0
  9 34  1  0  0  0  0
 10 11  1  0  0  0  0
 10 21  1  0  0  0  0
 10 24  1  0  0  0  0
 10 35  1  0  0  0  0
 11 12  1  0  0  0  0
 11 36  1  0  0  0  0
 11 37  1  0  0  0  0
 12 23  1  0  0  0  0
 12 38  1  0  0  0  0
 12 39  1  0  0  0  0
 13 23  1  0  0  0  0
 13 25  4  0  0  0  0
 13 29  4  0  0  0  0
 15 16  4  0  0  0  0
 15 18  4  0  0  0  0
 16 17  4  0  0  0  0
 17 19  4  0  0  0  0
 18 19  4  0  0  0  0
 20 22  1  0  0  0  0
 21 40  1  0  0  0  0
 22 41  1  0  0  0  0
 22 42  1  0  0  0  0
 22 43  1  0  0  0  0
 23 24  1  0  0  0  0
 24 44  1  0  0  0  0
 24 45  1  0  0  0  0
 25 26  4  0  0  0  0
 25 46  1  0  0  0  0
 26 27  4  0  0  0  0
 26 47  1  0  0  0  0
 27 28  4  0  0  0  0
 28 29  4  0  0  0  0
 28 48  1  0  0  0  0
 29 49  1  0  0  0  0
M  END
> <ConfClashScore>
0 

> <ConfOneFourInteractionScore>
-0.982045 

> <ConfScore>
0.132327 

> <ConfScorePBest>
0.00183391 

> <ConfTolerance>
0.699704 

> <HETNAM>
     OWQ A 303  OWQ                                                       

> <pdb_OW>
Q_303 -16.5129 3.80749 7.62812 0.15963 1.39178 -0.28144 -3.20151 0 0 0 -1.30514 0 0 0 0 0 0 0 0 -8.31393

$$$$
6yky_lig_1.pdb
 OpenBabel04162415593D

 49 53  0  0  0  0  0  0  0  0999 V2000
   25.1047    1.8136  -65.3759 C   0  0  0  1  0  0  0  0  0  0  0  0
   26.9167    0.5034  -65.9326 C   0  0  0  1  0  0  0  0  0  0  0  0
   25.4177    1.8283  -64.0982 N   0  0  0  1  0  0  0  0  0  0  0  0
   26.7286    1.4698  -61.1390 C   0  0  0  1  0  0  0  0  0  0  0  0
   26.8313    0.6235  -60.0512 C   0  0  0  1  0  0  0  0  0  0  0  0
   25.7717    3.1614  -59.7354 C   0  0  0  1  0  0  0  0  0  0  0  0
   26.1955    2.7397  -60.9815 C   0  0  0  1  0  0  0  0  0  0  0  0
   25.8747    2.3127  -58.6442 C   0  0  0  1  0  0  0  0  0  0  0  0
   26.4062    1.0465  -58.8016 C   0  0  0  1  0  0  0  0  0  0  0  0
   23.1986    3.3295  -64.9173 C   0  0  0  1  0  0  0  0  0  0  0  0
   24.0697    4.3635  -64.1862 C   0  0  0  1  0  0  0  0  0  0  0  0
   23.1982    4.6978  -62.9657 C   0  0  0  1  0  0  0  0  0  0  0  0
   20.8710    3.7776  -62.3488 C   0  0  0  1  0  0  0  0  0  0  0  0
   25.8296    1.1707  -66.2746 N   0  0  0  1  0  0  0  0  0  0  0  0
   27.2965    0.4858  -64.5857 C   0  0  0  1  0  0  0  0  0  0  0  0
   26.4936    1.1852  -63.6614 C   0  0  0  1  0  0  0  0  0  0  0  0
   27.0809    1.0061  -62.4395 N   0  0  0  1  0  0  0  0  0  0  0  0
   28.3158   -0.0766  -63.9004 N   0  0  0  1  0  0  0  0  0  0  0  0
   28.2164    0.2092  -62.6490 N   0  0  0  1  0  0  0  0  0  0  0  0
   25.5451    2.7536  -57.4106 O   0  0  0  1  0  0  0  0  0  0  0  0
   24.0033    2.4787  -65.7851 N   0  0  0  1  0  0  0  0  0  0  0  0
   24.8906    4.0236  -57.2651 C   0  0  0  1  0  0  0  0  0  0  0  0
   22.1083    3.6764  -62.9690 N   0  0  0  1  0  0  0  0  0  0  0  0
   22.6091    2.5389  -63.7628 C   0  0  0  1  0  0  0  0  0  0  0  0
   19.7554    4.1752  -63.0622 C   0  0  0  1  0  0  0  0  0  0  0  0
   18.5420    4.2589  -62.4063 C   0  0  0  1  0  0  0  0  0  0  0  0
   18.3870    3.9773  -61.1090 N   0  0  0  1  0  0  0  0  0  0  0  0
   19.4778    3.5972  -60.4286 C   0  0  0  1  0  0  0  0  0  0  0  0
   20.7300    3.4832  -61.0067 C   0  0  0  1  0  0  0  0  0  0  0  0
   27.4789    0.0015  -66.6492 H   0  0  0  1  0  0  0  0  0  0  0  0
   27.2275   -0.3307  -60.1702 H   0  0  0  1  0  0  0  0  0  0  0  0
   25.3755    4.1156  -59.6164 H   0  0  0  1  0  0  0  0  0  0  0  0
   26.1146    3.3750  -61.8009 H   0  0  0  1  0  0  0  0  0  0  0  0
   26.4871    0.4112  -57.9822 H   0  0  0  1  0  0  0  0  0  0  0  0
   22.4327    3.8049  -65.4937 H   0  0  0  1  0  0  0  0  0  0  0  0
   24.2398    5.2285  -64.7924 H   0  0  0  1  0  0  0  0  0  0  0  0
   25.0087    3.9436  -63.8914 H   0  0  0  1  0  0  0  0  0  0  0  0
   22.7894    5.6825  -63.0555 H   0  0  0  1  0  0  0  0  0  0  0  0
   23.7724    4.6302  -62.0654 H   0  0  0  1  0  0  0  0  0  0  0  0
   23.7286    2.3838  -66.7210 H   0  0  0  1  0  0  0  0  0  0  0  0
   24.6729    4.1969  -56.2319 H   0  0  0  1  0  0  0  0  0  0  0  0
   23.9792    4.0212  -57.8257 H   0  0  0  1  0  0  0  0  0  0  0  0
   25.5319    4.7989  -57.6292 H   0  0  0  1  0  0  0  0  0  0  0  0
   21.8215    1.8873  -64.0785 H   0  0  0  1  0  0  0  0  0  0  0  0
   23.3511    1.9742  -63.2379 H   0  0  0  1  0  0  0  0  0  0  0  0
   19.8281    4.4070  -64.0735 H   0  0  0  1  0  0  0  0  0  0  0  0
   17.7068    4.5562  -62.9499 H   0  0  0  1  0  0  0  0  0  0  0  0
   19.3781    3.3774  -59.4169 H   0  0  0  1  0  0  0  0  0  0  0  0
   21.5492    3.1817  -60.4415 H   0  0  0  1  0  0  0  0  0  0  0  0
  1  3  4  0  0  0  0
  1 14  4  0  0  0  0
  1 21  1  0  0  0  0
  2 14  4  0  0  0  0
  2 15  4  0  0  0  0
  2 30  1  0  0  0  0
  3 16  4  0  0  0  0
  4  5  4  0  0  0  0
  4  7  4  0  0  0  0
  4 17  1  0  0  0  0
  5  9  4  0  0  0  0
  5 31  1  0  0  0  0
  6  7  4  0  0  0  0
  6  8  4  0  0  0  0
  6 32  1  0  0  0  0
  7 33  1  0  0  0  0
  8  9  4  0  0  0  0
  8 20  1  0  0  0  0
  9 34  1  0  0  0  0
 10 11  1  0  0  0  0
 10 21  1  0  0  0  0
 10 24  1  0  0  0  0
 10 35  1  0  0  0  0
 11 12  1  0  0  0  0
 11 36  1  0  0  0  0
 11 37  1  0  0  0  0
 12 23  1  0  0  0  0
 12 38  1  0  0  0  0
 12 39  1  0  0  0  0
 13 23  1  0  0  0  0
 13 25  4  0  0  0  0
 13 29  4  0  0  0  0
 15 16  4  0  0  0  0
 15 18  4  0  0  0  0
 16 17  4  0  0  0  0
 17 19  4  0  0  0  0
 18 19  4  0  0  0  0
 20 22  1  0  0  0  0
 21 40  1  0  0  0  0
 22 41  1  0  0  0  0
 22 42  1  0  0  0  0
 22 43  1  0  0  0  0
 23 24  1  0  0  0  0
 24 44  1  0  0  0  0
 24 45  1  0  0  0  0
 25 26  4  0  0  0  0
 25 46  1  0  0  0  0
 26 27  4  0  0  0  0
 26 47  1  0  0  0  0
 27 28  4  0  0  0  0
 28 29  4  0  0  0  0
 28 48  1  0  0  0  0
 29 49  1  0  0  0  0
M  END
> <ConfClashScore>
0 

> <ConfOneFourInteractionScore>
-0.983503 

> <ConfScore>
0.137815 

> <ConfScorePBest>
0.00182058 

> <ConfTolerance>
0.36304 

> <HETNAM>
     OWQ A 303  OWQ                                                       

> <pdb_OW>
Q_303 -16.5129 3.80749 7.62812 0.15963 1.39178 -0.28144 -3.20151 0 0 0 -1.30514 0 0 0 0 0 0 0 0 -8.31393

$$$$
6yky_lig_1.pdb
 OpenBabel04162415593D

 49 53  0  0  0  0  0  0  0  0999 V2000
   25.1046    1.8133  -65.3760 C   0  0  0  1  0  0  0  0  0  0  0  0
   26.9167    0.5034  -65.9326 C   0  0  0  1  0  0  0  0  0  0  0  0
   25.4176    1.8281  -64.0982 N   0  0  0  1  0  0  0  0  0  0  0  0
   26.8197    1.5224  -61.1374 C   0  0  0  1  0  0  0  0  0  0  0  0
   26.8522    2.8942  -60.9723 C   0  0  0  1  0  0  0  0  0  0  0  0
   26.4707    1.2451  -58.7819 C   0  0  0  1  0  0  0  0  0  0  0  0
   26.6313    0.6964  -60.0402 C   0  0  0  1  0  0  0  0  0  0  0  0
   26.5032    2.6210  -58.6162 C   0  0  0  1  0  0  0  0  0  0  0  0
   26.6910    3.4443  -59.7103 C   0  0  0  1  0  0  0  0  0  0  0  0
   23.1610    3.2304  -64.8600 C   0  0  0  1  0  0  0  0  0  0  0  0
   24.0020    4.2393  -64.0468 C   0  0  0  1  0  0  0  0  0  0  0  0
   23.5014    4.2058  -62.6248 C   0  0  0  1  0  0  0  0  0  0  0  0
   22.0730    2.3920  -61.4934 C   0  0  0  1  0  0  0  0  0  0  0  0
   25.8296    1.1706  -66.2747 N   0  0  0  1  0  0  0  0  0  0  0  0
   27.2964    0.4857  -64.5857 C   0  0  0  1  0  0  0  0  0  0  0  0
   26.4935    1.1850  -63.6613 C   0  0  0  1  0  0  0  0  0  0  0  0
   27.0809    1.0060  -62.4395 N   0  0  0  1  0  0  0  0  0  0  0  0
   28.3159   -0.0766  -63.9004 N   0  0  0  1  0  0  0  0  0  0  0  0
   28.2164    0.2092  -62.6490 N   0  0  0  1  0  0  0  0  0  0  0  0
   26.3402    3.0413  -57.3392 O   0  0  0  1  0  0  0  0  0  0  0  0
   23.9917    2.4853  -65.7894 N   0  0  0  1  0  0  0  0  0  0  0  0
   26.2651    4.4585  -57.1195 C   0  0  0  1  0  0  0  0  0  0  0  0
   22.6756    2.9008  -62.6282 N   0  0  0  1  0  0  0  0  0  0  0  0
   22.5960    2.3237  -63.7843 C   0  0  0  1  0  0  0  0  0  0  0  0
   22.2779    2.9177  -60.2311 C   0  0  0  1  0  0  0  0  0  0  0  0
   21.6262    2.3413  -59.1574 C   0  0  0  1  0  0  0  0  0  0  0  0
   20.8047    1.2934  -59.2727 N   0  0  0  1  0  0  0  0  0  0  0  0
   20.6187    0.7913  -60.5016 C   0  0  0  1  0  0  0  0  0  0  0  0
   21.2277    1.3084  -61.6317 C   0  0  0  1  0  0  0  0  0  0  0  0
   27.4789    0.0013  -66.6492 H   0  0  0  1  0  0  0  0  0  0  0  0
   26.9975    3.5137  -61.7949 H   0  0  0  1  0  0  0  0  0  0  0  0
   26.3253    0.6256  -57.9593 H   0  0  0  1  0  0  0  0  0  0  0  0
   26.6110   -0.3359  -60.1640 H   0  0  0  1  0  0  0  0  0  0  0  0
   26.7114    4.4767  -59.5866 H   0  0  0  1  0  0  0  0  0  0  0  0
   22.3789    3.7249  -65.3974 H   0  0  0  1  0  0  0  0  0  0  0  0
   23.8848    5.2227  -64.4521 H   0  0  0  1  0  0  0  0  0  0  0  0
   25.0349    3.9615  -64.0768 H   0  0  0  1  0  0  0  0  0  0  0  0
   22.8899    5.0559  -62.4044 H   0  0  0  1  0  0  0  0  0  0  0  0
   24.3098    4.1564  -61.9256 H   0  0  0  1  0  0  0  0  0  0  0  0
   23.7466    2.4648  -66.7380 H   0  0  0  1  0  0  0  0  0  0  0  0
   25.5247    4.6659  -56.3754 H   0  0  0  1  0  0  0  0  0  0  0  0
   25.9986    4.9473  -58.0333 H   0  0  0  1  0  0  0  0  0  0  0  0
   27.2160    4.8183  -56.7861 H   0  0  0  1  0  0  0  0  0  0  0  0
   21.5705    2.1112  -64.0036 H   0  0  0  1  0  0  0  0  0  0  0  0
   23.1533    1.4105  -63.7630 H   0  0  0  1  0  0  0  0  0  0  0  0
   22.9104    3.7314  -60.0923 H   0  0  0  1  0  0  0  0  0  0  0  0
   21.7832    2.7435  -58.2112 H   0  0  0  1  0  0  0  0  0  0  0  0
   19.9857   -0.0267  -60.6113 H   0  0  0  1  0  0  0  0  0  0  0  0
   21.0524    0.8891  -62.5671 H   0  0  0  1  0  0  0  0  0  0  0  0
  1  3  4  0  0  0  0
  1 14  4  0  0  0  0
  1 21  1  0  0  0  0
  2 14  4  0  0  0  0
  2 15  4  0  0  0  0
  2 30  1  0  0  0  0
  3 16  4  0  0  0  0
  4  5  4  0  0  0  0
  4  7  4  0  0  0  0
  4 17  1  0  0  0  0
  5  9  4  0  0  0  0
  5 31  1  0  0  0  0
  6  7  4  0  0  0  0
  6  8  4  0  0  0  0
  6 32  1  0  0  0  0
  7 33  1  0  0  0  0
  8  9  4  0  0  0  0
  8 20  1  0  0  0  0
  9 34  1  0  0  0  0
 10 11  1  0  0  0  0
 10 21  1  0  0  0  0
 10 24  1  0  0  0  0
 10 35  1  0  0  0  0
 11 12  1  0  0  0  0
 11 36  1  0  0  0  0
 11 37  1  0  0  0  0
 12 23  1  0  0  0  0
 12 38  1  0  0  0  0
 12 39  1  0  0  0  0
 13 23  1  0  0  0  0
 13 25  4  0  0  0  0
 13 29  4  0  0  0  0
 15 16  4  0  0  0  0
 15 18  4  0  0  0  0
 16 17  4  0  0  0  0
 17 19  4  0  0  0  0
 18 19  4  0  0  0  0
 20 22  1  0  0  0  0
 21 40  1  0  0  0  0
 22 41  1  0  0  0  0
 22 42  1  0  0  0  0
 22 43  1  0  0  0  0
 23 24  1  0  0  0  0
 24 44  1  0  0  0  0
 24 45  1  0  0  0  0
 25 26  4  0  0  0  0
 25 46  1  0  0  0  0
 26 27  4  0  0  0  0
 26 47  1  0  0  0  0
 27 28  4  0  0  0  0
 28 29  4  0  0  0  0
 28 48  1  0  0  0  0
 29 49  1  0  0  0  0
M  END
> <ConfClashScore>
0 

> <ConfOneFourInteractionScore>
-0.983503 

> <ConfScore>
0.142744 

> <ConfScorePBest>
0.00180726 

> <ConfTolerance>
0.780195 

> <HETNAM>
     OWQ A 303  OWQ                                                       

> <pdb_OW>
Q_303 -16.5129 3.80749 7.62812 0.15963 1.39178 -0.28144 -3.20151 0 0 0 -1.30514 0 0 0 0 0 0 0 0 -8.31393

$$$$
6yky_lig_1.pdb
 OpenBabel04162415593D

 49 53  0  0  0  0  0  0  0  0999 V2000
   25.1047    1.8134  -65.3760 C   0  0  0  1  0  0  0  0  0  0  0  0
   26.9167    0.5034  -65.9325 C   0  0  0  1  0  0  0  0  0  0  0  0
   25.4178    1.8283  -64.0982 N   0  0  0  1  0  0  0  0  0  0  0  0
   26.8116    1.5872  -61.1667 C   0  0  0  1  0  0  0  0  0  0  0  0
   27.2749    2.8558  -60.8731 C   0  0  0  1  0  0  0  0  0  0  0  0
   25.9796    1.3708  -58.9287 C   0  0  0  1  0  0  0  0  0  0  0  0
   26.1654    0.8425  -60.1923 C   0  0  0  1  0  0  0  0  0  0  0  0
   26.4442    2.6432  -58.6342 C   0  0  0  1  0  0  0  0  0  0  0  0
   27.0885    3.3856  -59.6059 C   0  0  0  1  0  0  0  0  0  0  0  0
   23.6070    2.6100  -67.1765 C   0  0  0  1  0  0  0  0  0  0  0  0
   22.1318    3.0233  -67.2999 C   0  0  0  1  0  0  0  0  0  0  0  0
   21.7867    2.5286  -68.7130 C   0  0  0  1  0  0  0  0  0  0  0  0
   23.3120    1.3497  -70.4209 C   0  0  0  1  0  0  0  0  0  0  0  0
   25.8297    1.1707  -66.2748 N   0  0  0  1  0  0  0  0  0  0  0  0
   27.2965    0.4858  -64.5857 C   0  0  0  1  0  0  0  0  0  0  0  0
   26.4936    1.1851  -63.6614 C   0  0  0  1  0  0  0  0  0  0  0  0
   27.0809    1.0061  -62.4395 N   0  0  0  1  0  0  0  0  0  0  0  0
   28.3158   -0.0766  -63.9004 N   0  0  0  1  0  0  0  0  0  0  0  0
   28.2164    0.2092  -62.6490 N   0  0  0  1  0  0  0  0  0  0  0  0
   26.3256    3.2602  -57.4383 O   0  0  0  1  0  0  0  0  0  0  0  0
   24.0033    2.4786  -65.7853 N   0  0  0  1  0  0  0  0  0  0  0  0
   25.6402    2.5962  -56.3650 C   0  0  0  1  0  0  0  0  0  0  0  0
   22.9448    1.6807  -69.1265 N   0  0  0  1  0  0  0  0  0  0  0  0
   23.6195    1.2658  -67.8825 C   0  0  0  1  0  0  0  0  0  0  0  0
   22.8582    0.1819  -71.0056 C   0  0  0  1  0  0  0  0  0  0  0  0
   23.2456   -0.1075  -72.3001 C   0  0  0  1  0  0  0  0  0  0  0  0
   24.0438    0.6844  -73.0227 N   0  0  0  1  0  0  0  0  0  0  0  0
   24.4798    1.8112  -72.4418 C   0  0  0  1  0  0  0  0  0  0  0  0
   24.1386    2.1801  -71.1523 C   0  0  0  1  0  0  0  0  0  0  0  0
   27.4789    0.0014  -66.6492 H   0  0  0  1  0  0  0  0  0  0  0  0
   27.7633    3.4129  -61.6031 H   0  0  0  1  0  0  0  0  0  0  0  0
   25.4912    0.8137  -58.1989 H   0  0  0  1  0  0  0  0  0  0  0  0
   25.8204   -0.1137  -60.4121 H   0  0  0  1  0  0  0  0  0  0  0  0
   27.4335    4.3417  -59.3862 H   0  0  0  1  0  0  0  0  0  0  0  0
   24.2493    3.3119  -67.6660 H   0  0  0  1  0  0  0  0  0  0  0  0
   22.0159    4.0839  -67.2190 H   0  0  0  1  0  0  0  0  0  0  0  0
   21.5285    2.5405  -66.5596 H   0  0  0  1  0  0  0  0  0  0  0  0
   21.6702    3.3557  -69.3816 H   0  0  0  1  0  0  0  0  0  0  0  0
   20.8859    1.9514  -68.6984 H   0  0  0  1  0  0  0  0  0  0  0  0
   23.4378    2.8976  -65.1032 H   0  0  0  1  0  0  0  0  0  0  0  0
   26.1985    1.7346  -56.0636 H   0  0  0  1  0  0  0  0  0  0  0  0
   24.6686    2.2937  -56.6957 H   0  0  0  1  0  0  0  0  0  0  0  0
   25.5430    3.2656  -55.5360 H   0  0  0  1  0  0  0  0  0  0  0  0
   23.0643    0.5229  -67.3489 H   0  0  0  1  0  0  0  0  0  0  0  0
   24.6131    0.9105  -68.0597 H   0  0  0  1  0  0  0  0  0  0  0  0
   22.2368   -0.4665  -70.4810 H   0  0  0  1  0  0  0  0  0  0  0  0
   22.8983   -0.9864  -72.7343 H   0  0  0  1  0  0  0  0  0  0  0  0
   25.1051    2.4387  -72.9868 H   0  0  0  1  0  0  0  0  0  0  0  0
   24.4976    3.0657  -70.7419 H   0  0  0  1  0  0  0  0  0  0  0  0
  1  3  4  0  0  0  0
  1 14  4  0  0  0  0
  1 21  1  0  0  0  0
  2 14  4  0  0  0  0
  2 15  4  0  0  0  0
  2 30  1  0  0  0  0
  3 16  4  0  0  0  0
  4  5  4  0  0  0  0
  4  7  4  0  0  0  0
  4 17  1  0  0  0  0
  5  9  4  0  0  0  0
  5 31  1  0  0  0  0
  6  7  4  0  0  0  0
  6  8  4  0  0  0  0
  6 32  1  0  0  0  0
  7 33  1  0  0  0  0
  8  9  4  0  0  0  0
  8 20  1  0  0  0  0
  9 34  1  0  0  0  0
 10 11  1  0  0  0  0
 10 21  1  0  0  0  0
 10 24  1  0  0  0  0
 10 35  1  0  0  0  0
 11 12  1  0  0  0  0
 11 36  1  0  0  0  0
 11 37  1  0  0  0  0
 12 23  1  0  0  0  0
 12 38  1  0  0  0  0
 12 39  1  0  0  0  0
 13 23  1  0  0  0  0
 13 25  4  0  0  0  0
 13 29  4  0  0  0  0
 15 16  4  0  0  0  0
 15 18  4  0  0  0  0
 16 17  4  0  0  0  0
 17 19  4  0  0  0  0
 18 19  4  0  0  0  0
 20 22  1  0  0  0  0
 21 40  1  0  0  0  0
 22 41  1  0  0  0  0
 22 42  1  0  0  0  0
 22 43  1  0  0  0  0
 23 24  1  0  0  0  0
 24 44  1  0  0  0  0
 24 45  1  0  0  0  0
 25 26  4  0  0  0  0
 25 46  1  0  0  0  0
 26 27  4  0  0  0  0
 26 47  1  0  0  0  0
 27 28  4  0  0  0  0
 28 29  4  0  0  0  0
 28 48  1  0  0  0  0
 29 49  1  0  0  0  0
M  END
> <ConfClashScore>
0 

> <ConfOneFourInteractionScore>
-0.99264 

> <ConfScore>
0.14556 

> <ConfScorePBest>
0.00179393 

> <ConfTolerance>
0.488653 

> <HETNAM>
     OWQ A 303  OWQ                                                       

> <pdb_OW>
Q_303 -16.5129 3.80749 7.62812 0.15963 1.39178 -0.28144 -3.20151 0 0 0 -1.30514 0 0 0 0 0 0 0 0 -8.31393

$$$$
6yky_lig_1.pdb
 OpenBabel04162415593D

 49 53  0  0  0  0  0  0  0  0999 V2000
   25.1048    1.8136  -65.3759 C   0  0  0  1  0  0  0  0  0  0  0  0
   26.9167    0.5034  -65.9326 C   0  0  0  1  0  0  0  0  0  0  0  0
   25.4178    1.8284  -64.0982 N   0  0  0  1  0  0  0  0  0  0  0  0
   26.7286    1.4699  -61.1390 C   0  0  0  1  0  0  0  0  0  0  0  0
   25.5718    2.2035  -60.9558 C   0  0  0  1  0  0  0  0  0  0  0  0
   27.2977    1.7873  -58.8320 C   0  0  0  1  0  0  0  0  0  0  0  0
   27.5943    1.2637  -60.0762 C   0  0  0  1  0  0  0  0  0  0  0  0
   26.1374    2.5231  -58.6481 C   0  0  0  1  0  0  0  0  0  0  0  0
   25.2744    2.7285  -59.7080 C   0  0  0  1  0  0  0  0  0  0  0  0
   23.5826    2.7863  -67.1375 C   0  0  0  1  0  0  0  0  0  0  0  0
   24.7967    2.9450  -68.0796 C   0  0  0  1  0  0  0  0  0  0  0  0
   24.5160    4.1148  -68.9888 C   0  0  0  1  0  0  0  0  0  0  0  0
   22.7609    6.0222  -68.6846 C   0  0  0  1  0  0  0  0  0  0  0  0
   25.8297    1.1708  -66.2747 N   0  0  0  1  0  0  0  0  0  0  0  0
   27.2965    0.4858  -64.5856 C   0  0  0  1  0  0  0  0  0  0  0  0
   26.4936    1.1852  -63.6614 C   0  0  0  1  0  0  0  0  0  0  0  0
   27.0809    1.0062  -62.4395 N   0  0  0  1  0  0  0  0  0  0  0  0
   28.3158   -0.0766  -63.9004 N   0  0  0  1  0  0  0  0  0  0  0  0
   28.2164    0.2092  -62.6490 N   0  0  0  1  0  0  0  0  0  0  0  0
   25.9003    3.1183  -57.4551 O   0  0  0  1  0  0  0  0  0  0  0  0
   24.0075    2.4764  -65.7837 N   0  0  0  1  0  0  0  0  0  0  0  0
   24.6411    3.7902  -57.2958 C   0  0  0  1  0  0  0  0  0  0  0  0
   23.3410    4.7929  -68.2509 N   0  0  0  1  0  0  0  0  0  0  0  0
   22.9270    4.1515  -67.2054 C   0  0  0  1  0  0  0  0  0  0  0  0
   23.2260    6.6590  -69.8203 C   0  0  0  1  0  0  0  0  0  0  0  0
   22.6329    7.8458  -70.2070 C   0  0  0  1  0  0  0  0  0  0  0  0
   21.6284    8.4179  -69.5362 N   0  0  0  1  0  0  0  0  0  0  0  0
   21.1904    7.7919  -68.4346 C   0  0  0  1  0  0  0  0  0  0  0  0
   21.7239    6.5993  -67.9781 C   0  0  0  1  0  0  0  0  0  0  0  0
   27.4789    0.0014  -66.6491 H   0  0  0  1  0  0  0  0  0  0  0  0
   24.9243    2.3615  -61.7543 H   0  0  0  1  0  0  0  0  0  0  0  0
   27.9453    1.6292  -58.0335 H   0  0  0  1  0  0  0  0  0  0  0  0
   28.4669    0.7151  -60.2151 H   0  0  0  1  0  0  0  0  0  0  0  0
   24.4018    3.2771  -59.5691 H   0  0  0  1  0  0  0  0  0  0  0  0
   22.9201    2.0225  -67.4875 H   0  0  0  1  0  0  0  0  0  0  0  0
   24.9278    2.0553  -68.6593 H   0  0  0  1  0  0  0  0  0  0  0  0
   25.6812    3.1317  -67.5070 H   0  0  0  1  0  0  0  0  0  0  0  0
   25.3616    4.7664  -69.0616 H   0  0  0  1  0  0  0  0  0  0  0  0
   24.2295    3.7907  -69.9674 H   0  0  0  1  0  0  0  0  0  0  0  0
   23.4145    2.7929  -65.0707 H   0  0  0  1  0  0  0  0  0  0  0  0
   24.5609    4.1667  -56.2973 H   0  0  0  1  0  0  0  0  0  0  0  0
   23.8436    3.1017  -57.4822 H   0  0  0  1  0  0  0  0  0  0  0  0
   24.5805    4.6031  -57.9890 H   0  0  0  1  0  0  0  0  0  0  0  0
   23.1777    4.7082  -66.3267 H   0  0  0  1  0  0  0  0  0  0  0  0
   21.8653    4.0315  -67.2615 H   0  0  0  1  0  0  0  0  0  0  0  0
   24.0075    6.2525  -70.3733 H   0  0  0  1  0  0  0  0  0  0  0  0
   22.9864    8.3178  -71.0636 H   0  0  0  1  0  0  0  0  0  0  0  0
   20.4119    8.2236  -67.8969 H   0  0  0  1  0  0  0  0  0  0  0  0
   21.3510    6.1463  -67.1195 H   0  0  0  1  0  0  0  0  0  0  0  0
  1  3  4  0  0  0  0
  1 14  4  0  0  0  0
  1 21  1  0  0  0  0
  2 14  4  0  0  0  0
  2 15  4  0  0  0  0
  2 30  1  0  0  0  0
  3 16  4  0  0  0  0
  4  5  4  0  0  0  0
  4  7  4  0  0  0  0
  4 17  1  0  0  0  0
  5  9  4  0  0  0  0
  5 31  1  0  0  0  0
  6  7  4  0  0  0  0
  6  8  4  0  0  0  0
  6 32  1  0  0  0  0
  7 33  1  0  0  0  0
  8  9  4  0  0  0  0
  8 20  1  0  0  0  0
  9 34  1  0  0  0  0
 10 11  1  0  0  0  0
 10 21  1  0  0  0  0
 10 24  1  0  0  0  0
 10 35  1  0  0  0  0
 11 12  1  0  0  0  0
 11 36  1  0  0  0  0
 11 37  1  0  0  0  0
 12 23  1  0  0  0  0
 12 38  1  0  0  0  0
 12 39  1  0  0  0  0
 13 23  1  0  0  0  0
 13 25  4  0  0  0  0
 13 29  4  0  0  0  0
 15 16  4  0  0  0  0
 15 18  4  0  0  0  0
 16 17  4  0  0  0  0
 17 19  4  0  0  0  0
 18 19  4  0  0  0  0
 20 22  1  0  0  0  0
 21 40  1  0  0  0  0
 22 41  1  0  0  0  0
 22 42  1  0  0  0  0
 22 43  1  0  0  0  0
 23 24  1  0  0  0  0
 24 44  1  0  0  0  0
 24 45  1  0  0  0  0
 25 26  4  0  0  0  0
 25 46  1  0  0  0  0
 26 27  4  0  0  0  0
 26 47  1  0  0  0  0
 27 28  4  0  0  0  0
 28 29  4  0  0  0  0
 28 48  1  0  0  0  0
 29 49  1  0  0  0  0
M  END
> <ConfClashScore>
0 

> <ConfOneFourInteractionScore>
-0.982045 

> <ConfScore>
0.145654 

> <ConfScorePBest>
0.0017806 

> <ConfTolerance>
0.834142 

> <HETNAM>
     OWQ A 303  OWQ                                                       

> <pdb_OW>
Q_303 -16.5129 3.80749 7.62812 0.15963 1.39178 -0.28144 -3.20151 0 0 0 -1.30514 0 0 0 0 0 0 0 0 -8.31393

$$$$
6yky_lig_1.pdb
 OpenBabel04162415593D

 49 53  0  0  0  0  0  0  0  0999 V2000
   25.1048    1.8136  -65.3760 C   0  0  0  1  0  0  0  0  0  0  0  0
   26.9167    0.5034  -65.9326 C   0  0  0  1  0  0  0  0  0  0  0  0
   25.4178    1.8283  -64.0982 N   0  0  0  1  0  0  0  0  0  0  0  0
   26.6855    1.4949  -61.1609 C   0  0  0  1  0  0  0  0  0  0  0  0
   27.0752    2.7560  -60.7513 C   0  0  0  1  0  0  0  0  0  0  0  0
   25.6792    1.1081  -59.0196 C   0  0  0  1  0  0  0  0  0  0  0  0
   25.9887    0.6686  -60.2929 C   0  0  0  1  0  0  0  0  0  0  0  0
   26.0700    2.3730  -58.6086 C   0  0  0  1  0  0  0  0  0  0  0  0
   26.7647    3.1967  -59.4742 C   0  0  0  1  0  0  0  0  0  0  0  0
   23.0694    3.1305  -64.8837 C   0  0  0  1  0  0  0  0  0  0  0  0
   22.1428    4.0945  -65.6416 C   0  0  0  1  0  0  0  0  0  0  0  0
   21.7112    5.0556  -64.5233 C   0  0  0  1  0  0  0  0  0  0  0  0
   22.3515    5.0247  -61.9916 C   0  0  0  1  0  0  0  0  0  0  0  0
   25.8297    1.1707  -66.2748 N   0  0  0  1  0  0  0  0  0  0  0  0
   27.2965    0.4858  -64.5857 C   0  0  0  1  0  0  0  0  0  0  0  0
   26.4936    1.1852  -63.6614 C   0  0  0  1  0  0  0  0  0  0  0  0
   27.0809    1.0061  -62.4395 N   0  0  0  1  0  0  0  0  0  0  0  0
   28.3158   -0.0766  -63.9004 N   0  0  0  1  0  0  0  0  0  0  0  0
   28.2164    0.2092  -62.6490 N   0  0  0  1  0  0  0  0  0  0  0  0
   25.7159    2.6909  -57.3408 O   0  0  0  1  0  0  0  0  0  0  0  0
   24.0034    2.4786  -65.7853 N   0  0  0  1  0  0  0  0  0  0  0  0
   26.3469    3.8385  -56.7514 C   0  0  0  1  0  0  0  0  0  0  0  0
   22.6007    4.7374  -63.3662 N   0  0  0  1  0  0  0  0  0  0  0  0
   23.7877    4.0670  -63.9284 C   0  0  0  1  0  0  0  0  0  0  0  0
   22.4913    6.2884  -61.4483 C   0  0  0  1  0  0  0  0  0  0  0  0
   22.2226    6.4677  -60.1047 C   0  0  0  1  0  0  0  0  0  0  0  0
   21.8348    5.4781  -59.2944 N   0  0  0  1  0  0  0  0  0  0  0  0
   21.7075    4.2572  -59.8335 C   0  0  0  1  0  0  0  0  0  0  0  0
   21.9524    3.9894  -61.1690 C   0  0  0  1  0  0  0  0  0  0  0  0
   27.4790    0.0014  -66.6492 H   0  0  0  1  0  0  0  0  0  0  0  0
   27.6015    3.3744  -61.4011 H   0  0  0  1  0  0  0  0  0  0  0  0
   25.1529    0.4897  -58.3697 H   0  0  0  1  0  0  0  0  0  0  0  0
   25.6990   -0.2819  -60.5997 H   0  0  0  1  0  0  0  0  0  0  0  0
   27.0544    4.1472  -59.1674 H   0  0  0  1  0  0  0  0  0  0  0  0
   22.5088    2.3894  -64.3532 H   0  0  0  1  0  0  0  0  0  0  0  0
   22.6679    4.6105  -66.4181 H   0  0  0  1  0  0  0  0  0  0  0  0
   21.3027    3.5801  -66.0594 H   0  0  0  1  0  0  0  0  0  0  0  0
   21.8447    6.0719  -64.8303 H   0  0  0  1  0  0  0  0  0  0  0  0
   20.6860    4.8927  -64.2639 H   0  0  0  1  0  0  0  0  0  0  0  0
   23.8234    2.5244  -66.7475 H   0  0  0  1  0  0  0  0  0  0  0  0
   26.2116    4.6872  -57.3887 H   0  0  0  1  0  0  0  0  0  0  0  0
   27.3926    3.6470  -56.6299 H   0  0  0  1  0  0  0  0  0  0  0  0
   25.9066    4.0360  -55.7964 H   0  0  0  1  0  0  0  0  0  0  0  0
   24.3444    3.5372  -63.1839 H   0  0  0  1  0  0  0  0  0  0  0  0
   24.4342    4.7494  -64.4397 H   0  0  0  1  0  0  0  0  0  0  0  0
   22.7931    7.0889  -62.0396 H   0  0  0  1  0  0  0  0  0  0  0  0
   22.3275    7.4214  -59.7035 H   0  0  0  1  0  0  0  0  0  0  0  0
   21.4104    3.4733  -59.2181 H   0  0  0  1  0  0  0  0  0  0  0  0
   21.8379    3.0269  -61.5461 H   0  0  0  1  0  0  0  0  0  0  0  0
  1  3  4  0  0  0  0
  1 14  4  0  0  0  0
  1 21  1  0  0  0  0
  2 14  4  0  0  0  0
  2 15  4  0  0  0  0
  2 30  1  0  0  0  0
  3 16  4  0  0  0  0
  4  5  4  0  0  0  0
  4  7  4  0  0  0  0
  4 17  1  0  0  0  0
  5  9  4  0  0  0  0
  5 31  1  0  0  0  0
  6  7  4  0  0  0  0
  6  8  4  0  0  0  0
  6 32  1  0  0  0  0
  7 33  1  0  0  0  0
  8  9  4  0  0  0  0
  8 20  1  0  0  0  0
  9 34  1  0  0  0  0
 10 11  1  0  0  0  0
 10 21  1  0  0  0  0
 10 24  1  0  0  0  0
 10 35  1  0  0  0  0
 11 12  1  0  0  0  0
 11 36  1  0  0  0  0
 11 37  1  0  0  0  0
 12 23  1  0  0  0  0
 12 38  1  0  0  0  0
 12 39  1  0  0  0  0
 13 23  1  0  0  0  0
 13 25  4  0  0  0  0
 13 29  4  0  0  0  0
 15 16  4  0  0  0  0
 15 18  4  0  0  0  0
 16 17  4  0  0  0  0
 17 19  4  0  0  0  0
 18 19  4  0  0  0  0
 20 22  1  0  0  0  0
 21 40  1  0  0  0  0
 22 41  1  0  0  0  0
 22 42  1  0  0  0  0
 22 43  1  0  0  0  0
 23 24  1  0  0  0  0
 24 44  1  0  0  0  0
 24 45  1  0  0  0  0
 25 26  4  0  0  0  0
 25 46  1  0  0  0  0
 26 27  4  0  0  0  0
 26 47  1  0  0  0  0
 27 28  4  0  0  0  0
 28 29  4  0  0  0  0
 28 48  1  0  0  0  0
 29 49  1  0  0  0  0
M  END
> <ConfClashScore>
0 

> <ConfOneFourInteractionScore>
-0.987833 

> <ConfScore>
0.145806 

> <ConfScorePBest>
0.00176727 

> <ConfTolerance>
0.458201 

> <HETNAM>
     OWQ A 303  OWQ                                                       

> <pdb_OW>
Q_303 -16.5129 3.80749 7.62812 0.15963 1.39178 -0.28144 -3.20151 0 0 0 -1.30514 0 0 0 0 0 0 0 0 -8.31393

$$$$
6yky_lig_1.pdb
 OpenBabel04162415593D

 49 53  0  0  0  0  0  0  0  0999 V2000
   25.1048    1.8137  -65.3760 C   0  0  0  1  0  0  0  0  0  0  0  0
   26.9167    0.5034  -65.9326 C   0  0  0  1  0  0  0  0  0  0  0  0
   25.4179    1.8285  -64.0983 N   0  0  0  1  0  0  0  0  0  0  0  0
   26.7670    1.4474  -61.1215 C   0  0  0  1  0  0  0  0  0  0  0  0
   25.7919    2.4073  -60.9270 C   0  0  0  1  0  0  0  0  0  0  0  0
   27.2614    1.4711  -58.7758 C   0  0  0  1  0  0  0  0  0  0  0  0
   27.5048    0.9804  -60.0448 C   0  0  0  1  0  0  0  0  0  0  0  0
   26.2834    2.4339  -58.5805 C   0  0  0  1  0  0  0  0  0  0  0  0
   25.5480    2.8993  -59.6543 C   0  0  0  1  0  0  0  0  0  0  0  0
   23.5060    2.5629  -67.1496 C   0  0  0  1  0  0  0  0  0  0  0  0
   24.0543    3.8063  -67.8677 C   0  0  0  1  0  0  0  0  0  0  0  0
   22.9998    4.0234  -68.9638 C   0  0  0  1  0  0  0  0  0  0  0  0
   20.8755    2.6222  -69.4809 C   0  0  0  1  0  0  0  0  0  0  0  0
   25.8297    1.1708  -66.2748 N   0  0  0  1  0  0  0  0  0  0  0  0
   27.2965    0.4858  -64.5857 C   0  0  0  1  0  0  0  0  0  0  0  0
   26.4936    1.1852  -63.6614 C   0  0  0  1  0  0  0  0  0  0  0  0
   27.0810    1.0062  -62.4395 N   0  0  0  1  0  0  0  0  0  0  0  0
   28.3159   -0.0766  -63.9004 N   0  0  0  1  0  0  0  0  0  0  0  0
   28.2164    0.2093  -62.6490 N   0  0  0  1  0  0  0  0  0  0  0  0
   26.1396    2.8398  -57.3040 O   0  0  0  1  0  0  0  0  0  0  0  0
   24.0076    2.4764  -65.7837 N   0  0  0  1  0  0  0  0  0  0  0  0
   24.9755    3.6600  -57.0499 C   0  0  0  1  0  0  0  0  0  0  0  0
   21.8721    3.1093  -68.6113 N   0  0  0  1  0  0  0  0  0  0  0  0
   22.0095    2.8182  -67.1721 C   0  0  0  1  0  0  0  0  0  0  0  0
   20.4349    1.3118  -69.4636 C   0  0  0  1  0  0  0  0  0  0  0  0
   19.4495    0.9301  -70.3541 C   0  0  0  1  0  0  0  0  0  0  0  0
   18.8968    1.7640  -71.2403 N   0  0  0  1  0  0  0  0  0  0  0  0
   19.3365    3.0303  -71.2490 C   0  0  0  1  0  0  0  0  0  0  0  0
   20.3162    3.4981  -70.3907 C   0  0  0  1  0  0  0  0  0  0  0  0
   27.4789    0.0014  -66.6492 H   0  0  0  1  0  0  0  0  0  0  0  0
   25.2413    2.7605  -61.7354 H   0  0  0  1  0  0  0  0  0  0  0  0
   27.8120    1.1179  -57.9673 H   0  0  0  1  0  0  0  0  0  0  0  0
   28.2412    0.2610  -60.1918 H   0  0  0  1  0  0  0  0  0  0  0  0
   24.8115    3.6187  -59.5072 H   0  0  0  1  0  0  0  0  0  0  0  0
   23.7553    1.6671  -67.6790 H   0  0  0  1  0  0  0  0  0  0  0  0
   25.0205    3.6196  -68.2876 H   0  0  0  1  0  0  0  0  0  0  0  0
   24.1083    4.6461  -67.2068 H   0  0  0  1  0  0  0  0  0  0  0  0
   23.3998    3.7722  -69.9238 H   0  0  0  1  0  0  0  0  0  0  0  0
   22.6694    5.0411  -68.9698 H   0  0  0  1  0  0  0  0  0  0  0  0
   23.4947    2.9476  -65.0943 H   0  0  0  1  0  0  0  0  0  0  0  0
   24.0953    3.0528  -57.0892 H   0  0  0  1  0  0  0  0  0  0  0  0
   24.9120    4.4283  -57.7919 H   0  0  0  1  0  0  0  0  0  0  0  0
   25.0582    4.1055  -56.0806 H   0  0  0  1  0  0  0  0  0  0  0  0
   21.7315    3.6520  -66.5620 H   0  0  0  1  0  0  0  0  0  0  0  0
   21.4471    1.9569  -66.8777 H   0  0  0  1  0  0  0  0  0  0  0  0
   20.8374    0.6263  -68.7931 H   0  0  0  1  0  0  0  0  0  0  0  0
   19.1212   -0.0566  -70.3337 H   0  0  0  1  0  0  0  0  0  0  0  0
   18.9212    3.6935  -71.9341 H   0  0  0  1  0  0  0  0  0  0  0  0
   20.6254    4.4904  -70.4300 H   0  0  0  1  0  0  0  0  0  0  0  0
  1  3  4  0  0  0  0
  1 14  4  0  0  0  0
  1 21  1  0  0  0  0
  2 14  4  0  0  0  0
  2 15  4  0  0  0  0
  2 30  1  0  0  0  0
  3 16  4  0  0  0  0
  4  5  4  0  0  0  0
  4  7  4  0  0  0  0
  4 17  1  0  0  0  0
  5  9  4  0  0  0  0
  5 31  1  0  0  0  0
  6  7  4  0  0  0  0
  6  8  4  0  0  0  0
  6 32  1  0  0  0  0
  7 33  1  0  0  0  0
  8  9  4  0  0  0  0
  8 20  1  0  0  0  0
  9 34  1  0  0  0  0
 10 11  1  0  0  0  0
 10 21  1  0  0  0  0
 10 24  1  0  0  0  0
 10 35  1  0  0  0  0
 11 12  1  0  0  0  0
 11 36  1  0  0  0  0
 11 37  1  0  0  0  0
 12 23  1  0  0  0  0
 12 38  1  0  0  0  0
 12 39  1  0  0  0  0
 13 23  1  0  0  0  0
 13 25  4  0  0  0  0
 13 29  4  0  0  0  0
 15 16  4  0  0  0  0
 15 18  4  0  0  0  0
 16 17  4  0  0  0  0
 17 19  4  0  0  0  0
 18 19  4  0  0  0  0
 20 22  1  0  0  0  0
 21 40  1  0  0  0  0
 22 41  1  0  0  0  0
 22 42  1  0  0  0  0
 22 43  1  0  0  0  0
 23 24  1  0  0  0  0
 24 44  1  0  0  0  0
 24 45  1  0  0  0  0
 25 26  4  0  0  0  0
 25 46  1  0  0  0  0
 26 27  4  0  0  0  0
 26 47  1  0  0  0  0
 27 28  4  0  0  0  0
 28 29  4  0  0  0  0
 28 48  1  0  0  0  0
 29 49  1  0  0  0  0
M  END
> <ConfClashScore>
0 

> <ConfOneFourInteractionScore>
-0.986948 

> <ConfScore>
0.148455 

> <ConfScorePBest>
0.00175394 

> <ConfTolerance>
0.644911 

> <HETNAM>
     OWQ A 303  OWQ                                                       

> <pdb_OW>
Q_303 -16.5129 3.80749 7.62812 0.15963 1.39178 -0.28144 -3.20151 0 0 0 -1.30514 0 0 0 0 0 0 0 0 -8.31393

$$$$
6yky_lig_1.pdb
 OpenBabel04162415593D

 49 53  0  0  0  0  0  0  0  0999 V2000
   25.1047    1.8134  -65.3760 C   0  0  0  1  0  0  0  0  0  0  0  0
   26.9167    0.5034  -65.9326 C   0  0  0  1  0  0  0  0  0  0  0  0
   25.4178    1.8283  -64.0981 N   0  0  0  1  0  0  0  0  0  0  0  0
   26.6855    1.4948  -61.1608 C   0  0  0  1  0  0  0  0  0  0  0  0
   26.8853    0.6717  -60.0688 C   0  0  0  1  0  0  0  0  0  0  0  0
   25.5912    3.0985  -59.7544 C   0  0  0  1  0  0  0  0  0  0  0  0
   26.0351    2.7089  -61.0039 C   0  0  0  1  0  0  0  0  0  0  0  0
   25.7916    2.2730  -58.6590 C   0  0  0  1  0  0  0  0  0  0  0  0
   26.4401    1.0625  -58.8156 C   0  0  0  1  0  0  0  0  0  0  0  0
   23.0794    3.1811  -64.8342 C   0  0  0  1  0  0  0  0  0  0  0  0
   21.6296    2.7263  -65.0662 C   0  0  0  1  0  0  0  0  0  0  0  0
   20.8365    3.9243  -64.5218 C   0  0  0  1  0  0  0  0  0  0  0  0
   21.7285    6.1011  -63.4662 C   0  0  0  1  0  0  0  0  0  0  0  0
   25.8296    1.1706  -66.2748 N   0  0  0  1  0  0  0  0  0  0  0  0
   27.2965    0.4857  -64.5856 C   0  0  0  1  0  0  0  0  0  0  0  0
   26.4936    1.1851  -63.6614 C   0  0  0  1  0  0  0  0  0  0  0  0
   27.0809    1.0061  -62.4395 N   0  0  0  1  0  0  0  0  0  0  0  0
   28.3159   -0.0766  -63.9004 N   0  0  0  1  0  0  0  0  0  0  0  0
   28.2164    0.2092  -62.6490 N   0  0  0  1  0  0  0  0  0  0  0  0
   25.3982    2.5445  -57.3919 O   0  0  0  1  0  0  0  0  0  0  0  0
   24.0052    2.4865  -65.7332 N   0  0  0  1  0  0  0  0  0  0  0  0
   24.7174    3.7892  -57.1689 C   0  0  0  1  0  0  0  0  0  0  0  0
   21.8492    5.0008  -64.3049 N   0  0  0  1  0  0  0  0  0  0  0  0
   23.0026    4.6623  -65.1592 C   0  0  0  1  0  0  0  0  0  0  0  0
   20.5703    6.3106  -62.7406 C   0  0  0  1  0  0  0  0  0  0  0  0
   20.4940    7.4161  -61.9150 C   0  0  0  1  0  0  0  0  0  0  0  0
   21.4851    8.3026  -61.7804 N   0  0  0  1  0  0  0  0  0  0  0  0
   22.6005    8.0895  -62.4930 C   0  0  0  1  0  0  0  0  0  0  0  0
   22.7631    7.0074  -63.3404 C   0  0  0  1  0  0  0  0  0  0  0  0
   27.4790    0.0014  -66.6491 H   0  0  0  1  0  0  0  0  0  0  0  0
   27.3697   -0.2410  -60.1873 H   0  0  0  1  0  0  0  0  0  0  0  0
   25.1068    4.0112  -59.6359 H   0  0  0  1  0  0  0  0  0  0  0  0
   25.8813    3.3266  -61.8264 H   0  0  0  1  0  0  0  0  0  0  0  0
   26.5940    0.4448  -57.9932 H   0  0  0  1  0  0  0  0  0  0  0  0
   23.3791    3.0210  -63.8195 H   0  0  0  1  0  0  0  0  0  0  0  0
   21.4094    1.8326  -64.5207 H   0  0  0  1  0  0  0  0  0  0  0  0
   21.4323    2.5682  -66.1059 H   0  0  0  1  0  0  0  0  0  0  0  0
   20.3577    3.6689  -63.5995 H   0  0  0  1  0  0  0  0  0  0  0  0
   20.1001    4.2399  -65.2311 H   0  0  0  1  0  0  0  0  0  0  0  0
   23.7984    2.5181  -66.6906 H   0  0  0  1  0  0  0  0  0  0  0  0
   25.4347    4.5791  -57.0882 H   0  0  0  1  0  0  0  0  0  0  0  0
   24.1510    3.7283  -56.2631 H   0  0  0  1  0  0  0  0  0  0  0  0
   24.0593    3.9875  -57.9889 H   0  0  0  1  0  0  0  0  0  0  0  0
   23.8890    5.1870  -64.8695 H   0  0  0  1  0  0  0  0  0  0  0  0
   22.8050    4.8398  -66.1957 H   0  0  0  1  0  0  0  0  0  0  0  0
   19.7716    5.6486  -62.8149 H   0  0  0  1  0  0  0  0  0  0  0  0
   19.6207    7.5658  -61.3704 H   0  0  0  1  0  0  0  0  0  0  0  0
   23.3816    8.7705  -62.4048 H   0  0  0  1  0  0  0  0  0  0  0  0
   23.6474    6.8792  -63.8723 H   0  0  0  1  0  0  0  0  0  0  0  0
  1  3  4  0  0  0  0
  1 14  4  0  0  0  0
  1 21  1  0  0  0  0
  2 14  4  0  0  0  0
  2 15  4  0  0  0  0
  2 30  1  0  0  0  0
  3 16  4  0  0  0  0
  4  5  4  0  0  0  0
  4  7  4  0  0  0  0
  4 17  1  0  0  0  0
  5  9  4  0  0  0  0
  5 31  1  0  0  0  0
  6  7  4  0  0  0  0
  6  8  4  0  0  0  0
  6 32  1  0  0  0  0
  7 33  1  0  0  0  0
  8  9  4  0  0  0  0
  8 20  1  0  0  0  0
  9 34  1  0  0  0  0
 10 11  1  0  0  0  0
 10 21  1  0  0  0  0
 10 24  1  0  0  0  0
 10 35  1  0  0  0  0
 11 12  1  0  0  0  0
 11 36  1  0  0  0  0
 11 37  1  0  0  0  0
 12 23  1  0  0  0  0
 12 38  1  0  0  0  0
 12 39  1  0  0  0  0
 13 23  1  0  0  0  0
 13 25  4  0  0  0  0
 13 29  4  0  0  0  0
 15 16  4  0  0  0  0
 15 18  4  0  0  0  0
 16 17  4  0  0  0  0
 17 19  4  0  0  0  0
 18 19  4  0  0  0  0
 20 22  1  0  0  0  0
 21 40  1  0  0  0  0
 22 41  1  0  0  0  0
 22 42  1  0  0  0  0
 22 43  1  0  0  0  0
 23 24  1  0  0  0  0
 24 44  1  0  0  0  0
 24 45  1  0  0  0  0
 25 26  4  0  0  0  0
 25 46  1  0  0  0  0
 26 27  4  0  0  0  0
 26 47  1  0  0  0  0
 27 28  4  0  0  0  0
 28 29  4  0  0  0  0
 28 48  1  0  0  0  0
 29 49  1  0  0  0  0
M  END
> <ConfClashScore>
0 

> <ConfOneFourInteractionScore>
-0.986948 

> <ConfScore>
0.150748 

> <ConfScorePBest>
0.00174062 

> <ConfTolerance>
1.05352 

> <HETNAM>
     OWQ A 303  OWQ                                                       

> <pdb_OW>
Q_303 -16.5129 3.80749 7.62812 0.15963 1.39178 -0.28144 -3.20151 0 0 0 -1.30514 0 0 0 0 0 0 0 0 -8.31393

$$$$
6yky_lig_1.pdb
 OpenBabel04162415593D

 49 53  0  0  0  0  0  0  0  0999 V2000
   25.1047    1.8134  -65.3760 C   0  0  0  1  0  0  0  0  0  0  0  0
   26.9167    0.5034  -65.9326 C   0  0  0  1  0  0  0  0  0  0  0  0
   25.4178    1.8282  -64.0982 N   0  0  0  1  0  0  0  0  0  0  0  0
   26.8452    1.6299  -61.1803 C   0  0  0  1  0  0  0  0  0  0  0  0
   27.5099    2.7960  -60.8507 C   0  0  0  1  0  0  0  0  0  0  0  0
   25.8573    1.5731  -58.9967 C   0  0  0  1  0  0  0  0  0  0  0  0
   26.0198    1.0160  -60.2512 C   0  0  0  1  0  0  0  0  0  0  0  0
   26.5238    2.7426  -58.6660 C   0  0  0  1  0  0  0  0  0  0  0  0
   27.3468    3.3546  -59.5925 C   0  0  0  1  0  0  0  0  0  0  0  0
   23.6504    2.5530  -67.2075 C   0  0  0  1  0  0  0  0  0  0  0  0
   22.4353    3.4817  -67.4822 C   0  0  0  1  0  0  0  0  0  0  0  0
   21.7412    2.9709  -68.7623 C   0  0  0  1  0  0  0  0  0  0  0  0
   22.0670    0.7666  -69.9946 C   0  0  0  1  0  0  0  0  0  0  0  0
   25.8297    1.1707  -66.2747 N   0  0  0  1  0  0  0  0  0  0  0  0
   27.2965    0.4857  -64.5857 C   0  0  0  1  0  0  0  0  0  0  0  0
   26.4936    1.1851  -63.6614 C   0  0  0  1  0  0  0  0  0  0  0  0
   27.0809    1.0060  -62.4395 N   0  0  0  1  0  0  0  0  0  0  0  0
   28.3159   -0.0766  -63.9004 N   0  0  0  1  0  0  0  0  0  0  0  0
   28.2164    0.2092  -62.6490 N   0  0  0  1  0  0  0  0  0  0  0  0
   26.2917    3.1904  -57.4092 O   0  0  0  1  0  0  0  0  0  0  0  0
   23.9766    2.4947  -65.7952 N   0  0  0  1  0  0  0  0  0  0  0  0
   26.9952    4.3712  -56.9929 C   0  0  0  1  0  0  0  0  0  0  0  0
   22.2827    1.5894  -68.9010 N   0  0  0  1  0  0  0  0  0  0  0  0
   23.0776    1.2171  -67.7193 C   0  0  0  1  0  0  0  0  0  0  0  0
   21.7809   -0.5812  -69.8789 C   0  0  0  1  0  0  0  0  0  0  0  0
   21.5774   -1.3185  -71.0298 C   0  0  0  1  0  0  0  0  0  0  0  0
   21.6456   -0.7970  -72.2584 N   0  0  0  1  0  0  0  0  0  0  0  0
   21.9279    0.5100  -72.3559 C   0  0  0  1  0  0  0  0  0  0  0  0
   22.1422    1.3229  -71.2565 C   0  0  0  1  0  0  0  0  0  0  0  0
   27.4790    0.0014  -66.6492 H   0  0  0  1  0  0  0  0  0  0  0  0
   28.1323    3.2544  -61.5465 H   0  0  0  1  0  0  0  0  0  0  0  0
   25.2349    1.1148  -58.3009 H   0  0  0  1  0  0  0  0  0  0  0  0
   25.5229    0.1364  -60.4979 H   0  0  0  1  0  0  0  0  0  0  0  0
   27.8437    4.2342  -59.3458 H   0  0  0  1  0  0  0  0  0  0  0  0
   24.5147    2.8539  -67.7617 H   0  0  0  1  0  0  0  0  0  0  0  0
   21.7540    3.4452  -66.6580 H   0  0  0  1  0  0  0  0  0  0  0  0
   22.7698    4.4880  -67.6250 H   0  0  0  1  0  0  0  0  0  0  0  0
   22.0003    3.5733  -69.6078 H   0  0  0  1  0  0  0  0  0  0  0  0
   20.6777    2.9582  -68.6452 H   0  0  0  1  0  0  0  0  0  0  0  0
   23.3986    2.9373  -65.1392 H   0  0  0  1  0  0  0  0  0  0  0  0
   28.0344    4.2686  -57.2261 H   0  0  0  1  0  0  0  0  0  0  0  0
   26.8781    4.5023  -55.9374 H   0  0  0  1  0  0  0  0  0  0  0  0
   26.5974    5.2223  -57.5049 H   0  0  0  1  0  0  0  0  0  0  0  0
   22.4589    0.7605  -66.9752 H   0  0  0  1  0  0  0  0  0  0  0  0
   23.8659    0.5458  -67.9893 H   0  0  0  1  0  0  0  0  0  0  0  0
   21.7200   -1.0315  -68.9435 H   0  0  0  1  0  0  0  0  0  0  0  0
   21.3603   -2.3311  -70.9351 H   0  0  0  1  0  0  0  0  0  0  0  0
   21.9891    0.9336  -73.3038 H   0  0  0  1  0  0  0  0  0  0  0  0
   22.3557    2.3334  -71.3783 H   0  0  0  1  0  0  0  0  0  0  0  0
  1  3  4  0  0  0  0
  1 14  4  0  0  0  0
  1 21  1  0  0  0  0
  2 14  4  0  0  0  0
  2 15  4  0  0  0  0
  2 30  1  0  0  0  0
  3 16  4  0  0  0  0
  4  5  4  0  0  0  0
  4  7  4  0  0  0  0
  4 17  1  0  0  0  0
  5  9  4  0  0  0  0
  5 31  1  0  0  0  0
  6  7  4  0  0  0  0
  6  8  4  0  0  0  0
  6 32  1  0  0  0  0
  7 33  1  0  0  0  0
  8  9  4  0  0  0  0
  8 20  1  0  0  0  0
  9 34  1  0  0  0  0
 10 11  1  0  0  0  0
 10 21  1  0  0  0  0
 10 24  1  0  0  0  0
 10 35  1  0  0  0  0
 11 12  1  0  0  0  0
 11 36  1  0  0  0  0
 11 37  1  0  0  0  0
 12 23  1  0  0  0  0
 12 38  1  0  0  0  0
 12 39  1  0  0  0  0
 13 23  1  0  0  0  0
 13 25  4  0  0  0  0
 13 29  4  0  0  0  0
 15 16  4  0  0  0  0
 15 18  4  0  0  0  0
 16 17  4  0  0  0  0
 17 19  4  0  0  0  0
 18 19  4  0  0  0  0
 20 22  1  0  0  0  0
 21 40  1  0  0  0  0
 22 41  1  0  0  0  0
 22 42  1  0  0  0  0
 22 43  1  0  0  0  0
 23 24  1  0  0  0  0
 24 44  1  0  0  0  0
 24 45  1  0  0  0  0
 25 26  4  0  0  0  0
 25 46  1  0  0  0  0
 26 27  4  0  0  0  0
 26 47  1  0  0  0  0
 27 28  4  0  0  0  0
 28 29  4  0  0  0  0
 28 48  1  0  0  0  0
 29 49  1  0  0  0  0
M  END
> <ConfClashScore>
0 

> <ConfOneFourInteractionScore>
-0.989681 

> <ConfScore>
0.153343 

> <ConfScorePBest>
0.00172729 

> <ConfTolerance>
0.604315 

> <HETNAM>
     OWQ A 303  OWQ                                                       

> <pdb_OW>
Q_303 -16.5129 3.80749 7.62812 0.15963 1.39178 -0.28144 -3.20151 0 0 0 -1.30514 0 0 0 0 0 0 0 0 -8.31393

$$$$
6yky_lig_1.pdb
 OpenBabel04162415593D

 49 53  0  0  0  0  0  0  0  0999 V2000
   25.1049    1.8136  -65.3759 C   0  0  0  1  0  0  0  0  0  0  0  0
   26.9167    0.5034  -65.9326 C   0  0  0  1  0  0  0  0  0  0  0  0
   25.4178    1.8284  -64.0982 N   0  0  0  1  0  0  0  0  0  0  0  0
   26.6711    1.3257  -61.1128 C   0  0  0  1  0  0  0  0  0  0  0  0
   26.1942    2.5898  -60.8213 C   0  0  0  1  0  0  0  0  0  0  0  0
   26.5233    0.7332  -58.7944 C   0  0  0  1  0  0  0  0  0  0  0  0
   26.8385    0.3969  -60.0976 C   0  0  0  1  0  0  0  0  0  0  0  0
   26.0451    2.0010  -58.5021 C   0  0  0  1  0  0  0  0  0  0  0  0
   25.8781    2.9270  -59.5145 C   0  0  0  1  0  0  0  0  0  0  0  0
   23.5297    2.4955  -67.1636 C   0  0  0  1  0  0  0  0  0  0  0  0
   23.3436    1.0700  -67.7071 C   0  0  0  1  0  0  0  0  0  0  0  0
   23.4459    1.2986  -69.2230 C   0  0  0  1  0  0  0  0  0  0  0  0
   23.7985    3.5246  -70.5160 C   0  0  0  1  0  0  0  0  0  0  0  0
   25.8297    1.1707  -66.2747 N   0  0  0  1  0  0  0  0  0  0  0  0
   27.2965    0.4858  -64.5857 C   0  0  0  1  0  0  0  0  0  0  0  0
   26.4936    1.1852  -63.6614 C   0  0  0  1  0  0  0  0  0  0  0  0
   27.0810    1.0062  -62.4395 N   0  0  0  1  0  0  0  0  0  0  0  0
   28.3159   -0.0766  -63.9004 N   0  0  0  1  0  0  0  0  0  0  0  0
   28.2164    0.2092  -62.6490 N   0  0  0  1  0  0  0  0  0  0  0  0
   25.8762    2.3212  -57.1972 O   0  0  0  1  0  0  0  0  0  0  0  0
   24.0035    2.4787  -65.7852 N   0  0  0  1  0  0  0  0  0  0  0  0
   25.6397    3.7032  -56.8859 C   0  0  0  1  0  0  0  0  0  0  0  0
   23.9333    2.7022  -69.3771 N   0  0  0  1  0  0  0  0  0  0  0  0
   24.5832    3.0572  -68.1018 C   0  0  0  1  0  0  0  0  0  0  0  0
   23.3145    3.1132  -71.7440 C   0  0  0  1  0  0  0  0  0  0  0  0
   23.2360    4.0352  -72.7703 C   0  0  0  1  0  0  0  0  0  0  0  0
   23.6081    5.3123  -72.6408 N   0  0  0  1  0  0  0  0  0  0  0  0
   24.0796    5.6965  -71.4461 C   0  0  0  1  0  0  0  0  0  0  0  0
   24.1886    4.8409  -70.3639 C   0  0  0  1  0  0  0  0  0  0  0  0
   27.4789    0.0014  -66.6491 H   0  0  0  1  0  0  0  0  0  0  0  0
   26.0724    3.2879  -61.5826 H   0  0  0  1  0  0  0  0  0  0  0  0
   26.6451    0.0350  -58.0333 H   0  0  0  1  0  0  0  0  0  0  0  0
   27.2011   -0.5530  -60.3163 H   0  0  0  1  0  0  0  0  0  0  0  0
   25.5155    3.8768  -59.2958 H   0  0  0  1  0  0  0  0  0  0  0  0
   22.6196    3.0554  -67.2217 H   0  0  0  1  0  0  0  0  0  0  0  0
   24.1154    0.4160  -67.3585 H   0  0  0  1  0  0  0  0  0  0  0  0
   22.3883    0.6712  -67.4365 H   0  0  0  1  0  0  0  0  0  0  0  0
   22.4880    1.1816  -69.6852 H   0  0  0  1  0  0  0  0  0  0  0  0
   24.1396    0.6110  -69.6598 H   0  0  0  1  0  0  0  0  0  0  0  0
   23.4923    2.9800  -65.1160 H   0  0  0  1  0  0  0  0  0  0  0  0
   24.7311    4.0237  -57.3514 H   0  0  0  1  0  0  0  0  0  0  0  0
   26.4541    4.2946  -57.2489 H   0  0  0  1  0  0  0  0  0  0  0  0
   25.5576    3.8207  -55.8256 H   0  0  0  1  0  0  0  0  0  0  0  0
   24.7038    4.1144  -67.9892 H   0  0  0  1  0  0  0  0  0  0  0  0
   25.5308    2.5749  -67.9820 H   0  0  0  1  0  0  0  0  0  0  0  0
   23.0152    2.1283  -71.8926 H   0  0  0  1  0  0  0  0  0  0  0  0
   22.8687    3.7193  -73.6905 H   0  0  0  1  0  0  0  0  0  0  0  0
   24.3779    6.6856  -71.3267 H   0  0  0  1  0  0  0  0  0  0  0  0
   24.5574    5.1823  -69.4533 H   0  0  0  1  0  0  0  0  0  0  0  0
  1  3  4  0  0  0  0
  1 14  4  0  0  0  0
  1 21  1  0  0  0  0
  2 14  4  0  0  0  0
  2 15  4  0  0  0  0
  2 30  1  0  0  0  0
  3 16  4  0  0  0  0
  4  5  4  0  0  0  0
  4  7  4  0  0  0  0
  4 17  1  0  0  0  0
  5  9  4  0  0  0  0
  5 31  1  0  0  0  0
  6  7  4  0  0  0  0
  6  8  4  0  0  0  0
  6 32  1  0  0  0  0
  7 33  1  0  0  0  0
  8  9  4  0  0  0  0
  8 20  1  0  0  0  0
  9 34  1  0  0  0  0
 10 11  1  0  0  0  0
 10 21  1  0  0  0  0
 10 24  1  0  0  0  0
 10 35  1  0  0  0  0
 11 12  1  0  0  0  0
 11 36  1  0  0  0  0
 11 37  1  0  0  0  0
 12 23  1  0  0  0  0
 12 38  1  0  0  0  0
 12 39  1  0  0  0  0
 13 23  1  0  0  0  0
 13 25  4  0  0  0  0
 13 29  4  0  0  0  0
 15 16  4  0  0  0  0
 15 18  4  0  0  0  0
 16 17  4  0  0  0  0
 17 19  4  0  0  0  0
 18 19  4  0  0  0  0
 20 22  1  0  0  0  0
 21 40  1  0  0  0  0
 22 41  1  0  0  0  0
 22 42  1  0  0  0  0
 22 43  1  0  0  0  0
 23 24  1  0  0  0  0
 24 44  1  0  0  0  0
 24 45  1  0  0  0  0
 25 26  4  0  0  0  0
 25 46  1  0  0  0  0
 26 27  4  0  0  0  0
 26 47  1  0  0  0  0
 27 28  4  0  0  0  0
 28 29  4  0  0  0  0
 28 48  1  0  0  0  0
 29 49  1  0  0  0  0
M  END
> <ConfClashScore>
0 

> <ConfOneFourInteractionScore>
-0.983503 

> <ConfScore>
0.155152 

> <ConfScorePBest>
0.00171396 

> <ConfTolerance>
0.437596 

> <HETNAM>
     OWQ A 303  OWQ                                                       

> <pdb_OW>
Q_303 -16.5129 3.80749 7.62812 0.15963 1.39178 -0.28144 -3.20151 0 0 0 -1.30514 0 0 0 0 0 0 0 0 -8.31393

$$$$
6yky_lig_1.pdb
 OpenBabel04162415593D

 49 53  0  0  0  0  0  0  0  0999 V2000
   25.1046    1.8134  -65.3760 C   0  0  0  1  0  0  0  0  0  0  0  0
   26.9167    0.5034  -65.9325 C   0  0  0  1  0  0  0  0  0  0  0  0
   25.4177    1.8282  -64.0982 N   0  0  0  1  0  0  0  0  0  0  0  0
   26.7668    1.4472  -61.1215 C   0  0  0  1  0  0  0  0  0  0  0  0
   25.8761    2.4871  -60.9336 C   0  0  0  1  0  0  0  0  0  0  0  0
   27.1882    1.3790  -58.7625 C   0  0  0  1  0  0  0  0  0  0  0  0
   27.4259    0.8940  -60.0347 C   0  0  0  1  0  0  0  0  0  0  0  0
   26.2948    2.4221  -58.5739 C   0  0  0  1  0  0  0  0  0  0  0  0
   25.6378    2.9734  -59.6576 C   0  0  0  1  0  0  0  0  0  0  0  0
   23.0892    3.1528  -64.8842 C   0  0  0  1  0  0  0  0  0  0  0  0
   23.8159    4.2077  -64.0350 C   0  0  0  1  0  0  0  0  0  0  0  0
   22.8752    4.3373  -62.8270 C   0  0  0  1  0  0  0  0  0  0  0  0
   20.6335    3.1176  -62.3768 C   0  0  0  1  0  0  0  0  0  0  0  0
   25.8296    1.1707  -66.2748 N   0  0  0  1  0  0  0  0  0  0  0  0
   27.2965    0.4857  -64.5857 C   0  0  0  1  0  0  0  0  0  0  0  0
   26.4935    1.1851  -63.6614 C   0  0  0  1  0  0  0  0  0  0  0  0
   27.0809    1.0061  -62.4395 N   0  0  0  1  0  0  0  0  0  0  0  0
   28.3159   -0.0766  -63.9004 N   0  0  0  1  0  0  0  0  0  0  0  0
   28.2164    0.2093  -62.6490 N   0  0  0  1  0  0  0  0  0  0  0  0
   26.1476    2.8155  -57.2865 O   0  0  0  1  0  0  0  0  0  0  0  0
   24.0074    2.4761  -65.7837 N   0  0  0  1  0  0  0  0  0  0  0  0
   25.3177    3.9616  -57.0414 C   0  0  0  1  0  0  0  0  0  0  0  0
   21.9072    3.2074  -62.9594 N   0  0  0  1  0  0  0  0  0  0  0  0
   22.5566    2.2049  -63.8244 C   0  0  0  1  0  0  0  0  0  0  0  0
   19.8033    2.0485  -62.6586 C   0  0  0  1  0  0  0  0  0  0  0  0
   18.5588    1.9977  -62.0601 C   0  0  0  1  0  0  0  0  0  0  0  0
   18.1088    2.9342  -61.2194 N   0  0  0  1  0  0  0  0  0  0  0  0
   18.9224    3.9673  -60.9586 C   0  0  0  1  0  0  0  0  0  0  0  0
   20.1850    4.0956  -61.5107 C   0  0  0  1  0  0  0  0  0  0  0  0
   27.4789    0.0014  -66.6492 H   0  0  0  1  0  0  0  0  0  0  0  0
   25.3847    2.9047  -61.7496 H   0  0  0  1  0  0  0  0  0  0  0  0
   27.6796    0.9613  -57.9466 H   0  0  0  1  0  0  0  0  0  0  0  0
   28.0992    0.1142  -60.1766 H   0  0  0  1  0  0  0  0  0  0  0  0
   24.9645    3.7533  -59.5159 H   0  0  0  1  0  0  0  0  0  0  0  0
   22.2930    3.5905  -65.4495 H   0  0  0  1  0  0  0  0  0  0  0  0
   24.7866    3.8686  -63.7386 H   0  0  0  1  0  0  0  0  0  0  0  0
   23.9068    5.1357  -64.5597 H   0  0  0  1  0  0  0  0  0  0  0  0
   23.4253    4.2543  -61.9130 H   0  0  0  1  0  0  0  0  0  0  0  0
   22.3616    5.2756  -62.8509 H   0  0  0  1  0  0  0  0  0  0  0  0
   23.8160    2.5039  -66.7444 H   0  0  0  1  0  0  0  0  0  0  0  0
   24.3304    3.7727  -57.4081 H   0  0  0  1  0  0  0  0  0  0  0  0
   25.7277    4.8126  -57.5441 H   0  0  0  1  0  0  0  0  0  0  0  0
   25.2765    4.1536  -55.9896 H   0  0  0  1  0  0  0  0  0  0  0  0
   23.3407    1.6808  -63.3189 H   0  0  0  1  0  0  0  0  0  0  0  0
   21.8570    1.5013  -64.2249 H   0  0  0  1  0  0  0  0  0  0  0  0
   20.1096    1.2969  -63.3088 H   0  0  0  1  0  0  0  0  0  0  0  0
   17.9407    1.1893  -62.2748 H   0  0  0  1  0  0  0  0  0  0  0  0
   18.5887    4.7083  -60.3097 H   0  0  0  1  0  0  0  0  0  0  0  0
   20.7845    4.9129  -61.2781 H   0  0  0  1  0  0  0  0  0  0  0  0
  1  3  4  0  0  0  0
  1 14  4  0  0  0  0
  1 21  1  0  0  0  0
  2 14  4  0  0  0  0
  2 15  4  0  0  0  0
  2 30  1  0  0  0  0
  3 16  4  0  0  0  0
  4  5  4  0  0  0  0
  4  7  4  0  0  0  0
  4 17  1  0  0  0  0
  5  9  4  0  0  0  0
  5 31  1  0  0  0  0
  6  7  4  0  0  0  0
  6  8  4  0  0  0  0
  6 32  1  0  0  0  0
  7 33  1  0  0  0  0
  8  9  4  0  0  0  0
  8 20  1  0  0  0  0
  9 34  1  0  0  0  0
 10 11  1  0  0  0  0
 10 21  1  0  0  0  0
 10 24  1  0  0  0  0
 10 35  1  0  0  0  0
 11 12  1  0  0  0  0
 11 36  1  0  0  0  0
 11 37  1  0  0  0  0
 12 23  1  0  0  0  0
 12 38  1  0  0  0  0
 12 39  1  0  0  0  0
 13 23  1  0  0  0  0
 13 25  4  0  0  0  0
 13 29  4  0  0  0  0
 15 16  4  0  0  0  0
 15 18  4  0  0  0  0
 16 17  4  0  0  0  0
 17 19  4  0  0  0  0
 18 19  4  0  0  0  0
 20 22  1  0  0  0  0
 21 40  1  0  0  0  0
 22 41  1  0  0  0  0
 22 42  1  0  0  0  0
 22 43  1  0  0  0  0
 23 24  1  0  0  0  0
 24 44  1  0  0  0  0
 24 45  1  0  0  0  0
 25 26  4  0  0  0  0
 25 46  1  0  0  0  0
 26 27  4  0  0  0  0
 26 47  1  0  0  0  0
 27 28  4  0  0  0  0
 28 29  4  0  0  0  0
 28 48  1  0  0  0  0
 29 49  1  0  0  0  0
M  END
> <ConfClashScore>
0 

> <ConfOneFourInteractionScore>
-0.983503 

> <ConfScore>
0.155251 

> <ConfScorePBest>
0.00170063 

> <ConfTolerance>
0.386056 

> <HETNAM>
     OWQ A 303  OWQ                                                       

> <pdb_OW>
Q_303 -16.5129 3.80749 7.62812 0.15963 1.39178 -0.28144 -3.20151 0 0 0 -1.30514 0 0 0 0 0 0 0 0 -8.31393

$$$$
6yky_lig_1.pdb
 OpenBabel04162415593D

 49 53  0  0  0  0  0  0  0  0999 V2000
   25.1049    1.8137  -65.3760 C   0  0  0  1  0  0  0  0  0  0  0  0
   26.9167    0.5034  -65.9326 C   0  0  0  1  0  0  0  0  0  0  0  0
   25.4180    1.8285  -64.0982 N   0  0  0  1  0  0  0  0  0  0  0  0
   26.7520    1.5718  -61.1737 C   0  0  0  1  0  0  0  0  0  0  0  0
   27.6122    1.4188  -60.1028 C   0  0  0  1  0  0  0  0  0  0  0  0
   25.1672    2.6675  -59.7472 C   0  0  0  1  0  0  0  0  0  0  0  0
   25.5265    2.1946  -60.9951 C   0  0  0  1  0  0  0  0  0  0  0  0
   26.0298    2.5141  -58.6729 C   0  0  0  1  0  0  0  0  0  0  0  0
   27.2516    1.8931  -58.8512 C   0  0  0  1  0  0  0  0  0  0  0  0
   23.5499    2.5143  -67.1617 C   0  0  0  1  0  0  0  0  0  0  0  0
   23.3033    1.0985  -67.7068 C   0  0  0  1  0  0  0  0  0  0  0  0
   23.4303    1.3214  -69.2217 C   0  0  0  1  0  0  0  0  0  0  0  0
   23.8996    3.5082  -70.4841 C   0  0  0  1  0  0  0  0  0  0  0  0
   25.8296    1.1708  -66.2747 N   0  0  0  1  0  0  0  0  0  0  0  0
   27.2964    0.4858  -64.5857 C   0  0  0  1  0  0  0  0  0  0  0  0
   26.4937    1.1853  -63.6614 C   0  0  0  1  0  0  0  0  0  0  0  0
   27.0810    1.0063  -62.4395 N   0  0  0  1  0  0  0  0  0  0  0  0
   28.3159   -0.0766  -63.9004 N   0  0  0  1  0  0  0  0  0  0  0  0
   28.2164    0.2092  -62.6490 N   0  0  0  1  0  0  0  0  0  0  0  0
   25.5250    3.0293  -57.5110 O   0  0  0  1  0  0  0  0  0  0  0  0
   24.0076    2.4766  -65.7837 N   0  0  0  1  0  0  0  0  0  0  0  0
   26.2954    2.6600  -56.3566 C   0  0  0  1  0  0  0  0  0  0  0  0
   23.9834    2.7009  -69.3712 N   0  0  0  1  0  0  0  0  0  0  0  0
   24.6369    3.0262  -68.0899 C   0  0  0  1  0  0  0  0  0  0  0  0
   22.8179    4.3307  -70.7389 C   0  0  0  1  0  0  0  0  0  0  0  0
   22.8282    5.1074  -71.8819 C   0  0  0  1  0  0  0  0  0  0  0  0
   23.8331    5.1050  -72.7630 N   0  0  0  1  0  0  0  0  0  0  0  0
   24.8734    4.2996  -72.5057 C   0  0  0  1  0  0  0  0  0  0  0  0
   24.9471    3.4919  -71.3843 C   0  0  0  1  0  0  0  0  0  0  0  0
   27.4788    0.0014  -66.6492 H   0  0  0  1  0  0  0  0  0  0  0  0
   28.5299    0.9479  -60.2360 H   0  0  0  1  0  0  0  0  0  0  0  0
   24.2495    3.1384  -59.6140 H   0  0  0  1  0  0  0  0  0  0  0  0
   24.8776    2.3062  -61.8002 H   0  0  0  1  0  0  0  0  0  0  0  0
   27.9005    1.7816  -58.0462 H   0  0  0  1  0  0  0  0  0  0  0  0
   22.6671    3.1154  -67.2285 H   0  0  0  1  0  0  0  0  0  0  0  0
   24.0407    0.4098  -67.3509 H   0  0  0  1  0  0  0  0  0  0  0  0
   22.3280    0.7443  -67.4453 H   0  0  0  1  0  0  0  0  0  0  0  0
   22.4725    1.2484  -69.6930 H   0  0  0  1  0  0  0  0  0  0  0  0
   24.0957    0.6022  -69.6518 H   0  0  0  1  0  0  0  0  0  0  0  0
   23.4863    2.9627  -65.1112 H   0  0  0  1  0  0  0  0  0  0  0  0
   27.3304    2.8614  -56.5386 H   0  0  0  1  0  0  0  0  0  0  0  0
   26.1645    1.6164  -56.1597 H   0  0  0  1  0  0  0  0  0  0  0  0
   25.9652    3.2271  -55.5115 H   0  0  0  1  0  0  0  0  0  0  0  0
   24.8051    4.0767  -67.9762 H   0  0  0  1  0  0  0  0  0  0  0  0
   25.5600    2.5007  -67.9611 H   0  0  0  1  0  0  0  0  0  0  0  0
   22.0117    4.3642  -70.0829 H   0  0  0  1  0  0  0  0  0  0  0  0
   22.0123    5.7255  -72.0658 H   0  0  0  1  0  0  0  0  0  0  0  0
   25.6635    4.2807  -73.1817 H   0  0  0  1  0  0  0  0  0  0  0  0
   25.7755    2.8843  -71.2224 H   0  0  0  1  0  0  0  0  0  0  0  0
  1  3  4  0  0  0  0
  1 14  4  0  0  0  0
  1 21  1  0  0  0  0
  2 14  4  0  0  0  0
  2 15  4  0  0  0  0
  2 30  1  0  0  0  0
  3 16  4  0  0  0  0
  4  5  4  0  0  0  0
  4  7  4  0  0  0  0
  4 17  1  0  0  0  0
  5  9  4  0  0  0  0
  5 31  1  0  0  0  0
  6  7  4  0  0  0  0
  6  8  4  0  0  0  0
  6 32  1  0  0  0  0
  7 33  1  0  0  0  0
  8  9  4  0  0  0  0
  8 20  1  0  0  0  0
  9 34  1  0  0  0  0
 10 11  1  0  0  0  0
 10 21  1  0  0  0  0
 10 24  1  0  0  0  0
 10 35  1  0  0  0  0
 11 12  1  0  0  0  0
 11 36  1  0  0  0  0
 11 37  1  0  0  0  0
 12 23  1  0  0  0  0
 12 38  1  0  0  0  0
 12 39  1  0  0  0  0
 13 23  1  0  0  0  0
 13 25  4  0  0  0  0
 13 29  4  0  0  0  0
 15 16  4  0  0  0  0
 15 18  4  0  0  0  0
 16 17  4  0  0  0  0
 17 19  4  0  0  0  0
 18 19  4  0  0  0  0
 20 22  1  0  0  0  0
 21 40  1  0  0  0  0
 22 41  1  0  0  0  0
 22 42  1  0  0  0  0
 22 43  1  0  0  0  0
 23 24  1  0  0  0  0
 24 44  1  0  0  0  0
 24 45  1  0  0  0  0
 25 26  4  0  0  0  0
 25 46  1  0  0  0  0
 26 27  4  0  0  0  0
 26 47  1  0  0  0  0
 27 28  4  0  0  0  0
 28 29  4  0  0  0  0
 28 48  1  0  0  0  0
 29 49  1  0  0  0  0
M  END
> <ConfClashScore>
0 

> <ConfOneFourInteractionScore>
-0.983503 

> <ConfScore>
0.155648 

> <ConfScorePBest>
0.0016873 

> <ConfTolerance>
0.437553 

> <HETNAM>
     OWQ A 303  OWQ                                                       

> <pdb_OW>
Q_303 -16.5129 3.80749 7.62812 0.15963 1.39178 -0.28144 -3.20151 0 0 0 -1.30514 0 0 0 0 0 0 0 0 -8.31393

$$$$
6yky_lig_1.pdb
 OpenBabel04162415593D

 49 53  0  0  0  0  0  0  0  0999 V2000
   25.1046    1.8133  -65.3760 C   0  0  0  1  0  0  0  0  0  0  0  0
   26.9167    0.5034  -65.9326 C   0  0  0  1  0  0  0  0  0  0  0  0
   25.4177    1.8281  -64.0982 N   0  0  0  1  0  0  0  0  0  0  0  0
   26.7863    1.5428  -61.1529 C   0  0  0  1  0  0  0  0  0  0  0  0
   27.3661    2.7307  -60.7494 C   0  0  0  1  0  0  0  0  0  0  0  0
   25.7744    1.3006  -58.9931 C   0  0  0  1  0  0  0  0  0  0  0  0
   25.9914    0.8252  -60.2726 C   0  0  0  1  0  0  0  0  0  0  0  0
   26.3558    2.4921  -58.5883 C   0  0  0  1  0  0  0  0  0  0  0  0
   27.1484    3.2074  -59.4661 C   0  0  0  1  0  0  0  0  0  0  0  0
   23.6208    2.6316  -67.1781 C   0  0  0  1  0  0  0  0  0  0  0  0
   22.8904    3.9635  -67.4130 C   0  0  0  1  0  0  0  0  0  0  0  0
   22.0919    3.6600  -68.6901 C   0  0  0  1  0  0  0  0  0  0  0  0
   22.0398    1.4960  -70.0638 C   0  0  0  1  0  0  0  0  0  0  0  0
   25.8296    1.1706  -66.2748 N   0  0  0  1  0  0  0  0  0  0  0  0
   27.2965    0.4857  -64.5857 C   0  0  0  1  0  0  0  0  0  0  0  0
   26.4935    1.1850  -63.6614 C   0  0  0  1  0  0  0  0  0  0  0  0
   27.0808    1.0060  -62.4394 N   0  0  0  1  0  0  0  0  0  0  0  0
   28.3159   -0.0766  -63.9004 N   0  0  0  1  0  0  0  0  0  0  0  0
   28.2164    0.2092  -62.6490 N   0  0  0  1  0  0  0  0  0  0  0  0
   26.2200    3.0525  -57.3630 O   0  0  0  1  0  0  0  0  0  0  0  0
   24.0032    2.4783  -65.7852 N   0  0  0  1  0  0  0  0  0  0  0  0
   25.3022    2.4263  -56.4531 C   0  0  0  1  0  0  0  0  0  0  0  0
   22.2153    2.1849  -68.8899 N   0  0  0  1  0  0  0  0  0  0  0  0
   22.5634    1.6165  -67.5745 C   0  0  0  1  0  0  0  0  0  0  0  0
   23.1619    1.1313  -70.7847 C   0  0  0  1  0  0  0  0  0  0  0  0
   22.9933    0.5165  -72.0108 C   0  0  0  1  0  0  0  0  0  0  0  0
   21.7956    0.2557  -72.5436 N   0  0  0  1  0  0  0  0  0  0  0  0
   20.7165    0.6185  -71.8358 C   0  0  0  1  0  0  0  0  0  0  0  0
   20.7936    1.2349  -70.5991 C   0  0  0  1  0  0  0  0  0  0  0  0
   27.4790    0.0014  -66.6492 H   0  0  0  1  0  0  0  0  0  0  0  0
   27.9657    3.2670  -61.4086 H   0  0  0  1  0  0  0  0  0  0  0  0
   25.1748    0.7644  -58.3339 H   0  0  0  1  0  0  0  0  0  0  0  0
   25.5584   -0.0707  -60.5749 H   0  0  0  1  0  0  0  0  0  0  0  0
   27.5814    4.1033  -59.1637 H   0  0  0  1  0  0  0  0  0  0  0  0
   24.4891    2.5503  -67.7980 H   0  0  0  1  0  0  0  0  0  0  0  0
   22.2425    4.2023  -66.5956 H   0  0  0  1  0  0  0  0  0  0  0  0
   23.5818    4.7654  -67.5667 H   0  0  0  1  0  0  0  0  0  0  0  0
   21.0659    3.9368  -68.5652 H   0  0  0  1  0  0  0  0  0  0  0  0
   22.5051    4.1872  -69.5246 H   0  0  0  1  0  0  0  0  0  0  0  0
   23.4277    2.8815  -65.1021 H   0  0  0  1  0  0  0  0  0  0  0  0
   24.3724    2.9558  -56.4629 H   0  0  0  1  0  0  0  0  0  0  0  0
   25.7121    2.4441  -55.4649 H   0  0  0  1  0  0  0  0  0  0  0  0
   25.1383    1.4125  -56.7535 H   0  0  0  1  0  0  0  0  0  0  0  0
   21.7317    1.6141  -66.9013 H   0  0  0  1  0  0  0  0  0  0  0  0
   22.9619    0.6266  -67.6535 H   0  0  0  1  0  0  0  0  0  0  0  0
   24.1147    1.3162  -70.4112 H   0  0  0  1  0  0  0  0  0  0  0  0
   23.8418    0.2428  -72.5463 H   0  0  0  1  0  0  0  0  0  0  0  0
   19.7756    0.4274  -72.2355 H   0  0  0  1  0  0  0  0  0  0  0  0
   19.9297    1.4967  -70.0827 H   0  0  0  1  0  0  0  0  0  0  0  0
  1  3  4  0  0  0  0
  1 14  4  0  0  0  0
  1 21  1  0  0  0  0
  2 14  4  0  0  0  0
  2 15  4  0  0  0  0
  2 30  1  0  0  0  0
  3 16  4  0  0  0  0
  4  5  4  0  0  0  0
  4  7  4  0  0  0  0
  4 17  1  0  0  0  0
  5  9  4  0  0  0  0
  5 31  1  0  0  0  0
  6  7  4  0  0  0  0
  6  8  4  0  0  0  0
  6 32  1  0  0  0  0
  7 33  1  0  0  0  0
  8  9  4  0  0  0  0
  8 20  1  0  0  0  0
  9 34  1  0  0  0  0
 10 11  1  0  0  0  0
 10 21  1  0  0  0  0
 10 24  1  0  0  0  0
 10 35  1  0  0  0  0
 11 12  1  0  0  0  0
 11 36  1  0  0  0  0
 11 37  1  0  0  0  0
 12 23  1  0  0  0  0
 12 38  1  0  0  0  0
 12 39  1  0  0  0  0
 13 23  1  0  0  0  0
 13 25  4  0  0  0  0
 13 29  4  0  0  0  0
 15 16  4  0  0  0  0
 15 18  4  0  0  0  0
 16 17  4  0  0  0  0
 17 19  4  0  0  0  0
 18 19  4  0  0  0  0
 20 22  1  0  0  0  0
 21 40  1  0  0  0  0
 22 41  1  0  0  0  0
 22 42  1  0  0  0  0
 22 43  1  0  0  0  0
 23 24  1  0  0  0  0
 24 44  1  0  0  0  0
 24 45  1  0  0  0  0
 25 26  4  0  0  0  0
 25 46  1  0  0  0  0
 26 27  4  0  0  0  0
 26 47  1  0  0  0  0
 27 28  4  0  0  0  0
 28 29  4  0  0  0  0
 28 48  1  0  0  0  0
 29 49  1  0  0  0  0
M  END
> <ConfClashScore>
0 

> <ConfOneFourInteractionScore>
-0.991755 

> <ConfScore>
0.155955 

> <ConfScorePBest>
0.00167397 

> <ConfTolerance>
0.717287 

> <HETNAM>
     OWQ A 303  OWQ                                                       

> <pdb_OW>
Q_303 -16.5129 3.80749 7.62812 0.15963 1.39178 -0.28144 -3.20151 0 0 0 -1.30514 0 0 0 0 0 0 0 0 -8.31393

$$$$
6yky_lig_1.pdb
 OpenBabel04162415593D

 49 53  0  0  0  0  0  0  0  0999 V2000
   25.1049    1.8137  -65.3760 C   0  0  0  1  0  0  0  0  0  0  0  0
   26.9167    0.5034  -65.9326 C   0  0  0  1  0  0  0  0  0  0  0  0
   25.4179    1.8285  -64.0983 N   0  0  0  1  0  0  0  0  0  0  0  0
   26.7286    1.4700  -61.1391 C   0  0  0  1  0  0  0  0  0  0  0  0
   27.0258    0.6539  -60.0640 C   0  0  0  1  0  0  0  0  0  0  0  0
   25.6303    3.0118  -59.6680 C   0  0  0  1  0  0  0  0  0  0  0  0
   26.0275    2.6493  -60.9413 C   0  0  0  1  0  0  0  0  0  0  0  0
   25.9282    2.1933  -58.5896 C   0  0  0  1  0  0  0  0  0  0  0  0
   26.6274    1.0175  -58.7870 C   0  0  0  1  0  0  0  0  0  0  0  0
   23.0753    3.1479  -64.9702 C   0  0  0  1  0  0  0  0  0  0  0  0
   23.7792    4.2538  -64.1677 C   0  0  0  1  0  0  0  0  0  0  0  0
   22.8477    4.3992  -62.9544 C   0  0  0  1  0  0  0  0  0  0  0  0
   20.6717    3.1332  -62.4461 C   0  0  0  1  0  0  0  0  0  0  0  0
   25.8297    1.1708  -66.2748 N   0  0  0  1  0  0  0  0  0  0  0  0
   27.2965    0.4858  -64.5857 C   0  0  0  1  0  0  0  0  0  0  0  0
   26.4937    1.1852  -63.6614 C   0  0  0  1  0  0  0  0  0  0  0  0
   27.0809    1.0062  -62.4395 N   0  0  0  1  0  0  0  0  0  0  0  0
   28.3158   -0.0766  -63.9004 N   0  0  0  1  0  0  0  0  0  0  0  0
   28.2164    0.2092  -62.6490 N   0  0  0  1  0  0  0  0  0  0  0  0
   25.4864    2.6460  -57.4002 O   0  0  0  1  0  0  0  0  0  0  0  0
   24.0036    2.4665  -65.8552 N   0  0  0  1  0  0  0  0  0  0  0  0
   25.7898    1.7951  -56.2704 C   0  0  0  1  0  0  0  0  0  0  0  0
   21.9126    3.2372  -63.0351 N   0  0  0  1  0  0  0  0  0  0  0  0
   22.5825    2.2237  -63.8710 C   0  0  0  1  0  0  0  0  0  0  0  0
   20.5504    2.7727  -61.1168 C   0  0  0  1  0  0  0  0  0  0  0  0
   19.2867    2.6841  -60.5648 C   0  0  0  1  0  0  0  0  0  0  0  0
   18.1662    2.9267  -61.2515 N   0  0  0  1  0  0  0  0  0  0  0  0
   18.2982    3.2709  -62.5404 C   0  0  0  1  0  0  0  0  0  0  0  0
   19.5243    3.3870  -63.1719 C   0  0  0  1  0  0  0  0  0  0  0  0
   27.4789    0.0014  -66.6491 H   0  0  0  1  0  0  0  0  0  0  0  0
   27.5483   -0.2328  -60.2130 H   0  0  0  1  0  0  0  0  0  0  0  0
   25.1078    3.8986  -59.5190 H   0  0  0  1  0  0  0  0  0  0  0  0
   25.8004    3.2615  -61.7509 H   0  0  0  1  0  0  0  0  0  0  0  0
   26.8544    0.4055  -57.9775 H   0  0  0  1  0  0  0  0  0  0  0  0
   22.2606    3.5412  -65.5415 H   0  0  0  1  0  0  0  0  0  0  0  0
   23.8368    5.1645  -64.7263 H   0  0  0  1  0  0  0  0  0  0  0  0
   24.7625    3.9543  -63.8706 H   0  0  0  1  0  0  0  0  0  0  0  0
   23.4096    4.3656  -62.0444 H   0  0  0  1  0  0  0  0  0  0  0  0
   22.3061    5.3206  -63.0060 H   0  0  0  1  0  0  0  0  0  0  0  0
   23.8362    2.4751  -66.8207 H   0  0  0  1  0  0  0  0  0  0  0  0
   25.3910    2.2306  -55.3780 H   0  0  0  1  0  0  0  0  0  0  0  0
   26.8507    1.6945  -56.1746 H   0  0  0  1  0  0  0  0  0  0  0  0
   25.3518    0.8308  -56.4228 H   0  0  0  1  0  0  0  0  0  0  0  0
   21.8999    1.4859  -64.2379 H   0  0  0  1  0  0  0  0  0  0  0  0
   23.3870    1.7416  -63.3561 H   0  0  0  1  0  0  0  0  0  0  0  0
   21.3945    2.5721  -60.5432 H   0  0  0  1  0  0  0  0  0  0  0  0
   19.2034    2.4148  -59.5637 H   0  0  0  1  0  0  0  0  0  0  0  0
   17.4376    3.4600  -63.0927 H   0  0  0  1  0  0  0  0  0  0  0  0
   19.5806    3.6601  -64.1739 H   0  0  0  1  0  0  0  0  0  0  0  0
  1  3  4  0  0  0  0
  1 14  4  0  0  0  0
  1 21  1  0  0  0  0
  2 14  4  0  0  0  0
  2 15  4  0  0  0  0
  2 30  1  0  0  0  0
  3 16  4  0  0  0  0
  4  5  4  0  0  0  0
  4  7  4  0  0  0  0
  4 17  1  0  0  0  0
  5  9  4  0  0  0  0
  5 31  1  0  0  0  0
  6  7  4  0  0  0  0
  6  8  4  0  0  0  0
  6 32  1  0  0  0  0
  7 33  1  0  0  0  0
  8  9  4  0  0  0  0
  8 20  1  0  0  0  0
  9 34  1  0  0  0  0
 10 11  1  0  0  0  0
 10 21  1  0  0  0  0
 10 24  1  0  0  0  0
 10 35  1  0  0  0  0
 11 12  1  0  0  0  0
 11 36  1  0  0  0  0
 11 37  1  0  0  0  0
 12 23  1  0  0  0  0
 12 38  1  0  0  0  0
 12 39  1  0  0  0  0
 13 23  1  0  0  0  0
 13 25  4  0  0  0  0
 13 29  4  0  0  0  0
 15 16  4  0  0  0  0
 15 18  4  0  0  0  0
 16 17  4  0  0  0  0
 17 19  4  0  0  0  0
 18 19  4  0  0  0  0
 20 22  1  0  0  0  0
 21 40  1  0  0  0  0
 22 41  1  0  0  0  0
 22 42  1  0  0  0  0
 22 43  1  0  0  0  0
 23 24  1  0  0  0  0
 24 44  1  0  0  0  0
 24 45  1  0  0  0  0
 25 26  4  0  0  0  0
 25 46  1  0  0  0  0
 26 27  4  0  0  0  0
 26 47  1  0  0  0  0
 27 28  4  0  0  0  0
 28 29  4  0  0  0  0
 28 48  1  0  0  0  0
 29 49  1  0  0  0  0
M  END
> <ConfClashScore>
0 

> <ConfOneFourInteractionScore>
-0.983503 

> <ConfScore>
0.158119 

> <ConfScorePBest>
0.00166065 

> <ConfTolerance>
0.427652 

> <HETNAM>
     OWQ A 303  OWQ                                                       

> <pdb_OW>
Q_303 -16.5129 3.80749 7.62812 0.15963 1.39178 -0.28144 -3.20151 0 0 0 -1.30514 0 0 0 0 0 0 0 0 -8.31393

$$$$
6yky_lig_1.pdb
 OpenBabel04162415593D

 49 53  0  0  0  0  0  0  0  0999 V2000
   25.1047    1.8134  -65.3759 C   0  0  0  1  0  0  0  0  0  0  0  0
   26.9167    0.5034  -65.9326 C   0  0  0  1  0  0  0  0  0  0  0  0
   25.4178    1.8282  -64.0982 N   0  0  0  1  0  0  0  0  0  0  0  0
   26.7286    1.4698  -61.1391 C   0  0  0  1  0  0  0  0  0  0  0  0
   27.2027    0.8142  -60.0186 C   0  0  0  1  0  0  0  0  0  0  0  0
   25.4245    2.9178  -59.7427 C   0  0  0  1  0  0  0  0  0  0  0  0
   25.8361    2.5216  -61.0012 C   0  0  0  1  0  0  0  0  0  0  0  0
   25.8998    2.2603  -58.6188 C   0  0  0  1  0  0  0  0  0  0  0  0
   26.7898    1.2117  -58.7565 C   0  0  0  1  0  0  0  0  0  0  0  0
   23.6068    2.6007  -67.1744 C   0  0  0  1  0  0  0  0  0  0  0  0
   23.4188    1.2228  -67.8288 C   0  0  0  1  0  0  0  0  0  0  0  0
   23.6016    1.5440  -69.3015 C   0  0  0  1  0  0  0  0  0  0  0  0
   26.0050    2.1360  -70.0278 C   0  0  0  1  0  0  0  0  0  0  0  0
   25.8296    1.1706  -66.2748 N   0  0  0  1  0  0  0  0  0  0  0  0
   27.2965    0.4857  -64.5857 C   0  0  0  1  0  0  0  0  0  0  0  0
   26.4936    1.1851  -63.6614 C   0  0  0  1  0  0  0  0  0  0  0  0
   27.0809    1.0061  -62.4395 N   0  0  0  1  0  0  0  0  0  0  0  0
   28.3159   -0.0766  -63.9004 N   0  0  0  1  0  0  0  0  0  0  0  0
   28.2164    0.2092  -62.6490 N   0  0  0  1  0  0  0  0  0  0  0  0
   25.4924    2.6452  -57.3860 O   0  0  0  1  0  0  0  0  0  0  0  0
   24.0073    2.4761  -65.7837 N   0  0  0  1  0  0  0  0  0  0  0  0
   25.9317    1.8520  -56.2723 C   0  0  0  1  0  0  0  0  0  0  0  0
   24.8764    2.2776  -69.1954 N   0  0  0  1  0  0  0  0  0  0  0  0
   24.7333    3.2008  -68.0299 C   0  0  0  1  0  0  0  0  0  0  0  0
   26.0183    2.8129  -71.2333 C   0  0  0  1  0  0  0  0  0  0  0  0
   27.1214    2.6844  -72.0556 C   0  0  0  1  0  0  0  0  0  0  0  0
   28.1834    1.9333  -71.7485 N   0  0  0  1  0  0  0  0  0  0  0  0
   28.1551    1.2790  -70.5788 C   0  0  0  1  0  0  0  0  0  0  0  0
   27.0936    1.3541  -69.6940 C   0  0  0  1  0  0  0  0  0  0  0  0
   27.4789    0.0013  -66.6492 H   0  0  0  1  0  0  0  0  0  0  0  0
   27.8691    0.0226  -60.1224 H   0  0  0  1  0  0  0  0  0  0  0  0
   24.7579    3.7094  -59.6390 H   0  0  0  1  0  0  0  0  0  0  0  0
   25.4763    3.0122  -61.8446 H   0  0  0  1  0  0  0  0  0  0  0  0
   27.1495    0.7209  -57.9132 H   0  0  0  1  0  0  0  0  0  0  0  0
   22.7143    3.1876  -67.2378 H   0  0  0  1  0  0  0  0  0  0  0  0
   24.1570    0.5271  -67.4884 H   0  0  0  1  0  0  0  0  0  0  0  0
   22.4423    0.8308  -67.6350 H   0  0  0  1  0  0  0  0  0  0  0  0
   23.6905    0.6618  -69.9004 H   0  0  0  1  0  0  0  0  0  0  0  0
   22.8121    2.1569  -69.6834 H   0  0  0  1  0  0  0  0  0  0  0  0
   23.4448    2.8997  -65.1022 H   0  0  0  1  0  0  0  0  0  0  0  0
   27.0010    1.8532  -56.2327 H   0  0  0  1  0  0  0  0  0  0  0  0
   25.5805    0.8481  -56.3892 H   0  0  0  1  0  0  0  0  0  0  0  0
   25.5410    2.2638  -55.3653 H   0  0  0  1  0  0  0  0  0  0  0  0
   24.4699    4.1837  -68.3604 H   0  0  0  1  0  0  0  0  0  0  0  0
   25.6452    3.2440  -67.4717 H   0  0  0  1  0  0  0  0  0  0  0  0
   25.2133    3.4076  -71.5159 H   0  0  0  1  0  0  0  0  0  0  0  0
   27.1255    3.1985  -72.9597 H   0  0  0  1  0  0  0  0  0  0  0  0
   28.9707    0.6862  -70.3237 H   0  0  0  1  0  0  0  0  0  0  0  0
   27.1150    0.8317  -68.7950 H   0  0  0  1  0  0  0  0  0  0  0  0
  1  3  4  0  0  0  0
  1 14  4  0  0  0  0
  1 21  1  0  0  0  0
  2 14  4  0  0  0  0
  2 15  4  0  0  0  0
  2 30  1  0  0  0  0
  3 16  4  0  0  0  0
  4  5  4  0  0  0  0
  4  7  4  0  0  0  0
  4 17  1  0  0  0  0
  5  9  4  0  0  0  0
  5 31  1  0  0  0  0
  6  7  4  0  0  0  0
  6  8  4  0  0  0  0
  6 32  1  0  0  0  0
  7 33  1  0  0  0  0
  8  9  4  0  0  0  0
  8 20  1  0  0  0  0
  9 34  1  0  0  0  0
 10 11  1  0  0  0  0
 10 21  1  0  0  0  0
 10 24  1  0  0  0  0
 10 35  1  0  0  0  0
 11 12  1  0  0  0  0
 11 36  1  0  0  0  0
 11 37  1  0  0  0  0
 12 23  1  0  0  0  0
 12 38  1  0  0  0  0
 12 39  1  0  0  0  0
 13 23  1  0  0  0  0
 13 25  4  0  0  0  0
 13 29  4  0  0  0  0
 15 16  4  0  0  0  0
 15 18  4  0  0  0  0
 16 17  4  0  0  0  0
 17 19  4  0  0  0  0
 18 19  4  0  0  0  0
 20 22  1  0  0  0  0
 21 40  1  0  0  0  0
 22 41  1  0  0  0  0
 22 42  1  0  0  0  0
 22 43  1  0  0  0  0
 23 24  1  0  0  0  0
 24 44  1  0  0  0  0
 24 45  1  0  0  0  0
 25 26  4  0  0  0  0
 25 46  1  0  0  0  0
 26 27  4  0  0  0  0
 26 47  1  0  0  0  0
 27 28  4  0  0  0  0
 28 29  4  0  0  0  0
 28 48  1  0  0  0  0
 29 49  1  0  0  0  0
M  END
> <ConfClashScore>
0 

> <ConfOneFourInteractionScore>
-0.983503 

> <ConfScore>
0.158119 

> <ConfScorePBest>
0.00164732 

> <ConfTolerance>
0.714509 

> <HETNAM>
     OWQ A 303  OWQ                                                       

> <pdb_OW>
Q_303 -16.5129 3.80749 7.62812 0.15963 1.39178 -0.28144 -3.20151 0 0 0 -1.30514 0 0 0 0 0 0 0 0 -8.31393

$$$$
6yky_lig_1.pdb
 OpenBabel04162415593D

 49 53  0  0  0  0  0  0  0  0999 V2000
   25.1048    1.8135  -65.3760 C   0  0  0  1  0  0  0  0  0  0  0  0
   26.9167    0.5034  -65.9326 C   0  0  0  1  0  0  0  0  0  0  0  0
   25.4179    1.8284  -64.0983 N   0  0  0  1  0  0  0  0  0  0  0  0
   26.7287    1.4700  -61.1391 C   0  0  0  1  0  0  0  0  0  0  0  0
   27.6009    1.1976  -60.1021 C   0  0  0  1  0  0  0  0  0  0  0  0
   25.1824    2.4419  -59.5861 C   0  0  0  1  0  0  0  0  0  0  0  0
   25.5165    2.0907  -60.8805 C   0  0  0  1  0  0  0  0  0  0  0  0
   26.0571    2.1688  -58.5461 C   0  0  0  1  0  0  0  0  0  0  0  0
   27.2657    1.5500  -58.8041 C   0  0  0  1  0  0  0  0  0  0  0  0
   23.6561    2.6798  -67.1781 C   0  0  0  1  0  0  0  0  0  0  0  0
   23.4094    1.3414  -67.8925 C   0  0  0  1  0  0  0  0  0  0  0  0
   23.6568    1.7216  -69.3604 C   0  0  0  1  0  0  0  0  0  0  0  0
   24.2850    4.0376  -70.3643 C   0  0  0  1  0  0  0  0  0  0  0  0
   25.8296    1.1707  -66.2748 N   0  0  0  1  0  0  0  0  0  0  0  0
   27.2965    0.4858  -64.5857 C   0  0  0  1  0  0  0  0  0  0  0  0
   26.4937    1.1852  -63.6614 C   0  0  0  1  0  0  0  0  0  0  0  0
   27.0810    1.0062  -62.4395 N   0  0  0  1  0  0  0  0  0  0  0  0
   28.3159   -0.0766  -63.9004 N   0  0  0  1  0  0  0  0  0  0  0  0
   28.2164    0.2093  -62.6490 N   0  0  0  1  0  0  0  0  0  0  0  0
   25.8380    2.4596  -57.2451 O   0  0  0  1  0  0  0  0  0  0  0  0
   24.0074    2.4763  -65.7837 N   0  0  0  1  0  0  0  0  0  0  0  0
   24.6281    3.1337  -56.8652 C   0  0  0  1  0  0  0  0  0  0  0  0
   24.2601    3.0873  -69.3168 N   0  0  0  1  0  0  0  0  0  0  0  0
   24.8247    3.2475  -67.9639 C   0  0  0  1  0  0  0  0  0  0  0  0
   23.6228    3.7934  -71.5532 C   0  0  0  1  0  0  0  0  0  0  0  0
   23.6698    4.7505  -72.5488 C   0  0  0  1  0  0  0  0  0  0  0  0
   24.3279    5.9073  -72.4257 N   0  0  0  1  0  0  0  0  0  0  0  0
   24.9690    6.1291  -71.2694 C   0  0  0  1  0  0  0  0  0  0  0  0
   24.9711    5.2275  -70.2194 C   0  0  0  1  0  0  0  0  0  0  0  0
   27.4789    0.0013  -66.6492 H   0  0  0  1  0  0  0  0  0  0  0  0
   28.5085    0.7283  -60.2958 H   0  0  0  1  0  0  0  0  0  0  0  0
   24.2747    2.9112  -59.3926 H   0  0  0  1  0  0  0  0  0  0  0  0
   24.8586    2.2920  -61.6604 H   0  0  0  1  0  0  0  0  0  0  0  0
   27.9237    1.3486  -58.0243 H   0  0  0  1  0  0  0  0  0  0  0  0
   22.7992    3.3174  -67.2411 H   0  0  0  1  0  0  0  0  0  0  0  0
   22.4072    0.9982  -67.7422 H   0  0  0  1  0  0  0  0  0  0  0  0
   24.0972    0.5909  -67.5629 H   0  0  0  1  0  0  0  0  0  0  0  0
   22.7354    1.7362  -69.9042 H   0  0  0  1  0  0  0  0  0  0  0  0
   24.3309    1.0285  -69.8186 H   0  0  0  1  0  0  0  0  0  0  0  0
   23.4098    2.8435  -65.0994 H   0  0  0  1  0  0  0  0  0  0  0  0
   24.5099    4.0165  -57.4580 H   0  0  0  1  0  0  0  0  0  0  0  0
   24.6799    3.4031  -55.8310 H   0  0  0  1  0  0  0  0  0  0  0  0
   23.7931    2.4836  -57.0237 H   0  0  0  1  0  0  0  0  0  0  0  0
   25.0149    4.2726  -67.7231 H   0  0  0  1  0  0  0  0  0  0  0  0
   25.7196    2.6767  -67.8282 H   0  0  0  1  0  0  0  0  0  0  0  0
   23.0994    2.9061  -71.6956 H   0  0  0  1  0  0  0  0  0  0  0  0
   23.1673    4.5611  -73.4395 H   0  0  0  1  0  0  0  0  0  0  0  0
   25.4899    7.0219  -71.1559 H   0  0  0  1  0  0  0  0  0  0  0  0
   25.4797    5.4420  -69.3379 H   0  0  0  1  0  0  0  0  0  0  0  0
  1  3  4  0  0  0  0
  1 14  4  0  0  0  0
  1 21  1  0  0  0  0
  2 14  4  0  0  0  0
  2 15  4  0  0  0  0
  2 30  1  0  0  0  0
  3 16  4  0  0  0  0
  4  5  4  0  0  0  0
  4  7  4  0  0  0  0
  4 17  1  0  0  0  0
  5  9  4  0  0  0  0
  5 31  1  0  0  0  0
  6  7  4  0  0  0  0
  6  8  4  0  0  0  0
  6 32  1  0  0  0  0
  7 33  1  0  0  0  0
  8  9  4  0  0  0  0
  8 20  1  0  0  0  0
  9 34  1  0  0  0  0
 10 11  1  0  0  0  0
 10 21  1  0  0  0  0
 10 24  1  0  0  0  0
 10 35  1  0  0  0  0
 11 12  1  0  0  0  0
 11 36  1  0  0  0  0
 11 37  1  0  0  0  0
 12 23  1  0  0  0  0
 12 38  1  0  0  0  0
 12 39  1  0  0  0  0
 13 23  1  0  0  0  0
 13 25  4  0  0  0  0
 13 29  4  0  0  0  0
 15 16  4  0  0  0  0
 15 18  4  0  0  0  0
 16 17  4  0  0  0  0
 17 19  4  0  0  0  0
 18 19  4  0  0  0  0
 20 22  1  0  0  0  0
 21 40  1  0  0  0  0
 22 41  1  0  0  0  0
 22 42  1  0  0  0  0
 22 43  1  0  0  0  0
 23 24  1  0  0  0  0
 24 44  1  0  0  0  0
 24 45  1  0  0  0  0
 25 26  4  0  0  0  0
 25 46  1  0  0  0  0
 26 27  4  0  0  0  0
 26 47  1  0  0  0  0
 27 28  4  0  0  0  0
 28 29  4  0  0  0  0
 28 48  1  0  0  0  0
 29 49  1  0  0  0  0
M  END
> <ConfClashScore>
0 

> <ConfOneFourInteractionScore>
-0.983503 

> <ConfScore>
0.164333 

> <ConfScorePBest>
0.00163399 

> <ConfTolerance>
0.431211 

> <HETNAM>
     OWQ A 303  OWQ                                                       

> <pdb_OW>
Q_303 -16.5129 3.80749 7.62812 0.15963 1.39178 -0.28144 -3.20151 0 0 0 -1.30514 0 0 0 0 0 0 0 0 -8.31393

$$$$
6yky_lig_1.pdb
 OpenBabel04162415593D

 49 53  0  0  0  0  0  0  0  0999 V2000
   25.1048    1.8135  -65.3760 C   0  0  0  1  0  0  0  0  0  0  0  0
   26.9167    0.5034  -65.9326 C   0  0  0  1  0  0  0  0  0  0  0  0
   25.4178    1.8283  -64.0982 N   0  0  0  1  0  0  0  0  0  0  0  0
   26.6855    1.4950  -61.1608 C   0  0  0  1  0  0  0  0  0  0  0  0
   25.3971    1.2836  -60.7073 C   0  0  0  1  0  0  0  0  0  0  0  0
   27.1576    2.8107  -59.2132 C   0  0  0  1  0  0  0  0  0  0  0  0
   27.5663    2.2618  -60.4140 C   0  0  0  1  0  0  0  0  0  0  0  0
   25.8655    2.5988  -58.7582 C   0  0  0  1  0  0  0  0  0  0  0  0
   24.9874    1.8341  -59.5030 C   0  0  0  1  0  0  0  0  0  0  0  0
   23.0607    3.1975  -64.9317 C   0  0  0  1  0  0  0  0  0  0  0  0
   23.7777    4.2204  -64.0077 C   0  0  0  1  0  0  0  0  0  0  0  0
   22.9094    4.3915  -62.7436 C   0  0  0  1  0  0  0  0  0  0  0  0
   20.9311    2.9707  -61.9178 C   0  0  0  1  0  0  0  0  0  0  0  0
   25.8297    1.1707  -66.2747 N   0  0  0  1  0  0  0  0  0  0  0  0
   27.2965    0.4858  -64.5857 C   0  0  0  1  0  0  0  0  0  0  0  0
   26.4937    1.1852  -63.6614 C   0  0  0  1  0  0  0  0  0  0  0  0
   27.0810    1.0062  -62.4395 N   0  0  0  1  0  0  0  0  0  0  0  0
   28.3159   -0.0766  -63.9004 N   0  0  0  1  0  0  0  0  0  0  0  0
   28.2164    0.2092  -62.6490 N   0  0  0  1  0  0  0  0  0  0  0  0
   25.5783    3.1895  -57.5740 O   0  0  0  1  0  0  0  0  0  0  0  0
   24.0075    2.4762  -65.7838 N   0  0  0  1  0  0  0  0  0  0  0  0
   24.2622    2.9806  -57.0385 C   0  0  0  1  0  0  0  0  0  0  0  0
   22.0219    3.1951  -62.7898 N   0  0  0  1  0  0  0  0  0  0  0  0
   22.4338    2.2784  -63.8654 C   0  0  0  1  0  0  0  0  0  0  0  0
   20.8784    1.8338  -61.1329 C   0  0  0  1  0  0  0  0  0  0  0  0
   19.7962    1.6561  -60.2921 C   0  0  0  1  0  0  0  0  0  0  0  0
   18.7882    2.5285  -60.1974 N   0  0  0  1  0  0  0  0  0  0  0  0
   18.8501    3.6243  -60.9672 C   0  0  0  1  0  0  0  0  0  0  0  0
   19.8976    3.8833  -61.8338 C   0  0  0  1  0  0  0  0  0  0  0  0
   27.4789    0.0014  -66.6492 H   0  0  0  1  0  0  0  0  0  0  0  0
   24.7352    0.7116  -61.2696 H   0  0  0  1  0  0  0  0  0  0  0  0
   27.8196    3.3827  -58.6508 H   0  0  0  1  0  0  0  0  0  0  0  0
   28.5345    2.4241  -60.7573 H   0  0  0  1  0  0  0  0  0  0  0  0
   24.0192    1.6717  -59.1597 H   0  0  0  1  0  0  0  0  0  0  0  0
   22.3162    3.6653  -65.5415 H   0  0  0  1  0  0  0  0  0  0  0  0
   23.8787    5.1590  -64.5112 H   0  0  0  1  0  0  0  0  0  0  0  0
   24.7460    3.8533  -63.7387 H   0  0  0  1  0  0  0  0  0  0  0  0
   22.3396    5.2960  -62.7868 H   0  0  0  1  0  0  0  0  0  0  0  0
   23.5118    4.3906  -61.8592 H   0  0  0  1  0  0  0  0  0  0  0  0
   23.8239    2.4762  -66.7464 H   0  0  0  1  0  0  0  0  0  0  0  0
   24.2183    3.3618  -56.0396 H   0  0  0  1  0  0  0  0  0  0  0  0
   24.0427    1.9334  -57.0304 H   0  0  0  1  0  0  0  0  0  0  0  0
   23.5449    3.4911  -57.6466 H   0  0  0  1  0  0  0  0  0  0  0  0
   21.5882    1.7580  -64.2640 H   0  0  0  1  0  0  0  0  0  0  0  0
   23.1517    1.5710  -63.5059 H   0  0  0  1  0  0  0  0  0  0  0  0
   21.6388    1.1255  -61.1746 H   0  0  0  1  0  0  0  0  0  0  0  0
   19.7646    0.7997  -59.7029 H   0  0  0  1  0  0  0  0  0  0  0  0
   18.0731    4.3133  -60.9105 H   0  0  0  1  0  0  0  0  0  0  0  0
   19.9065    4.7485  -62.4108 H   0  0  0  1  0  0  0  0  0  0  0  0
  1  3  4  0  0  0  0
  1 14  4  0  0  0  0
  1 21  1  0  0  0  0
  2 14  4  0  0  0  0
  2 15  4  0  0  0  0
  2 30  1  0  0  0  0
  3 16  4  0  0  0  0
  4  5  4  0  0  0  0
  4  7  4  0  0  0  0
  4 17  1  0  0  0  0
  5  9  4  0  0  0  0
  5 31  1  0  0  0  0
  6  7  4  0  0  0  0
  6  8  4  0  0  0  0
  6 32  1  0  0  0  0
  7 33  1  0  0  0  0
  8  9  4  0  0  0  0
  8 20  1  0  0  0  0
  9 34  1  0  0  0  0
 10 11  1  0  0  0  0
 10 21  1  0  0  0  0
 10 24  1  0  0  0  0
 10 35  1  0  0  0  0
 11 12  1  0  0  0  0
 11 36  1  0  0  0  0
 11 37  1  0  0  0  0
 12 23  1  0  0  0  0
 12 38  1  0  0  0  0
 12 39  1  0  0  0  0
 13 23  1  0  0  0  0
 13 25  4  0  0  0  0
 13 29  4  0  0  0  0
 15 16  4  0  0  0  0
 15 18  4  0  0  0  0
 16 17  4  0  0  0  0
 17 19  4  0  0  0  0
 18 19  4  0  0  0  0
 20 22  1  0  0  0  0
 21 40  1  0  0  0  0
 22 41  1  0  0  0  0
 22 42  1  0  0  0  0
 22 43  1  0  0  0  0
 23 24  1  0  0  0  0
 24 44  1  0  0  0  0
 24 45  1  0  0  0  0
 25 26  4  0  0  0  0
 25 46  1  0  0  0  0
 26 27  4  0  0  0  0
 26 47  1  0  0  0  0
 27 28  4  0  0  0  0
 28 29  4  0  0  0  0
 28 48  1  0  0  0  0
 29 49  1  0  0  0  0
M  END
> <ConfClashScore>
0 

> <ConfOneFourInteractionScore>
-0.983503 

> <ConfScore>
0.164916 

> <ConfScorePBest>
0.00162066 

> <ConfTolerance>
0.500509 

> <HETNAM>
     OWQ A 303  OWQ                                                       

> <pdb_OW>
Q_303 -16.5129 3.80749 7.62812 0.15963 1.39178 -0.28144 -3.20151 0 0 0 -1.30514 0 0 0 0 0 0 0 0 -8.31393

$$$$
6yky_lig_1.pdb
 OpenBabel04162415593D

 49 53  0  0  0  0  0  0  0  0999 V2000
   25.1048    1.8136  -65.3760 C   0  0  0  1  0  0  0  0  0  0  0  0
   26.9167    0.5034  -65.9326 C   0  0  0  1  0  0  0  0  0  0  0  0
   25.4178    1.8283  -64.0982 N   0  0  0  1  0  0  0  0  0  0  0  0
   26.7669    1.4473  -61.1215 C   0  0  0  1  0  0  0  0  0  0  0  0
   25.5484    1.0684  -60.5908 C   0  0  0  1  0  0  0  0  0  0  0  0
   27.2043    2.7759  -59.1745 C   0  0  0  1  0  0  0  0  0  0  0  0
   27.5950    2.3045  -60.4136 C   0  0  0  1  0  0  0  0  0  0  0  0
   25.9821    2.3960  -58.6420 C   0  0  0  1  0  0  0  0  0  0  0  0
   25.1566    1.5413  -59.3481 C   0  0  0  1  0  0  0  0  0  0  0  0
   23.3633    2.5699  -67.0087 C   0  0  0  1  0  0  0  0  0  0  0  0
   22.8548    1.1911  -67.4585 C   0  0  0  1  0  0  0  0  0  0  0  0
   22.8059    1.3598  -68.9849 C   0  0  0  1  0  0  0  0  0  0  0  0
   23.3948    3.4301  -70.3862 C   0  0  0  1  0  0  0  0  0  0  0  0
   25.8297    1.1707  -66.2747 N   0  0  0  1  0  0  0  0  0  0  0  0
   27.2965    0.4857  -64.5857 C   0  0  0  1  0  0  0  0  0  0  0  0
   26.4937    1.1851  -63.6614 C   0  0  0  1  0  0  0  0  0  0  0  0
   27.0809    1.0061  -62.4395 N   0  0  0  1  0  0  0  0  0  0  0  0
   28.3159   -0.0766  -63.9004 N   0  0  0  1  0  0  0  0  0  0  0  0
   28.2164    0.2092  -62.6490 N   0  0  0  1  0  0  0  0  0  0  0  0
   25.4931    2.7947  -57.4476 O   0  0  0  1  0  0  0  0  0  0  0  0
   23.9992    2.4984  -65.6891 N   0  0  0  1  0  0  0  0  0  0  0  0
   26.1930    3.7990  -56.6966 C   0  0  0  1  0  0  0  0  0  0  0  0
   23.5167    2.6441  -69.2616 N   0  0  0  1  0  0  0  0  0  0  0  0
   24.3751    2.9029  -68.0907 C   0  0  0  1  0  0  0  0  0  0  0  0
   22.5761    4.5442  -70.3821 C   0  0  0  1  0  0  0  0  0  0  0  0
   22.4860    5.3071  -71.5308 C   0  0  0  1  0  0  0  0  0  0  0  0
   23.1497    5.0230  -72.6555 N   0  0  0  1  0  0  0  0  0  0  0  0
   23.9364    3.9376  -72.6468 C   0  0  0  1  0  0  0  0  0  0  0  0
   24.0880    3.1205  -71.5401 C   0  0  0  1  0  0  0  0  0  0  0  0
   27.4789    0.0013  -66.6492 H   0  0  0  1  0  0  0  0  0  0  0  0
   24.9254    0.4284  -61.1238 H   0  0  0  1  0  0  0  0  0  0  0  0
   27.8272    3.4158  -58.6415 H   0  0  0  1  0  0  0  0  0  0  0  0
   28.5102    2.5928  -60.8148 H   0  0  0  1  0  0  0  0  0  0  0  0
   24.2415    1.2529  -58.9469 H   0  0  0  1  0  0  0  0  0  0  0  0
   22.5701    3.2876  -66.9845 H   0  0  0  1  0  0  0  0  0  0  0  0
   21.8846    0.9836  -67.0580 H   0  0  0  1  0  0  0  0  0  0  0  0
   23.5325    0.4137  -67.1738 H   0  0  0  1  0  0  0  0  0  0  0  0
   23.3029    0.5448  -69.4682 H   0  0  0  1  0  0  0  0  0  0  0  0
   21.7924    1.4119  -69.3239 H   0  0  0  1  0  0  0  0  0  0  0  0
   23.5719    3.0021  -64.9651 H   0  0  0  1  0  0  0  0  0  0  0  0
   26.2722    4.6917  -57.2812 H   0  0  0  1  0  0  0  0  0  0  0  0
   27.1728    3.4441  -56.4535 H   0  0  0  1  0  0  0  0  0  0  0  0
   25.6557    4.0094  -55.7956 H   0  0  0  1  0  0  0  0  0  0  0  0
   25.2269    2.2558  -68.0619 H   0  0  0  1  0  0  0  0  0  0  0  0
   24.6989    3.9217  -68.0430 H   0  0  0  1  0  0  0  0  0  0  0  0
   22.0382    4.8033  -69.5305 H   0  0  0  1  0  0  0  0  0  0  0  0
   21.8702    6.1451  -71.5195 H   0  0  0  1  0  0  0  0  0  0  0  0
   24.4583    3.6978  -73.5139 H   0  0  0  1  0  0  0  0  0  0  0  0
   24.7119    2.2892  -71.5766 H   0  0  0  1  0  0  0  0  0  0  0  0
  1  3  4  0  0  0  0
  1 14  4  0  0  0  0
  1 21  1  0  0  0  0
  2 14  4  0  0  0  0
  2 15  4  0  0  0  0
  2 30  1  0  0  0  0
  3 16  4  0  0  0  0
  4  5  4  0  0  0  0
  4  7  4  0  0  0  0
  4 17  1  0  0  0  0
  5  9  4  0  0  0  0
  5 31  1  0  0  0  0
  6  7  4  0  0  0  0
  6  8  4  0  0  0  0
  6 32  1  0  0  0  0
  7 33  1  0  0  0  0
  8  9  4  0  0  0  0
  8 20  1  0  0  0  0
  9 34  1  0  0  0  0
 10 11  1  0  0  0  0
 10 21  1  0  0  0  0
 10 24  1  0  0  0  0
 10 35  1  0  0  0  0
 11 12  1  0  0  0  0
 11 36  1  0  0  0  0
 11 37  1  0  0  0  0
 12 23  1  0  0  0  0
 12 38  1  0  0  0  0
 12 39  1  0  0  0  0
 13 23  1  0  0  0  0
 13 25  4  0  0  0  0
 13 29  4  0  0  0  0
 15 16  4  0  0  0  0
 15 18  4  0  0  0  0
 16 17  4  0  0  0  0
 17 19  4  0  0  0  0
 18 19  4  0  0  0  0
 20 22  1  0  0  0  0
 21 40  1  0  0  0  0
 22 41  1  0  0  0  0
 22 42  1  0  0  0  0
 22 43  1  0  0  0  0
 23 24  1  0  0  0  0
 24 44  1  0  0  0  0
 24 45  1  0  0  0  0
 25 26  4  0  0  0  0
 25 46  1  0  0  0  0
 26 27  4  0  0  0  0
 26 47  1  0  0  0  0
 27 28  4  0  0  0  0
 28 29  4  0  0  0  0
 28 48  1  0  0  0  0
 29 49  1  0  0  0  0
M  END
> <ConfClashScore>
0 

> <ConfOneFourInteractionScore>
-0.983503 

> <ConfScore>
0.169474 

> <ConfScorePBest>
0.00160733 

> <ConfTolerance>
0.473801 

> <HETNAM>
     OWQ A 303  OWQ                                                       

> <pdb_OW>
Q_303 -16.5129 3.80749 7.62812 0.15963 1.39178 -0.28144 -3.20151 0 0 0 -1.30514 0 0 0 0 0 0 0 0 -8.31393

$$$$
6yky_lig_1.pdb
 OpenBabel04162415593D

 49 53  0  0  0  0  0  0  0  0999 V2000
   25.1048    1.8137  -65.3760 C   0  0  0  1  0  0  0  0  0  0  0  0
   26.9167    0.5034  -65.9326 C   0  0  0  1  0  0  0  0  0  0  0  0
   25.4179    1.8285  -64.0983 N   0  0  0  1  0  0  0  0  0  0  0  0
   26.7670    1.4475  -61.1215 C   0  0  0  1  0  0  0  0  0  0  0  0
   27.6288    2.2955  -60.4521 C   0  0  0  1  0  0  0  0  0  0  0  0
   25.3827    1.3093  -59.1691 C   0  0  0  1  0  0  0  0  0  0  0  0
   25.6437    0.9514  -60.4784 C   0  0  0  1  0  0  0  0  0  0  0  0
   26.2471    2.1599  -58.4975 C   0  0  0  1  0  0  0  0  0  0  0  0
   27.3670    2.6543  -59.1390 C   0  0  0  1  0  0  0  0  0  0  0  0
   23.1680    3.2769  -64.9025 C   0  0  0  1  0  0  0  0  0  0  0  0
   23.9980    4.3190  -64.1359 C   0  0  0  1  0  0  0  0  0  0  0  0
   23.1049    4.5923  -62.9159 C   0  0  0  1  0  0  0  0  0  0  0  0
   20.8061    3.5805  -62.3475 C   0  0  0  1  0  0  0  0  0  0  0  0
   25.8297    1.1708  -66.2748 N   0  0  0  1  0  0  0  0  0  0  0  0
   27.2966    0.4857  -64.5857 C   0  0  0  1  0  0  0  0  0  0  0  0
   26.4937    1.1853  -63.6615 C   0  0  0  1  0  0  0  0  0  0  0  0
   27.0810    1.0062  -62.4396 N   0  0  0  1  0  0  0  0  0  0  0  0
   28.3159   -0.0766  -63.9004 N   0  0  0  1  0  0  0  0  0  0  0  0
   28.2164    0.2092  -62.6490 N   0  0  0  1  0  0  0  0  0  0  0  0
   26.0430    2.4279  -57.1859 O   0  0  0  1  0  0  0  0  0  0  0  0
   24.0076    2.4764  -65.7838 N   0  0  0  1  0  0  0  0  0  0  0  0
   26.9759    3.3110  -56.5437 C   0  0  0  1  0  0  0  0  0  0  0  0
   22.0492    3.5362  -62.9568 N   0  0  0  1  0  0  0  0  0  0  0  0
   22.5945    2.4372  -63.7750 C   0  0  0  1  0  0  0  0  0  0  0  0
   19.7905    4.3571  -62.8740 C   0  0  0  1  0  0  0  0  0  0  0  0
   18.5645    4.3691  -62.2365 C   0  0  0  1  0  0  0  0  0  0  0  0
   18.3054    3.6681  -61.1286 N   0  0  0  1  0  0  0  0  0  0  0  0
   19.3003    2.9228  -60.6267 C   0  0  0  1  0  0  0  0  0  0  0  0
   20.5568    2.8496  -61.2024 C   0  0  0  1  0  0  0  0  0  0  0  0
   27.4789    0.0012  -66.6492 H   0  0  0  1  0  0  0  0  0  0  0  0
   28.4737    2.6643  -60.9334 H   0  0  0  1  0  0  0  0  0  0  0  0
   24.5378    0.9404  -58.6878 H   0  0  0  1  0  0  0  0  0  0  0  0
   24.9974    0.3101  -60.9810 H   0  0  0  1  0  0  0  0  0  0  0  0
   28.0134    3.2956  -58.6365 H   0  0  0  1  0  0  0  0  0  0  0  0
   22.3921    3.7421  -65.4739 H   0  0  0  1  0  0  0  0  0  0  0  0
   24.9475    3.9224  -63.8430 H   0  0  0  1  0  0  0  0  0  0  0  0
   24.1450    5.2049  -64.7178 H   0  0  0  1  0  0  0  0  0  0  0  0
   23.6728    4.5197  -62.0120 H   0  0  0  1  0  0  0  0  0  0  0  0
   22.6646    5.5651  -62.9840 H   0  0  0  1  0  0  0  0  0  0  0  0
   23.7582    2.4173  -66.7297 H   0  0  0  1  0  0  0  0  0  0  0  0
   27.1469    4.1640  -57.1664 H   0  0  0  1  0  0  0  0  0  0  0  0
   27.9001    2.7966  -56.3819 H   0  0  0  1  0  0  0  0  0  0  0  0
   26.5755    3.6301  -55.6040 H   0  0  0  1  0  0  0  0  0  0  0  0
   21.8316    1.7687  -64.1154 H   0  0  0  1  0  0  0  0  0  0  0  0
   23.3498    1.8832  -63.2577 H   0  0  0  1  0  0  0  0  0  0  0  0
   19.9464    4.9216  -63.7333 H   0  0  0  1  0  0  0  0  0  0  0  0
   17.8046    4.9537  -62.6395 H   0  0  0  1  0  0  0  0  0  0  0  0
   19.1193    2.3730  -59.7627 H   0  0  0  1  0  0  0  0  0  0  0  0
   21.2991    2.2557  -60.7807 H   0  0  0  1  0  0  0  0  0  0  0  0
  1  3  4  0  0  0  0
  1 14  4  0  0  0  0
  1 21  1  0  0  0  0
  2 14  4  0  0  0  0
  2 15  4  0  0  0  0
  2 30  1  0  0  0  0
  3 16  4  0  0  0  0
  4  5  4  0  0  0  0
  4  7  4  0  0  0  0
  4 17  1  0  0  0  0
  5  9  4  0  0  0  0
  5 31  1  0  0  0  0
  6  7  4  0  0  0  0
  6  8  4  0  0  0  0
  6 32  1  0  0  0  0
  7 33  1  0  0  0  0
  8  9  4  0  0  0  0
  8 20  1  0  0  0  0
  9 34  1  0  0  0  0
 10 11  1  0  0  0  0
 10 21  1  0  0  0  0
 10 24  1  0  0  0  0
 10 35  1  0  0  0  0
 11 12  1  0  0  0  0
 11 36  1  0  0  0  0
 11 37  1  0  0  0  0
 12 23  1  0  0  0  0
 12 38  1  0  0  0  0
 12 39  1  0  0  0  0
 13 23  1  0  0  0  0
 13 25  4  0  0  0  0
 13 29  4  0  0  0  0
 15 16  4  0  0  0  0
 15 18  4  0  0  0  0
 16 17  4  0  0  0  0
 17 19  4  0  0  0  0
 18 19  4  0  0  0  0
 20 22  1  0  0  0  0
 21 40  1  0  0  0  0
 22 41  1  0  0  0  0
 22 42  1  0  0  0  0
 22 43  1  0  0  0  0
 23 24  1  0  0  0  0
 24 44  1  0  0  0  0
 24 45  1  0  0  0  0
 25 26  4  0  0  0  0
 25 46  1  0  0  0  0
 26 27  4  0  0  0  0
 26 47  1  0  0  0  0
 27 28  4  0  0  0  0
 28 29  4  0  0  0  0
 28 48  1  0  0  0  0
 29 49  1  0  0  0  0
M  END
> <ConfClashScore>
0 

> <ConfOneFourInteractionScore>
-0.983503 

> <ConfScore>
0.169474 

> <ConfScorePBest>
0.00159401 

> <ConfTolerance>
0.501121 

> <HETNAM>
     OWQ A 303  OWQ                                                       

> <pdb_OW>
Q_303 -16.5129 3.80749 7.62812 0.15963 1.39178 -0.28144 -3.20151 0 0 0 -1.30514 0 0 0 0 0 0 0 0 -8.31393

$$$$
6yky_lig_1.pdb
 OpenBabel04162415593D

 49 53  0  0  0  0  0  0  0  0999 V2000
   25.1048    1.8136  -65.3760 C   0  0  0  1  0  0  0  0  0  0  0  0
   26.9167    0.5034  -65.9325 C   0  0  0  1  0  0  0  0  0  0  0  0
   25.4178    1.8284  -64.0982 N   0  0  0  1  0  0  0  0  0  0  0  0
   26.7286    1.4699  -61.1390 C   0  0  0  1  0  0  0  0  0  0  0  0
   26.7462    2.8232  -60.8587 C   0  0  0  1  0  0  0  0  0  0  0  0
   26.2020    0.9998  -58.8480 C   0  0  0  1  0  0  0  0  0  0  0  0
   26.4587    0.5567  -60.1317 C   0  0  0  1  0  0  0  0  0  0  0  0
   26.2196    2.3571  -58.5667 C   0  0  0  1  0  0  0  0  0  0  0  0
   26.4888    3.2674  -59.5712 C   0  0  0  1  0  0  0  0  0  0  0  0
   22.9261    3.0463  -64.9753 C   0  0  0  1  0  0  0  0  0  0  0  0
   23.4745    4.0029  -63.9046 C   0  0  0  1  0  0  0  0  0  0  0  0
   22.3429    3.9892  -62.8654 C   0  0  0  1  0  0  0  0  0  0  0  0
   20.1138    2.7157  -62.9428 C   0  0  0  1  0  0  0  0  0  0  0  0
   25.8297    1.1708  -66.2748 N   0  0  0  1  0  0  0  0  0  0  0  0
   27.2965    0.4858  -64.5856 C   0  0  0  1  0  0  0  0  0  0  0  0
   26.4937    1.1852  -63.6614 C   0  0  0  1  0  0  0  0  0  0  0  0
   27.0809    1.0062  -62.4395 N   0  0  0  1  0  0  0  0  0  0  0  0
   28.3158   -0.0766  -63.9004 N   0  0  0  1  0  0  0  0  0  0  0  0
   28.2164    0.2092  -62.6490 N   0  0  0  1  0  0  0  0  0  0  0  0
   25.9593    2.6709  -57.2753 O   0  0  0  1  0  0  0  0  0  0  0  0
   24.0075    2.4763  -65.7837 N   0  0  0  1  0  0  0  0  0  0  0  0
   26.0506    4.0556  -56.9053 C   0  0  0  1  0  0  0  0  0  0  0  0
   21.4391    2.8756  -63.2828 N   0  0  0  1  0  0  0  0  0  0  0  0
   22.2485    1.9814  -64.1314 C   0  0  0  1  0  0  0  0  0  0  0  0
   19.1195    3.3481  -63.6658 C   0  0  0  1  0  0  0  0  0  0  0  0
   17.8026    3.1571  -63.2928 C   0  0  0  1  0  0  0  0  0  0  0  0
   17.4347    2.3910  -62.2614 N   0  0  0  1  0  0  0  0  0  0  0  0
   18.4094    1.7873  -61.5665 C   0  0  0  1  0  0  0  0  0  0  0  0
   19.7524    1.9204  -61.8729 C   0  0  0  1  0  0  0  0  0  0  0  0
   27.4789    0.0013  -66.6491 H   0  0  0  1  0  0  0  0  0  0  0  0
   26.9527    3.5081  -61.6136 H   0  0  0  1  0  0  0  0  0  0  0  0
   25.9956    0.3150  -58.0931 H   0  0  0  1  0  0  0  0  0  0  0  0
   26.4495   -0.4618  -60.3419 H   0  0  0  1  0  0  0  0  0  0  0  0
   26.4981    4.2860  -59.3610 H   0  0  0  1  0  0  0  0  0  0  0  0
   22.2244    3.5401  -65.6146 H   0  0  0  1  0  0  0  0  0  0  0  0
   23.6281    4.9849  -64.3008 H   0  0  0  1  0  0  0  0  0  0  0  0
   24.3905    3.6385  -63.4884 H   0  0  0  1  0  0  0  0  0  0  0  0
   21.8170    4.9211  -62.8716 H   0  0  0  1  0  0  0  0  0  0  0  0
   22.7350    3.8068  -61.8866 H   0  0  0  1  0  0  0  0  0  0  0  0
   23.9192    2.5939  -66.7526 H   0  0  0  1  0  0  0  0  0  0  0  0
   25.7453    4.1739  -55.8866 H   0  0  0  1  0  0  0  0  0  0  0  0
   25.4128    4.6364  -57.5383 H   0  0  0  1  0  0  0  0  0  0  0  0
   27.0617    4.3880  -57.0152 H   0  0  0  1  0  0  0  0  0  0  0  0
   22.9502    1.4083  -63.5622 H   0  0  0  1  0  0  0  0  0  0  0  0
   21.6432    1.3233  -64.7192 H   0  0  0  1  0  0  0  0  0  0  0  0
   19.3580    3.9560  -64.4752 H   0  0  0  1  0  0  0  0  0  0  0  0
   17.0599    3.6340  -63.8429 H   0  0  0  1  0  0  0  0  0  0  0  0
   18.1433    1.1899  -60.7579 H   0  0  0  1  0  0  0  0  0  0  0  0
   20.4758    1.4310  -61.3082 H   0  0  0  1  0  0  0  0  0  0  0  0
  1  3  4  0  0  0  0
  1 14  4  0  0  0  0
  1 21  1  0  0  0  0
  2 14  4  0  0  0  0
  2 15  4  0  0  0  0
  2 30  1  0  0  0  0
  3 16  4  0  0  0  0
  4  5  4  0  0  0  0
  4  7  4  0  0  0  0
  4 17  1  0  0  0  0
  5  9  4  0  0  0  0
  5 31  1  0  0  0  0
  6  7  4  0  0  0  0
  6  8  4  0  0  0  0
  6 32  1  0  0  0  0
  7 33  1  0  0  0  0
  8  9  4  0  0  0  0
  8 20  1  0  0  0  0
  9 34  1  0  0  0  0
 10 11  1  0  0  0  0
 10 21  1  0  0  0  0
 10 24  1  0  0  0  0
 10 35  1  0  0  0  0
 11 12  1  0  0  0  0
 11 36  1  0  0  0  0
 11 37  1  0  0  0  0
 12 23  1  0  0  0  0
 12 38  1  0  0  0  0
 12 39  1  0  0  0  0
 13 23  1  0  0  0  0
 13 25  4  0  0  0  0
 13 29  4  0  0  0  0
 15 16  4  0  0  0  0
 15 18  4  0  0  0  0
 16 17  4  0  0  0  0
 17 19  4  0  0  0  0
 18 19  4  0  0  0  0
 20 22  1  0  0  0  0
 21 40  1  0  0  0  0
 22 41  1  0  0  0  0
 22 42  1  0  0  0  0
 22 43  1  0  0  0  0
 23 24  1  0  0  0  0
 24 44  1  0  0  0  0
 24 45  1  0  0  0  0
 25 26  4  0  0  0  0
 25 46  1  0  0  0  0
 26 27  4  0  0  0  0
 26 47  1  0  0  0  0
 27 28  4  0  0  0  0
 28 29  4  0  0  0  0
 28 48  1  0  0  0  0
 29 49  1  0  0  0  0
M  END
> <ConfClashScore>
0 

> <ConfOneFourInteractionScore>
-0.983503 

> <ConfScore>
0.171483 

> <ConfScorePBest>
0.00158068 

> <ConfTolerance>
0.751631 

> <HETNAM>
     OWQ A 303  OWQ                                                       

> <pdb_OW>
Q_303 -16.5129 3.80749 7.62812 0.15963 1.39178 -0.28144 -3.20151 0 0 0 -1.30514 0 0 0 0 0 0 0 0 -8.31393

$$$$
6yky_lig_1.pdb
 OpenBabel04162415593D

 49 53  0  0  0  0  0  0  0  0999 V2000
   25.1047    1.8134  -65.3759 C   0  0  0  1  0  0  0  0  0  0  0  0
   26.9167    0.5034  -65.9326 C   0  0  0  1  0  0  0  0  0  0  0  0
   25.4178    1.8282  -64.0981 N   0  0  0  1  0  0  0  0  0  0  0  0
   26.7285    1.4698  -61.1390 C   0  0  0  1  0  0  0  0  0  0  0  0
   27.3405    2.6208  -60.6802 C   0  0  0  1  0  0  0  0  0  0  0  0
   25.6370    1.2032  -59.0213 C   0  0  0  1  0  0  0  0  0  0  0  0
   25.8776    0.7583  -60.3076 C   0  0  0  1  0  0  0  0  0  0  0  0
   26.2507    2.3578  -58.5610 C   0  0  0  1  0  0  0  0  0  0  0  0
   27.0991    3.0670  -59.3902 C   0  0  0  1  0  0  0  0  0  0  0  0
   23.5660    2.5382  -67.1660 C   0  0  0  1  0  0  0  0  0  0  0  0
   23.3604    1.1221  -67.7716 C   0  0  0  1  0  0  0  0  0  0  0  0
   23.5939    1.2299  -69.2931 C   0  0  0  1  0  0  0  0  0  0  0  0
   24.6335    3.1494  -70.6528 C   0  0  0  1  0  0  0  0  0  0  0  0
   25.8296    1.1707  -66.2747 N   0  0  0  1  0  0  0  0  0  0  0  0
   27.2965    0.4857  -64.5857 C   0  0  0  1  0  0  0  0  0  0  0  0
   26.4936    1.1851  -63.6614 C   0  0  0  1  0  0  0  0  0  0  0  0
   27.0809    1.0060  -62.4394 N   0  0  0  1  0  0  0  0  0  0  0  0
   28.3159   -0.0766  -63.9004 N   0  0  0  1  0  0  0  0  0  0  0  0
   28.2164    0.2092  -62.6491 N   0  0  0  1  0  0  0  0  0  0  0  0
   25.9438    2.6918  -57.2850 O   0  0  0  1  0  0  0  0  0  0  0  0
   24.0074    2.4761  -65.7836 N   0  0  0  1  0  0  0  0  0  0  0  0
   26.4549    3.9403  -56.7924 C   0  0  0  1  0  0  0  0  0  0  0  0
   24.3226    2.5234  -69.4231 N   0  0  0  1  0  0  0  0  0  0  0  0
   24.6751    3.0616  -68.0991 C   0  0  0  1  0  0  0  0  0  0  0  0
   25.2983    4.3613  -70.6785 C   0  0  0  1  0  0  0  0  0  0  0  0
   25.5858    4.9360  -71.9019 C   0  0  0  1  0  0  0  0  0  0  0  0
   25.2511    4.3817  -73.0710 N   0  0  0  1  0  0  0  0  0  0  0  0
   24.6030    3.2087  -73.0312 C   0  0  0  1  0  0  0  0  0  0  0  0
   24.2789    2.5618  -71.8515 C   0  0  0  1  0  0  0  0  0  0  0  0
   27.4790    0.0014  -66.6492 H   0  0  0  1  0  0  0  0  0  0  0  0
   27.9820    3.1524  -61.3027 H   0  0  0  1  0  0  0  0  0  0  0  0
   24.9955    0.6717  -58.3988 H   0  0  0  1  0  0  0  0  0  0  0  0
   25.4203   -0.1101  -60.6516 H   0  0  0  1  0  0  0  0  0  0  0  0
   27.5564    3.9354  -59.0462 H   0  0  0  1  0  0  0  0  0  0  0  0
   22.6780    3.1317  -67.2312 H   0  0  0  1  0  0  0  0  0  0  0  0
   24.0607    0.4362  -67.3423 H   0  0  0  1  0  0  0  0  0  0  0  0
   22.3641    0.7832  -67.5781 H   0  0  0  1  0  0  0  0  0  0  0  0
   22.6657    1.2551  -69.8246 H   0  0  0  1  0  0  0  0  0  0  0  0
   24.1882    0.4150  -69.6505 H   0  0  0  1  0  0  0  0  0  0  0  0
   23.4741    2.9446  -65.1079 H   0  0  0  1  0  0  0  0  0  0  0  0
   25.6641    4.4917  -56.3280 H   0  0  0  1  0  0  0  0  0  0  0  0
   26.8547    4.5078  -57.6066 H   0  0  0  1  0  0  0  0  0  0  0  0
   27.2266    3.7515  -56.0756 H   0  0  0  1  0  0  0  0  0  0  0  0
   24.6829    4.1315  -68.1151 H   0  0  0  1  0  0  0  0  0  0  0  0
   25.6333    2.7020  -67.7870 H   0  0  0  1  0  0  0  0  0  0  0  0
   25.5769    4.8316  -69.7937 H   0  0  0  1  0  0  0  0  0  0  0  0
   26.0884    5.8465  -71.9134 H   0  0  0  1  0  0  0  0  0  0  0  0
   24.3306    2.7633  -73.9306 H   0  0  0  1  0  0  0  0  0  0  0  0
   23.7777    1.6506  -71.8673 H   0  0  0  1  0  0  0  0  0  0  0  0
  1  3  4  0  0  0  0
  1 14  4  0  0  0  0
  1 21  1  0  0  0  0
  2 14  4  0  0  0  0
  2 15  4  0  0  0  0
  2 30  1  0  0  0  0
  3 16  4  0  0  0  0
  4  5  4  0  0  0  0
  4  7  4  0  0  0  0
  4 17  1  0  0  0  0
  5  9  4  0  0  0  0
  5 31  1  0  0  0  0
  6  7  4  0  0  0  0
  6  8  4  0  0  0  0
  6 32  1  0  0  0  0
  7 33  1  0  0  0  0
  8  9  4  0  0  0  0
  8 20  1  0  0  0  0
  9 34  1  0  0  0  0
 10 11  1  0  0  0  0
 10 21  1  0  0  0  0
 10 24  1  0  0  0  0
 10 35  1  0  0  0  0
 11 12  1  0  0  0  0
 11 36  1  0  0  0  0
 11 37  1  0  0  0  0
 12 23  1  0  0  0  0
 12 38  1  0  0  0  0
 12 39  1  0  0  0  0
 13 23  1  0  0  0  0
 13 25  4  0  0  0  0
 13 29  4  0  0  0  0
 15 16  4  0  0  0  0
 15 18  4  0  0  0  0
 16 17  4  0  0  0  0
 17 19  4  0  0  0  0
 18 19  4  0  0  0  0
 20 22  1  0  0  0  0
 21 40  1  0  0  0  0
 22 41  1  0  0  0  0
 22 42  1  0  0  0  0
 22 43  1  0  0  0  0
 23 24  1  0  0  0  0
 24 44  1  0  0  0  0
 24 45  1  0  0  0  0
 25 26  4  0  0  0  0
 25 46  1  0  0  0  0
 26 27  4  0  0  0  0
 26 47  1  0  0  0  0
 27 28  4  0  0  0  0
 28 29  4  0  0  0  0
 28 48  1  0  0  0  0
 29 49  1  0  0  0  0
M  END
> <ConfClashScore>
0 

> <ConfOneFourInteractionScore>
-0.988311 

> <ConfScore>
0.173908 

> <ConfScorePBest>
0.00156735 

> <ConfTolerance>
0.535688 

> <HETNAM>
     OWQ A 303  OWQ                                                       

> <pdb_OW>
Q_303 -16.5129 3.80749 7.62812 0.15963 1.39178 -0.28144 -3.20151 0 0 0 -1.30514 0 0 0 0 0 0 0 0 -8.31393

$$$$
6yky_lig_1.pdb
 OpenBabel04162415593D

 49 53  0  0  0  0  0  0  0  0999 V2000
   25.1048    1.8136  -65.3759 C   0  0  0  1  0  0  0  0  0  0  0  0
   26.9167    0.5034  -65.9326 C   0  0  0  1  0  0  0  0  0  0  0  0
   25.4178    1.8284  -64.0982 N   0  0  0  1  0  0  0  0  0  0  0  0
   26.7286    1.4699  -61.1390 C   0  0  0  1  0  0  0  0  0  0  0  0
   25.6314    2.2934  -60.9718 C   0  0  0  1  0  0  0  0  0  0  0  0
   27.2512    1.6892  -58.8096 C   0  0  0  1  0  0  0  0  0  0  0  0
   27.5413    1.1694  -60.0570 C   0  0  0  1  0  0  0  0  0  0  0  0
   26.1507    2.5153  -58.6417 C   0  0  0  1  0  0  0  0  0  0  0  0
   25.3406    2.8147  -59.7207 C   0  0  0  1  0  0  0  0  0  0  0  0
   23.1438    3.3688  -65.0207 C   0  0  0  1  0  0  0  0  0  0  0  0
   23.9564    4.4745  -64.3284 C   0  0  0  1  0  0  0  0  0  0  0  0
   23.0195    4.8763  -63.1787 C   0  0  0  1  0  0  0  0  0  0  0  0
   20.6830    3.9475  -62.6048 C   0  0  0  1  0  0  0  0  0  0  0  0
   25.8297    1.1708  -66.2747 N   0  0  0  1  0  0  0  0  0  0  0  0
   27.2965    0.4858  -64.5857 C   0  0  0  1  0  0  0  0  0  0  0  0
   26.4937    1.1851  -63.6614 C   0  0  0  1  0  0  0  0  0  0  0  0
   27.0810    1.0061  -62.4394 N   0  0  0  1  0  0  0  0  0  0  0  0
   28.3159   -0.0766  -63.9004 N   0  0  0  1  0  0  0  0  0  0  0  0
   28.2164    0.2092  -62.6490 N   0  0  0  1  0  0  0  0  0  0  0  0
   25.8924    3.1403  -57.4464 O   0  0  0  1  0  0  0  0  0  0  0  0
   24.0075    2.4763  -65.7836 N   0  0  0  1  0  0  0  0  0  0  0  0
   26.7967    2.7335  -56.3932 C   0  0  0  1  0  0  0  0  0  0  0  0
   21.9526    3.8310  -63.1573 N   0  0  0  1  0  0  0  0  0  0  0  0
   22.5153    2.6509  -63.8395 C   0  0  0  1  0  0  0  0  0  0  0  0
   20.2404    5.1581  -62.1042 C   0  0  0  1  0  0  0  0  0  0  0  0
   18.9693    5.2305  -61.5671 C   0  0  0  1  0  0  0  0  0  0  0  0
   18.1387    4.1855  -61.5015 N   0  0  0  1  0  0  0  0  0  0  0  0
   18.5822    3.0170  -61.9865 C   0  0  0  1  0  0  0  0  0  0  0  0
   19.8383    2.8563  -62.5447 C   0  0  0  1  0  0  0  0  0  0  0  0
   27.4789    0.0014  -66.6492 H   0  0  0  1  0  0  0  0  0  0  0  0
   25.0240    2.5219  -61.7844 H   0  0  0  1  0  0  0  0  0  0  0  0
   27.8585    1.4607  -57.9970 H   0  0  0  1  0  0  0  0  0  0  0  0
   28.3692    0.5529  -60.1838 H   0  0  0  1  0  0  0  0  0  0  0  0
   24.5126    3.4311  -59.5941 H   0  0  0  1  0  0  0  0  0  0  0  0
   22.3972    3.7817  -65.6664 H   0  0  0  1  0  0  0  0  0  0  0  0
   24.8883    4.1005  -63.9592 H   0  0  0  1  0  0  0  0  0  0  0  0
   24.1378    5.2966  -64.9888 H   0  0  0  1  0  0  0  0  0  0  0  0
   22.5951    5.8414  -63.3610 H   0  0  0  1  0  0  0  0  0  0  0  0
   23.5503    4.8892  -62.2498 H   0  0  0  1  0  0  0  0  0  0  0  0
   23.7545    2.3407  -66.7206 H   0  0  0  1  0  0  0  0  0  0  0  0
   26.5322    3.2307  -55.4835 H   0  0  0  1  0  0  0  0  0  0  0  0
   27.7987    2.9939  -56.6635 H   0  0  0  1  0  0  0  0  0  0  0  0
   26.7281    1.6748  -56.2538 H   0  0  0  1  0  0  0  0  0  0  0  0
   23.2424    2.1446  -63.2396 H   0  0  0  1  0  0  0  0  0  0  0  0
   21.7577    1.9588  -64.1426 H   0  0  0  1  0  0  0  0  0  0  0  0
   20.8528    5.9982  -62.1315 H   0  0  0  1  0  0  0  0  0  0  0  0
   18.6423    6.1448  -61.1947 H   0  0  0  1  0  0  0  0  0  0  0  0
   17.9517    2.1912  -61.9410 H   0  0  0  1  0  0  0  0  0  0  0  0
   20.1406    1.9315  -62.9121 H   0  0  0  1  0  0  0  0  0  0  0  0
  1  3  4  0  0  0  0
  1 14  4  0  0  0  0
  1 21  1  0  0  0  0
  2 14  4  0  0  0  0
  2 15  4  0  0  0  0
  2 30  1  0  0  0  0
  3 16  4  0  0  0  0
  4  5  4  0  0  0  0
  4  7  4  0  0  0  0
  4 17  1  0  0  0  0
  5  9  4  0  0  0  0
  5 31  1  0  0  0  0
  6  7  4  0  0  0  0
  6  8  4  0  0  0  0
  6 32  1  0  0  0  0
  7 33  1  0  0  0  0
  8  9  4  0  0  0  0
  8 20  1  0  0  0  0
  9 34  1  0  0  0  0
 10 11  1  0  0  0  0
 10 21  1  0  0  0  0
 10 24  1  0  0  0  0
 10 35  1  0  0  0  0
 11 12  1  0  0  0  0
 11 36  1  0  0  0  0
 11 37  1  0  0  0  0
 12 23  1  0  0  0  0
 12 38  1  0  0  0  0
 12 39  1  0  0  0  0
 13 23  1  0  0  0  0
 13 25  4  0  0  0  0
 13 29  4  0  0  0  0
 15 16  4  0  0  0  0
 15 18  4  0  0  0  0
 16 17  4  0  0  0  0
 17 19  4  0  0  0  0
 18 19  4  0  0  0  0
 20 22  1  0  0  0  0
 21 40  1  0  0  0  0
 22 41  1  0  0  0  0
 22 42  1  0  0  0  0
 22 43  1  0  0  0  0
 23 24  1  0  0  0  0
 24 44  1  0  0  0  0
 24 45  1  0  0  0  0
 25 26  4  0  0  0  0
 25 46  1  0  0  0  0
 26 27  4  0  0  0  0
 26 47  1  0  0  0  0
 27 28  4  0  0  0  0
 28 29  4  0  0  0  0
 28 48  1  0  0  0  0
 29 49  1  0  0  0  0
M  END
> <ConfClashScore>
0 

> <ConfOneFourInteractionScore>
-0.983503 

> <ConfScore>
0.179044 

> <ConfScorePBest>
0.00155402 

> <ConfTolerance>
0.53414 

> <HETNAM>
     OWQ A 303  OWQ                                                       

> <pdb_OW>
Q_303 -16.5129 3.80749 7.62812 0.15963 1.39178 -0.28144 -3.20151 0 0 0 -1.30514 0 0 0 0 0 0 0 0 -8.31393

$$$$
6yky_lig_1.pdb
 OpenBabel04162415593D

 49 53  0  0  0  0  0  0  0  0999 V2000
   25.1047    1.8134  -65.3760 C   0  0  0  1  0  0  0  0  0  0  0  0
   26.9167    0.5034  -65.9326 C   0  0  0  1  0  0  0  0  0  0  0  0
   25.4176    1.8282  -64.0982 N   0  0  0  1  0  0  0  0  0  0  0  0
   26.7285    1.4697  -61.1390 C   0  0  0  1  0  0  0  0  0  0  0  0
   27.0384    0.7109  -60.0263 C   0  0  0  1  0  0  0  0  0  0  0  0
   25.5747    3.0439  -59.7470 C   0  0  0  1  0  0  0  0  0  0  0  0
   25.9933    2.6366  -60.9996 C   0  0  0  1  0  0  0  0  0  0  0  0
   25.8855    2.2829  -58.6308 C   0  0  0  1  0  0  0  0  0  0  0  0
   26.6186    1.1196  -58.7701 C   0  0  0  1  0  0  0  0  0  0  0  0
   23.4162    2.6766  -67.1009 C   0  0  0  1  0  0  0  0  0  0  0  0
   23.3589    1.3608  -67.8931 C   0  0  0  1  0  0  0  0  0  0  0  0
   23.2993    1.8712  -69.3410 C   0  0  0  1  0  0  0  0  0  0  0  0
   23.2670    4.3080  -70.1935 C   0  0  0  1  0  0  0  0  0  0  0  0
   25.8295    1.1706  -66.2748 N   0  0  0  1  0  0  0  0  0  0  0  0
   27.2964    0.4858  -64.5857 C   0  0  0  1  0  0  0  0  0  0  0  0
   26.4935    1.1851  -63.6614 C   0  0  0  1  0  0  0  0  0  0  0  0
   27.0808    1.0060  -62.4395 N   0  0  0  1  0  0  0  0  0  0  0  0
   28.3159   -0.0766  -63.9004 N   0  0  0  1  0  0  0  0  0  0  0  0
   28.2164    0.2092  -62.6490 N   0  0  0  1  0  0  0  0  0  0  0  0
   25.4103    2.7864  -57.4404 O   0  0  0  1  0  0  0  0  0  0  0  0
   24.0073    2.4760  -65.7837 N   0  0  0  1  0  0  0  0  0  0  0  0
   24.5058    3.9409  -57.3978 C   0  0  0  1  0  0  0  0  0  0  0  0
   23.5960    3.3327  -69.2554 N   0  0  0  1  0  0  0  0  0  0  0  0
   24.3069    3.5369  -67.9797 C   0  0  0  1  0  0  0  0  0  0  0  0
   24.2423    4.7177  -71.0836 C   0  0  0  1  0  0  0  0  0  0  0  0
   23.9530    5.7472  -71.9590 C   0  0  0  1  0  0  0  0  0  0  0  0
   22.7738    6.3755  -71.9905 N   0  0  0  1  0  0  0  0  0  0  0  0
   21.8389    5.9708  -71.1190 C   0  0  0  1  0  0  0  0  0  0  0  0
   22.0422    4.9464  -70.2111 C   0  0  0  1  0  0  0  0  0  0  0  0
   27.4790    0.0014  -66.6492 H   0  0  0  1  0  0  0  0  0  0  0  0
   27.5866   -0.1667  -60.1315 H   0  0  0  1  0  0  0  0  0  0  0  0
   25.0266    3.9215  -59.6417 H   0  0  0  1  0  0  0  0  0  0  0  0
   25.7566    3.2054  -61.8375 H   0  0  0  1  0  0  0  0  0  0  0  0
   26.8553    0.5507  -57.9322 H   0  0  0  1  0  0  0  0  0  0  0  0
   22.4429    3.1082  -66.9936 H   0  0  0  1  0  0  0  0  0  0  0  0
   22.4868    0.7932  -67.6436 H   0  0  0  1  0  0  0  0  0  0  0  0
   24.2323    0.7661  -67.7250 H   0  0  0  1  0  0  0  0  0  0  0  0
   22.3261    1.7100  -69.7555 H   0  0  0  1  0  0  0  0  0  0  0  0
   24.0309    1.3749  -69.9438 H   0  0  0  1  0  0  0  0  0  0  0  0
   23.5105    2.9058  -65.0565 H   0  0  0  1  0  0  0  0  0  0  0  0
   23.9278    3.9750  -58.2977 H   0  0  0  1  0  0  0  0  0  0  0  0
   25.0791    4.8398  -57.3082 H   0  0  0  1  0  0  0  0  0  0  0  0
   23.8507    3.8496  -56.5567 H   0  0  0  1  0  0  0  0  0  0  0  0
   25.3131    3.1747  -68.0141 H   0  0  0  1  0  0  0  0  0  0  0  0
   24.3067    4.5627  -67.6755 H   0  0  0  1  0  0  0  0  0  0  0  0
   25.1760    4.2599  -71.0943 H   0  0  0  1  0  0  0  0  0  0  0  0
   24.6906    6.0485  -72.6274 H   0  0  0  1  0  0  0  0  0  0  0  0
   20.9160    6.4501  -71.1256 H   0  0  0  1  0  0  0  0  0  0  0  0
   21.2873    4.6626  -69.5544 H   0  0  0  1  0  0  0  0  0  0  0  0
  1  3  4  0  0  0  0
  1 14  4  0  0  0  0
  1 21  1  0  0  0  0
  2 14  4  0  0  0  0
  2 15  4  0  0  0  0
  2 30  1  0  0  0  0
  3 16  4  0  0  0  0
  4  5  4  0  0  0  0
  4  7  4  0  0  0  0
  4 17  1  0  0  0  0
  5  9  4  0  0  0  0
  5 31  1  0  0  0  0
  6  7  4  0  0  0  0
  6  8  4  0  0  0  0
  6 32  1  0  0  0  0
  7 33  1  0  0  0  0
  8  9  4  0  0  0  0
  8 20  1  0  0  0  0
  9 34  1  0  0  0  0
 10 11  1  0  0  0  0
 10 21  1  0  0  0  0
 10 24  1  0  0  0  0
 10 35  1  0  0  0  0
 11 12  1  0  0  0  0
 11 36  1  0  0  0  0
 11 37  1  0  0  0  0
 12 23  1  0  0  0  0
 12 38  1  0  0  0  0
 12 39  1  0  0  0  0
 13 23  1  0  0  0  0
 13 25  4  0  0  0  0
 13 29  4  0  0  0  0
 15 16  4  0  0  0  0
 15 18  4  0  0  0  0
 16 17  4  0  0  0  0
 17 19  4  0  0  0  0
 18 19  4  0  0  0  0
 20 22  1  0  0  0  0
 21 40  1  0  0  0  0
 22 41  1  0  0  0  0
 22 42  1  0  0  0  0
 22 43  1  0  0  0  0
 23 24  1  0  0  0  0
 24 44  1  0  0  0  0
 24 45  1  0  0  0  0
 25 26  4  0  0  0  0
 25 46  1  0  0  0  0
 26 27  4  0  0  0  0
 26 47  1  0  0  0  0
 27 28  4  0  0  0  0
 28 29  4  0  0  0  0
 28 48  1  0  0  0  0
 29 49  1  0  0  0  0
M  END
> <ConfClashScore>
0 

> <ConfOneFourInteractionScore>
-0.985577 

> <ConfScore>
0.18601 

> <ConfScorePBest>
0.00154069 

> <ConfTolerance>
0.759284 

> <HETNAM>
     OWQ A 303  OWQ                                                       

> <pdb_OW>
Q_303 -16.5129 3.80749 7.62812 0.15963 1.39178 -0.28144 -3.20151 0 0 0 -1.30514 0 0 0 0 0 0 0 0 -8.31393

$$$$
6yky_lig_1.pdb
 OpenBabel04162415593D

 49 53  0  0  0  0  0  0  0  0999 V2000
   25.1047    1.8135  -65.3759 C   0  0  0  1  0  0  0  0  0  0  0  0
   26.9167    0.5034  -65.9326 C   0  0  0  1  0  0  0  0  0  0  0  0
   25.4177    1.8282  -64.0982 N   0  0  0  1  0  0  0  0  0  0  0  0
   26.7286    1.4698  -61.1390 C   0  0  0  1  0  0  0  0  0  0  0  0
   25.8974    2.5648  -60.9965 C   0  0  0  1  0  0  0  0  0  0  0  0
   27.0234    1.3813  -58.7616 C   0  0  0  1  0  0  0  0  0  0  0  0
   27.2946    0.8789  -60.0202 C   0  0  0  1  0  0  0  0  0  0  0  0
   26.1897    2.4795  -58.6184 C   0  0  0  1  0  0  0  0  0  0  0  0
   25.6254    3.0687  -59.7342 C   0  0  0  1  0  0  0  0  0  0  0  0
   23.1057    3.0776  -64.6744 C   0  0  0  1  0  0  0  0  0  0  0  0
   21.9500    3.8763  -65.2981 C   0  0  0  1  0  0  0  0  0  0  0  0
   21.5673    4.8203  -64.1479 C   0  0  0  1  0  0  0  0  0  0  0  0
   22.5874    4.9834  -61.7607 C   0  0  0  1  0  0  0  0  0  0  0  0
   25.8297    1.1707  -66.2748 N   0  0  0  1  0  0  0  0  0  0  0  0
   27.2965    0.4857  -64.5857 C   0  0  0  1  0  0  0  0  0  0  0  0
   26.4936    1.1852  -63.6614 C   0  0  0  1  0  0  0  0  0  0  0  0
   27.0809    1.0061  -62.4395 N   0  0  0  1  0  0  0  0  0  0  0  0
   28.3159   -0.0766  -63.9004 N   0  0  0  1  0  0  0  0  0  0  0  0
   28.2164    0.2092  -62.6490 N   0  0  0  1  0  0  0  0  0  0  0  0
   25.8603    3.0541  -57.4557 O   0  0  0  1  0  0  0  0  0  0  0  0
   23.9708    2.5158  -65.6971 N   0  0  0  1  0  0  0  0  0  0  0  0
   25.1747    4.3502  -57.4031 C   0  0  0  1  0  0  0  0  0  0  0  0
   22.6590    4.6738  -63.1390 N   0  0  0  1  0  0  0  0  0  0  0  0
   23.8264    4.1421  -63.8664 C   0  0  0  1  0  0  0  0  0  0  0  0
   22.2669    6.2613  -61.3411 C   0  0  0  1  0  0  0  0  0  0  0  0
   22.2041    6.5194  -59.9849 C   0  0  0  1  0  0  0  0  0  0  0  0
   22.4410    5.5950  -59.0492 N   0  0  0  1  0  0  0  0  0  0  0  0
   22.7549    4.3615  -59.4702 C   0  0  0  1  0  0  0  0  0  0  0  0
   22.8364    4.0152  -60.8077 C   0  0  0  1  0  0  0  0  0  0  0  0
   27.4789    0.0014  -66.6492 H   0  0  0  1  0  0  0  0  0  0  0  0
   25.4759    3.0106  -61.8363 H   0  0  0  1  0  0  0  0  0  0  0  0
   27.4448    0.9355  -57.9217 H   0  0  0  1  0  0  0  0  0  0  0  0
   27.9233    0.0574  -60.1278 H   0  0  0  1  0  0  0  0  0  0  0  0
   24.9967    3.8901  -59.6266 H   0  0  0  1  0  0  0  0  0  0  0  0
   22.7404    2.2931  -64.0451 H   0  0  0  1  0  0  0  0  0  0  0  0
   21.1345    3.2375  -65.5659 H   0  0  0  1  0  0  0  0  0  0  0  0
   22.2737    4.4224  -66.1594 H   0  0  0  1  0  0  0  0  0  0  0  0
   21.5111    5.8308  -64.4952 H   0  0  0  1  0  0  0  0  0  0  0  0
   20.6264    4.5349  -63.7259 H   0  0  0  1  0  0  0  0  0  0  0  0
   23.7385    2.6418  -66.6409 H   0  0  0  1  0  0  0  0  0  0  0  0
   25.6433    5.0300  -58.0837 H   0  0  0  1  0  0  0  0  0  0  0  0
   25.2324    4.7439  -56.4098 H   0  0  0  1  0  0  0  0  0  0  0  0
   24.1485    4.2219  -57.6774 H   0  0  0  1  0  0  0  0  0  0  0  0
   24.2867    4.8806  -64.4889 H   0  0  0  1  0  0  0  0  0  0  0  0
   24.5583    3.7240  -63.2073 H   0  0  0  1  0  0  0  0  0  0  0  0
   22.0767    7.0140  -62.0330 H   0  0  0  1  0  0  0  0  0  0  0  0
   21.9599    7.4822  -59.6767 H   0  0  0  1  0  0  0  0  0  0  0  0
   22.9465    3.6292  -58.7569 H   0  0  0  1  0  0  0  0  0  0  0  0
   23.0804    3.0444  -61.0897 H   0  0  0  1  0  0  0  0  0  0  0  0
  1  3  4  0  0  0  0
  1 14  4  0  0  0  0
  1 21  1  0  0  0  0
  2 14  4  0  0  0  0
  2 15  4  0  0  0  0
  2 30  1  0  0  0  0
  3 16  4  0  0  0  0
  4  5  4  0  0  0  0
  4  7  4  0  0  0  0
  4 17  1  0  0  0  0
  5  9  4  0  0  0  0
  5 31  1  0  0  0  0
  6  7  4  0  0  0  0
  6  8  4  0  0  0  0
  6 32  1  0  0  0  0
  7 33  1  0  0  0  0
  8  9  4  0  0  0  0
  8 20  1  0  0  0  0
  9 34  1  0  0  0  0
 10 11  1  0  0  0  0
 10 21  1  0  0  0  0
 10 24  1  0  0  0  0
 10 35  1  0  0  0  0
 11 12  1  0  0  0  0
 11 36  1  0  0  0  0
 11 37  1  0  0  0  0
 12 23  1  0  0  0  0
 12 38  1  0  0  0  0
 12 39  1  0  0  0  0
 13 23  1  0  0  0  0
 13 25  4  0  0  0  0
 13 29  4  0  0  0  0
 15 16  4  0  0  0  0
 15 18  4  0  0  0  0
 16 17  4  0  0  0  0
 17 19  4  0  0  0  0
 18 19  4  0  0  0  0
 20 22  1  0  0  0  0
 21 40  1  0  0  0  0
 22 41  1  0  0  0  0
 22 42  1  0  0  0  0
 22 43  1  0  0  0  0
 23 24  1  0  0  0  0
 24 44  1  0  0  0  0
 24 45  1  0  0  0  0
 25 26  4  0  0  0  0
 25 46  1  0  0  0  0
 26 27  4  0  0  0  0
 26 47  1  0  0  0  0
 27 28  4  0  0  0  0
 28 29  4  0  0  0  0
 28 48  1  0  0  0  0
 29 49  1  0  0  0  0
M  END
> <ConfClashScore>
0 

> <ConfOneFourInteractionScore>
-0.981795 

> <ConfScore>
0.187626 

> <ConfScorePBest>
0.00152736 

> <ConfTolerance>
0.632751 

> <HETNAM>
     OWQ A 303  OWQ                                                       

> <pdb_OW>
Q_303 -16.5129 3.80749 7.62812 0.15963 1.39178 -0.28144 -3.20151 0 0 0 -1.30514 0 0 0 0 0 0 0 0 -8.31393

$$$$
6yky_lig_1.pdb
 OpenBabel04162415593D

 49 53  0  0  0  0  0  0  0  0999 V2000
   25.1049    1.8137  -65.3760 C   0  0  0  1  0  0  0  0  0  0  0  0
   26.9167    0.5034  -65.9326 C   0  0  0  1  0  0  0  0  0  0  0  0
   25.4180    1.8285  -64.0983 N   0  0  0  1  0  0  0  0  0  0  0  0
   26.7867    1.5432  -61.1529 C   0  0  0  1  0  0  0  0  0  0  0  0
   25.5455    1.2678  -60.6109 C   0  0  0  1  0  0  0  0  0  0  0  0
   27.2907    2.9590  -59.2851 C   0  0  0  1  0  0  0  0  0  0  0  0
   27.6596    2.3921  -60.4904 C   0  0  0  1  0  0  0  0  0  0  0  0
   26.0459    2.6828  -58.7412 C   0  0  0  1  0  0  0  0  0  0  0  0
   25.1757    1.8364  -59.4020 C   0  0  0  1  0  0  0  0  0  0  0  0
   23.6048    2.7470  -67.1170 C   0  0  0  1  0  0  0  0  0  0  0  0
   22.2118    3.3912  -67.1998 C   0  0  0  1  0  0  0  0  0  0  0  0
   21.7795    3.0164  -68.6258 C   0  0  0  1  0  0  0  0  0  0  0  0
   23.0843    1.6854  -70.4058 C   0  0  0  1  0  0  0  0  0  0  0  0
   25.8298    1.1708  -66.2748 N   0  0  0  1  0  0  0  0  0  0  0  0
   27.2965    0.4858  -64.5857 C   0  0  0  1  0  0  0  0  0  0  0  0
   26.4937    1.1853  -63.6615 C   0  0  0  1  0  0  0  0  0  0  0  0
   27.0811    1.0063  -62.4396 N   0  0  0  1  0  0  0  0  0  0  0  0
   28.3159   -0.0766  -63.9004 N   0  0  0  1  0  0  0  0  0  0  0  0
   28.2164    0.2093  -62.6490 N   0  0  0  1  0  0  0  0  0  0  0  0
   25.5762    3.1788  -57.5801 O   0  0  0  1  0  0  0  0  0  0  0  0
   23.9891    2.4969  -65.7386 N   0  0  0  1  0  0  0  0  0  0  0  0
   26.5091    4.0048  -56.8453 C   0  0  0  1  0  0  0  0  0  0  0  0
   22.7858    2.0156  -69.0915 N   0  0  0  1  0  0  0  0  0  0  0  0
   23.3989    1.4484  -67.8761 C   0  0  0  1  0  0  0  0  0  0  0  0
   22.3050    2.0797  -71.4777 C   0  0  0  1  0  0  0  0  0  0  0  0
   22.6873    1.7040  -72.7514 C   0  0  0  1  0  0  0  0  0  0  0  0
   23.7763    0.9720  -73.0058 N   0  0  0  1  0  0  0  0  0  0  0  0
   24.5202    0.5930  -71.9569 C   0  0  0  1  0  0  0  0  0  0  0  0
   24.2131    0.9277  -70.6497 C   0  0  0  1  0  0  0  0  0  0  0  0
   27.4789    0.0013  -66.6491 H   0  0  0  1  0  0  0  0  0  0  0  0
   24.8890    0.6340  -61.1100 H   0  0  0  1  0  0  0  0  0  0  0  0
   27.9472    3.5927  -58.7860 H   0  0  0  1  0  0  0  0  0  0  0  0
   28.5919    2.6025  -60.9004 H   0  0  0  1  0  0  0  0  0  0  0  0
   24.2432    1.6260  -58.9921 H   0  0  0  1  0  0  0  0  0  0  0  0
   24.3448    3.3595  -67.5884 H   0  0  0  1  0  0  0  0  0  0  0  0
   22.2650    4.4525  -67.0747 H   0  0  0  1  0  0  0  0  0  0  0  0
   21.5473    2.9784  -66.4698 H   0  0  0  1  0  0  0  0  0  0  0  0
   20.7993    2.5875  -68.6197 H   0  0  0  1  0  0  0  0  0  0  0  0
   21.7880    3.8789  -69.2589 H   0  0  0  1  0  0  0  0  0  0  0  0
   23.4084    2.8417  -65.0284 H   0  0  0  1  0  0  0  0  0  0  0  0
   26.3341    3.8942  -55.7956 H   0  0  0  1  0  0  0  0  0  0  0  0
   26.3738    5.0292  -57.1233 H   0  0  0  1  0  0  0  0  0  0  0  0
   27.5097    3.7019  -57.0736 H   0  0  0  1  0  0  0  0  0  0  0  0
   22.7390    0.7798  -67.3638 H   0  0  0  1  0  0  0  0  0  0  0  0
   24.3225    0.9495  -68.0834 H   0  0  0  1  0  0  0  0  0  0  0  0
   21.4470    2.6482  -71.3282 H   0  0  0  1  0  0  0  0  0  0  0  0
   22.0977    2.0063  -73.5530 H   0  0  0  1  0  0  0  0  0  0  0  0
   25.3695    0.0196  -72.1344 H   0  0  0  1  0  0  0  0  0  0  0  0
   24.8206    0.6146  -69.8657 H   0  0  0  1  0  0  0  0  0  0  0  0
  1  3  4  0  0  0  0
  1 14  4  0  0  0  0
  1 21  1  0  0  0  0
  2 14  4  0  0  0  0
  2 15  4  0  0  0  0
  2 30  1  0  0  0  0
  3 16  4  0  0  0  0
  4  5  4  0  0  0  0
  4  7  4  0  0  0  0
  4 17  1  0  0  0  0
  5  9  4  0  0  0  0
  5 31  1  0  0  0  0
  6  7  4  0  0  0  0
  6  8  4  0  0  0  0
  6 32  1  0  0  0  0
  7 33  1  0  0  0  0
  8  9  4  0  0  0  0
  8 20  1  0  0  0  0
  9 34  1  0  0  0  0
 10 11  1  0  0  0  0
 10 21  1  0  0  0  0
 10 24  1  0  0  0  0
 10 35  1  0  0  0  0
 11 12  1  0  0  0  0
 11 36  1  0  0  0  0
 11 37  1  0  0  0  0
 12 23  1  0  0  0  0
 12 38  1  0  0  0  0
 12 39  1  0  0  0  0
 13 23  1  0  0  0  0
 13 25  4  0  0  0  0
 13 29  4  0  0  0  0
 15 16  4  0  0  0  0
 15 18  4  0  0  0  0
 16 17  4  0  0  0  0
 17 19  4  0  0  0  0
 18 19  4  0  0  0  0
 20 22  1  0  0  0  0
 21 40  1  0  0  0  0
 22 41  1  0  0  0  0
 22 42  1  0  0  0  0
 22 43  1  0  0  0  0
 23 24  1  0  0  0  0
 24 44  1  0  0  0  0
 24 45  1  0  0  0  0
 25 26  4  0  0  0  0
 25 46  1  0  0  0  0
 26 27  4  0  0  0  0
 26 47  1  0  0  0  0
 27 28  4  0  0  0  0
 28 29  4  0  0  0  0
 28 48  1  0  0  0  0
 29 49  1  0  0  0  0
M  END
> <ConfClashScore>
0 

> <ConfOneFourInteractionScore>
-0.987833 

> <ConfScore>
0.192986 

> <ConfScorePBest>
0.00151404 

> <ConfTolerance>
0.621701 

> <HETNAM>
     OWQ A 303  OWQ                                                       

> <pdb_OW>
Q_303 -16.5129 3.80749 7.62812 0.15963 1.39178 -0.28144 -3.20151 0 0 0 -1.30514 0 0 0 0 0 0 0 0 -8.31393

$$$$
6yky_lig_1.pdb
 OpenBabel04162415593D

 49 53  0  0  0  0  0  0  0  0999 V2000
   25.1047    1.8134  -65.3759 C   0  0  0  1  0  0  0  0  0  0  0  0
   26.9167    0.5034  -65.9326 C   0  0  0  1  0  0  0  0  0  0  0  0
   25.4177    1.8282  -64.0981 N   0  0  0  1  0  0  0  0  0  0  0  0
   26.7865    1.5429  -61.1528 C   0  0  0  1  0  0  0  0  0  0  0  0
   25.5143    1.4209  -60.6267 C   0  0  0  1  0  0  0  0  0  0  0  0
   27.4437    2.8637  -59.2632 C   0  0  0  1  0  0  0  0  0  0  0  0
   27.7520    2.2675  -60.4714 C   0  0  0  1  0  0  0  0  0  0  0  0
   26.1678    2.7414  -58.7353 C   0  0  0  1  0  0  0  0  0  0  0  0
   25.2054    2.0187  -59.4149 C   0  0  0  1  0  0  0  0  0  0  0  0
   23.0392    3.1468  -64.9338 C   0  0  0  1  0  0  0  0  0  0  0  0
   23.7203    4.1730  -64.0144 C   0  0  0  1  0  0  0  0  0  0  0  0
   22.7015    4.2907  -62.8703 C   0  0  0  1  0  0  0  0  0  0  0  0
   20.4082    3.0937  -62.5957 C   0  0  0  1  0  0  0  0  0  0  0  0
   25.8296    1.1707  -66.2747 N   0  0  0  1  0  0  0  0  0  0  0  0
   27.2965    0.4857  -64.5857 C   0  0  0  1  0  0  0  0  0  0  0  0
   26.4936    1.1851  -63.6613 C   0  0  0  1  0  0  0  0  0  0  0  0
   27.0809    1.0060  -62.4395 N   0  0  0  1  0  0  0  0  0  0  0  0
   28.3159   -0.0766  -63.9004 N   0  0  0  1  0  0  0  0  0  0  0  0
   28.2164    0.2092  -62.6490 N   0  0  0  1  0  0  0  0  0  0  0  0
   25.9295    3.3535  -57.5511 O   0  0  0  1  0  0  0  0  0  0  0  0
   24.0073    2.4761  -65.7836 N   0  0  0  1  0  0  0  0  0  0  0  0
   24.6080    3.2298  -57.0027 C   0  0  0  1  0  0  0  0  0  0  0  0
   21.7302    3.1779  -63.0926 N   0  0  0  1  0  0  0  0  0  0  0  0
   22.4237    2.1847  -63.9334 C   0  0  0  1  0  0  0  0  0  0  0  0
   19.5791    2.0570  -62.9822 C   0  0  0  1  0  0  0  0  0  0  0  0
   18.3296    1.9533  -62.4012 C   0  0  0  1  0  0  0  0  0  0  0  0
   17.8737    2.8088  -61.4810 N   0  0  0  1  0  0  0  0  0  0  0  0
   18.6864    3.8116  -61.1188 C   0  0  0  1  0  0  0  0  0  0  0  0
   19.9536    3.9881  -61.6463 C   0  0  0  1  0  0  0  0  0  0  0  0
   27.4789    0.0014  -66.6492 H   0  0  0  1  0  0  0  0  0  0  0  0
   24.7890    0.8805  -61.1400 H   0  0  0  1  0  0  0  0  0  0  0  0
   28.1692    3.4041  -58.7500 H   0  0  0  1  0  0  0  0  0  0  0  0
   28.7080    2.3628  -60.8695 H   0  0  0  1  0  0  0  0  0  0  0  0
   24.2492    1.9236  -59.0170 H   0  0  0  1  0  0  0  0  0  0  0  0
   22.2890    3.6077  -65.5418 H   0  0  0  1  0  0  0  0  0  0  0  0
   23.8585    5.1104  -64.5113 H   0  0  0  1  0  0  0  0  0  0  0  0
   24.6641    3.8137  -63.6606 H   0  0  0  1  0  0  0  0  0  0  0  0
   23.1872    4.1807  -61.9232 H   0  0  0  1  0  0  0  0  0  0  0  0
   22.2029    5.2367  -62.9082 H   0  0  0  1  0  0  0  0  0  0  0  0
   23.8451    2.5095  -66.7496 H   0  0  0  1  0  0  0  0  0  0  0  0
   24.5087    3.8809  -56.1595 H   0  0  0  1  0  0  0  0  0  0  0  0
   24.4436    2.2187  -56.6935 H   0  0  0  1  0  0  0  0  0  0  0  0
   23.8870    3.4974  -57.7466 H   0  0  0  1  0  0  0  0  0  0  0  0
   23.1647    1.6388  -63.3878 H   0  0  0  1  0  0  0  0  0  0  0  0
   21.7439    1.4998  -64.3956 H   0  0  0  1  0  0  0  0  0  0  0  0
   19.8900    1.3683  -63.6967 H   0  0  0  1  0  0  0  0  0  0  0  0
   17.7124    1.1695  -62.6950 H   0  0  0  1  0  0  0  0  0  0  0  0
   18.3480    4.4899  -60.4068 H   0  0  0  1  0  0  0  0  0  0  0  0
   20.5522    4.7791  -61.3338 H   0  0  0  1  0  0  0  0  0  0  0  0
  1  3  4  0  0  0  0
  1 14  4  0  0  0  0
  1 21  1  0  0  0  0
  2 14  4  0  0  0  0
  2 15  4  0  0  0  0
  2 30  1  0  0  0  0
  3 16  4  0  0  0  0
  4  5  4  0  0  0  0
  4  7  4  0  0  0  0
  4 17  1  0  0  0  0
  5  9  4  0  0  0  0
  5 31  1  0  0  0  0
  6  7  4  0  0  0  0
  6  8  4  0  0  0  0
  6 32  1  0  0  0  0
  7 33  1  0  0  0  0
  8  9  4  0  0  0  0
  8 20  1  0  0  0  0
  9 34  1  0  0  0  0
 10 11  1  0  0  0  0
 10 21  1  0  0  0  0
 10 24  1  0  0  0  0
 10 35  1  0  0  0  0
 11 12  1  0  0  0  0
 11 36  1  0  0  0  0
 11 37  1  0  0  0  0
 12 23  1  0  0  0  0
 12 38  1  0  0  0  0
 12 39  1  0  0  0  0
 13 23  1  0  0  0  0
 13 25  4  0  0  0  0
 13 29  4  0  0  0  0
 15 16  4  0  0  0  0
 15 18  4  0  0  0  0
 16 17  4  0  0  0  0
 17 19  4  0  0  0  0
 18 19  4  0  0  0  0
 20 22  1  0  0  0  0
 21 40  1  0  0  0  0
 22 41  1  0  0  0  0
 22 42  1  0  0  0  0
 22 43  1  0  0  0  0
 23 24  1  0  0  0  0
 24 44  1  0  0  0  0
 24 45  1  0  0  0  0
 25 26  4  0  0  0  0
 25 46  1  0  0  0  0
 26 27  4  0  0  0  0
 26 47  1  0  0  0  0
 27 28  4  0  0  0  0
 28 29  4  0  0  0  0
 28 48  1  0  0  0  0
 29 49  1  0  0  0  0
M  END
> <ConfClashScore>
0 

> <ConfOneFourInteractionScore>
-0.983503 

> <ConfScore>
0.200966 

> <ConfScorePBest>
0.00150071 

> <ConfTolerance>
0.562004 

> <HETNAM>
     OWQ A 303  OWQ                                                       

> <pdb_OW>
Q_303 -16.5129 3.80749 7.62812 0.15963 1.39178 -0.28144 -3.20151 0 0 0 -1.30514 0 0 0 0 0 0 0 0 -8.31393

$$$$
6yky_lig_1.pdb
 OpenBabel04162415593D

 49 53  0  0  0  0  0  0  0  0999 V2000
   25.1048    1.8136  -65.3759 C   0  0  0  1  0  0  0  0  0  0  0  0
   26.9167    0.5034  -65.9326 C   0  0  0  1  0  0  0  0  0  0  0  0
   25.4179    1.8284  -64.0982 N   0  0  0  1  0  0  0  0  0  0  0  0
   26.7286    1.4699  -61.1391 C   0  0  0  1  0  0  0  0  0  0  0  0
   25.3993    1.5493  -60.7693 C   0  0  0  1  0  0  0  0  0  0  0  0
   27.3706    2.4597  -59.0521 C   0  0  0  1  0  0  0  0  0  0  0  0
   27.7157    1.9283  -60.2804 C   0  0  0  1  0  0  0  0  0  0  0  0
   26.0373    2.5394  -58.6810 C   0  0  0  1  0  0  0  0  0  0  0  0
   25.0533    2.0824  -59.5373 C   0  0  0  1  0  0  0  0  0  0  0  0
   23.1944    3.2018  -64.7886 C   0  0  0  1  0  0  0  0  0  0  0  0
   22.0706    4.0281  -65.4341 C   0  0  0  1  0  0  0  0  0  0  0  0
   21.8036    5.0881  -64.3543 C   0  0  0  1  0  0  0  0  0  0  0  0
   22.9344    5.3620  -62.0602 C   0  0  0  1  0  0  0  0  0  0  0  0
   25.8297    1.1708  -66.2747 N   0  0  0  1  0  0  0  0  0  0  0  0
   27.2965    0.4857  -64.5856 C   0  0  0  1  0  0  0  0  0  0  0  0
   26.4936    1.1852  -63.6613 C   0  0  0  1  0  0  0  0  0  0  0  0
   27.0810    1.0062  -62.4395 N   0  0  0  1  0  0  0  0  0  0  0  0
   28.3158   -0.0766  -63.9004 N   0  0  0  1  0  0  0  0  0  0  0  0
   28.2164    0.2092  -62.6490 N   0  0  0  1  0  0  0  0  0  0  0  0
   25.8223    3.0795  -57.4658 O   0  0  0  1  0  0  0  0  0  0  0  0
   23.9766    2.4950  -65.7952 N   0  0  0  1  0  0  0  0  0  0  0  0
   24.4448    3.0648  -57.0243 C   0  0  0  1  0  0  0  0  0  0  0  0
   22.9252    4.9462  -63.3782 N   0  0  0  1  0  0  0  0  0  0  0  0
   24.0208    4.2740  -64.1010 C   0  0  0  1  0  0  0  0  0  0  0  0
   22.4760    4.6208  -60.9869 C   0  0  0  1  0  0  0  0  0  0  0  0
   22.5527    5.1677  -59.7202 C   0  0  0  1  0  0  0  0  0  0  0  0
   23.0469    6.3849  -59.4741 N   0  0  0  1  0  0  0  0  0  0  0  0
   23.4838    7.0943  -60.5244 C   0  0  0  1  0  0  0  0  0  0  0  0
   23.4478    6.6225  -61.8250 C   0  0  0  1  0  0  0  0  0  0  0  0
   27.4789    0.0013  -66.6492 H   0  0  0  1  0  0  0  0  0  0  0  0
   24.6586    1.2091  -61.4153 H   0  0  0  1  0  0  0  0  0  0  0  0
   28.1113    2.7999  -58.4061 H   0  0  0  1  0  0  0  0  0  0  0  0
   28.7157    1.8722  -60.5604 H   0  0  0  1  0  0  0  0  0  0  0  0
   24.0534    2.1384  -59.2574 H   0  0  0  1  0  0  0  0  0  0  0  0
   22.8036    2.4998  -64.0820 H   0  0  0  1  0  0  0  0  0  0  0  0
   21.2023    3.4300  -65.6163 H   0  0  0  1  0  0  0  0  0  0  0  0
   22.3936    4.4772  -66.3500 H   0  0  0  1  0  0  0  0  0  0  0  0
   21.8021    6.0683  -64.7836 H   0  0  0  1  0  0  0  0  0  0  0  0
   20.8644    4.9067  -63.8750 H   0  0  0  1  0  0  0  0  0  0  0  0
   23.7116    2.5023  -66.7387 H   0  0  0  1  0  0  0  0  0  0  0  0
   24.2908    3.8450  -56.3085 H   0  0  0  1  0  0  0  0  0  0  0  0
   24.2249    2.1195  -56.5740 H   0  0  0  1  0  0  0  0  0  0  0  0
   23.7998    3.2192  -57.8641 H   0  0  0  1  0  0  0  0  0  0  0  0
   24.5035    4.9241  -64.8004 H   0  0  0  1  0  0  0  0  0  0  0  0
   24.7501    3.8595  -63.4366 H   0  0  0  1  0  0  0  0  0  0  0  0
   22.0809    3.6696  -61.1302 H   0  0  0  1  0  0  0  0  0  0  0  0
   22.2083    4.6034  -58.9174 H   0  0  0  1  0  0  0  0  0  0  0  0
   23.8684    8.0453  -60.3536 H   0  0  0  1  0  0  0  0  0  0  0  0
   23.8007    7.2060  -62.6103 H   0  0  0  1  0  0  0  0  0  0  0  0
  1  3  4  0  0  0  0
  1 14  4  0  0  0  0
  1 21  1  0  0  0  0
  2 14  4  0  0  0  0
  2 15  4  0  0  0  0
  2 30  1  0  0  0  0
  3 16  4  0  0  0  0
  4  5  4  0  0  0  0
  4  7  4  0  0  0  0
  4 17  1  0  0  0  0
  5  9  4  0  0  0  0
  5 31  1  0  0  0  0
  6  7  4  0  0  0  0
  6  8  4  0  0  0  0
  6 32  1  0  0  0  0
  7 33  1  0  0  0  0
  8  9  4  0  0  0  0
  8 20  1  0  0  0  0
  9 34  1  0  0  0  0
 10 11  1  0  0  0  0
 10 21  1  0  0  0  0
 10 24  1  0  0  0  0
 10 35  1  0  0  0  0
 11 12  1  0  0  0  0
 11 36  1  0  0  0  0
 11 37  1  0  0  0  0
 12 23  1  0  0  0  0
 12 38  1  0  0  0  0
 12 39  1  0  0  0  0
 13 23  1  0  0  0  0
 13 25  4  0  0  0  0
 13 29  4  0  0  0  0
 15 16  4  0  0  0  0
 15 18  4  0  0  0  0
 16 17  4  0  0  0  0
 17 19  4  0  0  0  0
 18 19  4  0  0  0  0
 20 22  1  0  0  0  0
 21 40  1  0  0  0  0
 22 41  1  0  0  0  0
 22 42  1  0  0  0  0
 22 43  1  0  0  0  0
 23 24  1  0  0  0  0
 24 44  1  0  0  0  0
 24 45  1  0  0  0  0
 25 26  4  0  0  0  0
 25 46  1  0  0  0  0
 26 27  4  0  0  0  0
 26 47  1  0  0  0  0
 27 28  4  0  0  0  0
 28 29  4  0  0  0  0
 28 48  1  0  0  0  0
 29 49  1  0  0  0  0
M  END
> <ConfClashScore>
0 

> <ConfOneFourInteractionScore>
-0.984874 

> <ConfScore>
0.211299 

> <ConfScorePBest>
0.00148738 

> <ConfTolerance>
0.721322 

> <HETNAM>
     OWQ A 303  OWQ                                                       

> <pdb_OW>
Q_303 -16.5129 3.80749 7.62812 0.15963 1.39178 -0.28144 -3.20151 0 0 0 -1.30514 0 0 0 0 0 0 0 0 -8.31393

$$$$
6yky_lig_1.pdb
 OpenBabel04162415593D

 49 53  0  0  0  0  0  0  0  0999 V2000
   25.1047    1.8134  -65.3759 C   0  0  0  1  0  0  0  0  0  0  0  0
   26.9167    0.5034  -65.9326 C   0  0  0  1  0  0  0  0  0  0  0  0
   25.4177    1.8282  -64.0982 N   0  0  0  1  0  0  0  0  0  0  0  0
   26.7285    1.4697  -61.1391 C   0  0  0  1  0  0  0  0  0  0  0  0
   25.4110    1.7641  -60.8429 C   0  0  0  1  0  0  0  0  0  0  0  0
   27.3919    2.2449  -58.9697 C   0  0  0  1  0  0  0  0  0  0  0  0
   27.7207    1.7129  -60.2022 C   0  0  0  1  0  0  0  0  0  0  0  0
   26.0705    2.5403  -58.6723 C   0  0  0  1  0  0  0  0  0  0  0  0
   25.0813    2.2977  -59.6067 C   0  0  0  1  0  0  0  0  0  0  0  0
   23.2127    3.2718  -64.7332 C   0  0  0  1  0  0  0  0  0  0  0  0
   22.2605    4.2491  -65.4406 C   0  0  0  1  0  0  0  0  0  0  0  0
   22.0273    5.3031  -64.3473 C   0  0  0  1  0  0  0  0  0  0  0  0
   22.9706    5.3684  -61.9594 C   0  0  0  1  0  0  0  0  0  0  0  0
   25.8296    1.1706  -66.2748 N   0  0  0  1  0  0  0  0  0  0  0  0
   27.2965    0.4857  -64.5857 C   0  0  0  1  0  0  0  0  0  0  0  0
   26.4935    1.1850  -63.6614 C   0  0  0  1  0  0  0  0  0  0  0  0
   27.0809    1.0060  -62.4395 N   0  0  0  1  0  0  0  0  0  0  0  0
   28.3158   -0.0766  -63.9004 N   0  0  0  1  0  0  0  0  0  0  0  0
   28.2164    0.2092  -62.6490 N   0  0  0  1  0  0  0  0  0  0  0  0
   25.6299    3.0668  -57.5052 O   0  0  0  1  0  0  0  0  0  0  0  0
   23.9887    2.5046  -65.6920 N   0  0  0  1  0  0  0  0  0  0  0  0
   26.6243    3.4962  -56.5622 C   0  0  0  1  0  0  0  0  0  0  0  0
   23.0304    4.9955  -63.2841 N   0  0  0  1  0  0  0  0  0  0  0  0
   24.0973    4.2130  -63.9352 C   0  0  0  1  0  0  0  0  0  0  0  0
   23.9983    5.1365  -61.0640 C   0  0  0  1  0  0  0  0  0  0  0  0
   23.8456    5.5519  -59.7548 C   0  0  0  1  0  0  0  0  0  0  0  0
   22.7491    6.1677  -59.3024 N   0  0  0  1  0  0  0  0  0  0  0  0
   21.7589    6.3821  -60.1803 C   0  0  0  1  0  0  0  0  0  0  0  0
   21.8293    6.0028  -61.5094 C   0  0  0  1  0  0  0  0  0  0  0  0
   27.4789    0.0014  -66.6492 H   0  0  0  1  0  0  0  0  0  0  0  0
   24.6671    1.5854  -61.5473 H   0  0  0  1  0  0  0  0  0  0  0  0
   28.1358    2.4236  -58.2652 H   0  0  0  1  0  0  0  0  0  0  0  0
   28.7126    1.4950  -60.4266 H   0  0  0  1  0  0  0  0  0  0  0  0
   24.0895    2.5156  -59.3823 H   0  0  0  1  0  0  0  0  0  0  0  0
   22.6772    2.6040  -64.0911 H   0  0  0  1  0  0  0  0  0  0  0  0
   22.7172    4.6804  -66.3068 H   0  0  0  1  0  0  0  0  0  0  0  0
   21.3462    3.7689  -65.7206 H   0  0  0  1  0  0  0  0  0  0  0  0
   21.0334    5.2264  -63.9584 H   0  0  0  1  0  0  0  0  0  0  0  0
   22.1836    6.2876  -64.7363 H   0  0  0  1  0  0  0  0  0  0  0  0
   23.6842    2.4878  -66.6234 H   0  0  0  1  0  0  0  0  0  0  0  0
   27.4258    2.7876  -56.5408 H   0  0  0  1  0  0  0  0  0  0  0  0
   26.1854    3.5673  -55.5889 H   0  0  0  1  0  0  0  0  0  0  0  0
   27.0025    4.4536  -56.8541 H   0  0  0  1  0  0  0  0  0  0  0  0
   24.7076    3.6926  -63.2271 H   0  0  0  1  0  0  0  0  0  0  0  0
   24.7166    4.8177  -64.5643 H   0  0  0  1  0  0  0  0  0  0  0  0
   24.8698    4.6585  -61.3699 H   0  0  0  1  0  0  0  0  0  0  0  0
   24.6237    5.3763  -59.0876 H   0  0  0  1  0  0  0  0  0  0  0  0
   20.8958    6.8566  -59.8463 H   0  0  0  1  0  0  0  0  0  0  0  0
   21.0378    6.1920  -62.1570 H   0  0  0  1  0  0  0  0  0  0  0  0
  1  3  4  0  0  0  0
  1 14  4  0  0  0  0
  1 21  1  0  0  0  0
  2 14  4  0  0  0  0
  2 15  4  0  0  0  0
  2 30  1  0  0  0  0
  3 16  4  0  0  0  0
  4  5  4  0  0  0  0
  4  7  4  0  0  0  0
  4 17  1  0  0  0  0
  5  9  4  0  0  0  0
  5 31  1  0  0  0  0
  6  7  4  0  0  0  0
  6  8  4  0  0  0  0
  6 32  1  0  0  0  0
  7 33  1  0  0  0  0
  8  9  4  0  0  0  0
  8 20  1  0  0  0  0
  9 34  1  0  0  0  0
 10 11  1  0  0  0  0
 10 21  1  0  0  0  0
 10 24  1  0  0  0  0
 10 35  1  0  0  0  0
 11 12  1  0  0  0  0
 11 36  1  0  0  0  0
 11 37  1  0  0  0  0
 12 23  1  0  0  0  0
 12 38  1  0  0  0  0
 12 39  1  0  0  0  0
 13 23  1  0  0  0  0
 13 25  4  0  0  0  0
 13 29  4  0  0  0  0
 15 16  4  0  0  0  0
 15 18  4  0  0  0  0
 16 17  4  0  0  0  0
 17 19  4  0  0  0  0
 18 19  4  0  0  0  0
 20 22  1  0  0  0  0
 21 40  1  0  0  0  0
 22 41  1  0  0  0  0
 22 42  1  0  0  0  0
 22 43  1  0  0  0  0
 23 24  1  0  0  0  0
 24 44  1  0  0  0  0
 24 45  1  0  0  0  0
 25 26  4  0  0  0  0
 25 46  1  0  0  0  0
 26 27  4  0  0  0  0
 26 47  1  0  0  0  0
 27 28  4  0  0  0  0
 28 29  4  0  0  0  0
 28 48  1  0  0  0  0
 29 49  1  0  0  0  0
M  END
> <ConfClashScore>
0 

> <ConfOneFourInteractionScore>
-0.987833 

> <ConfScore>
0.214457 

> <ConfScorePBest>
0.00147405 

> <ConfTolerance>
0.888672 

> <HETNAM>
     OWQ A 303  OWQ                                                       

> <pdb_OW>
Q_303 -16.5129 3.80749 7.62812 0.15963 1.39178 -0.28144 -3.20151 0 0 0 -1.30514 0 0 0 0 0 0 0 0 -8.31393

$$$$
6yky_lig_1.pdb
 OpenBabel04162415593D

 49 53  0  0  0  0  0  0  0  0999 V2000
   25.1047    1.8135  -65.3759 C   0  0  0  1  0  0  0  0  0  0  0  0
   26.9167    0.5034  -65.9326 C   0  0  0  1  0  0  0  0  0  0  0  0
   25.4178    1.8284  -64.0982 N   0  0  0  1  0  0  0  0  0  0  0  0
   26.7287    1.4699  -61.1390 C   0  0  0  1  0  0  0  0  0  0  0  0
   27.6507    1.2971  -60.1241 C   0  0  0  1  0  0  0  0  0  0  0  0
   25.1513    2.3452  -59.5601 C   0  0  0  1  0  0  0  0  0  0  0  0
   25.4761    1.9922  -60.8563 C   0  0  0  1  0  0  0  0  0  0  0  0
   26.0760    2.1719  -58.5420 C   0  0  0  1  0  0  0  0  0  0  0  0
   27.3248    1.6511  -58.8241 C   0  0  0  1  0  0  0  0  0  0  0  0
   23.4965    2.7708  -67.0394 C   0  0  0  1  0  0  0  0  0  0  0  0
   23.1351    1.4607  -67.7739 C   0  0  0  1  0  0  0  0  0  0  0  0
   23.6025    1.5965  -69.2012 C   0  0  0  1  0  0  0  0  0  0  0  0
   25.3015    3.2775  -70.1607 C   0  0  0  1  0  0  0  0  0  0  0  0
   25.8296    1.1707  -66.2748 N   0  0  0  1  0  0  0  0  0  0  0  0
   27.2965    0.4857  -64.5857 C   0  0  0  1  0  0  0  0  0  0  0  0
   26.4936    1.1851  -63.6613 C   0  0  0  1  0  0  0  0  0  0  0  0
   27.0809    1.0061  -62.4395 N   0  0  0  1  0  0  0  0  0  0  0  0
   28.3159   -0.0766  -63.9004 N   0  0  0  1  0  0  0  0  0  0  0  0
   28.2164    0.2092  -62.6491 N   0  0  0  1  0  0  0  0  0  0  0  0
   25.8706    2.4753  -57.2382 O   0  0  0  1  0  0  0  0  0  0  0  0
   23.9991    2.4984  -65.6890 N   0  0  0  1  0  0  0  0  0  0  0  0
   24.5602    2.9328  -56.8696 C   0  0  0  1  0  0  0  0  0  0  0  0
   24.5499    2.8111  -69.0922 N   0  0  0  1  0  0  0  0  0  0  0  0
   24.5831    3.3574  -67.9190 C   0  0  0  1  0  0  0  0  0  0  0  0
   25.5132    4.6326  -70.3354 C   0  0  0  1  0  0  0  0  0  0  0  0
   26.2713    5.0535  -71.4113 C   0  0  0  1  0  0  0  0  0  0  0  0
   26.8130    4.2162  -72.3011 N   0  0  0  1  0  0  0  0  0  0  0  0
   26.5961    2.9055  -72.1220 C   0  0  0  1  0  0  0  0  0  0  0  0
   25.8529    2.3971  -71.0710 C   0  0  0  1  0  0  0  0  0  0  0  0
   27.4789    0.0014  -66.6491 H   0  0  0  1  0  0  0  0  0  0  0  0
   28.5890    0.9014  -60.3357 H   0  0  0  1  0  0  0  0  0  0  0  0
   24.2131    2.7409  -59.3485 H   0  0  0  1  0  0  0  0  0  0  0  0
   24.7810    2.1185  -61.6194 H   0  0  0  1  0  0  0  0  0  0  0  0
   28.0200    1.5248  -58.0610 H   0  0  0  1  0  0  0  0  0  0  0  0
   22.6523    3.4257  -66.9810 H   0  0  0  1  0  0  0  0  0  0  0  0
   23.6256    0.6327  -67.3064 H   0  0  0  1  0  0  0  0  0  0  0  0
   22.0762    1.3087  -67.7495 H   0  0  0  1  0  0  0  0  0  0  0  0
   22.7861    1.7943  -69.8639 H   0  0  0  1  0  0  0  0  0  0  0  0
   24.1238    0.7209  -69.5278 H   0  0  0  1  0  0  0  0  0  0  0  0
   23.4730    2.8531  -64.9421 H   0  0  0  1  0  0  0  0  0  0  0  0
   24.6367    3.6059  -56.0414 H   0  0  0  1  0  0  0  0  0  0  0  0
   23.9548    2.0950  -56.5931 H   0  0  0  1  0  0  0  0  0  0  0  0
   24.1126    3.4383  -57.6996 H   0  0  0  1  0  0  0  0  0  0  0  0
   24.4293    4.4118  -68.0153 H   0  0  0  1  0  0  0  0  0  0  0  0
   25.5375    3.1750  -67.4709 H   0  0  0  1  0  0  0  0  0  0  0  0
   25.1094    5.3220  -69.6696 H   0  0  0  1  0  0  0  0  0  0  0  0
   26.4284    6.0742  -71.5350 H   0  0  0  1  0  0  0  0  0  0  0  0
   27.0062    2.2381  -72.8062 H   0  0  0  1  0  0  0  0  0  0  0  0
   25.7123    1.3718  -70.9685 H   0  0  0  1  0  0  0  0  0  0  0  0
  1  3  4  0  0  0  0
  1 14  4  0  0  0  0
  1 21  1  0  0  0  0
  2 14  4  0  0  0  0
  2 15  4  0  0  0  0
  2 30  1  0  0  0  0
  3 16  4  0  0  0  0
  4  5  4  0  0  0  0
  4  7  4  0  0  0  0
  4 17  1  0  0  0  0
  5  9  4  0  0  0  0
  5 31  1  0  0  0  0
  6  7  4  0  0  0  0
  6  8  4  0  0  0  0
  6 32  1  0  0  0  0
  7 33  1  0  0  0  0
  8  9  4  0  0  0  0
  8 20  1  0  0  0  0
  9 34  1  0  0  0  0
 10 11  1  0  0  0  0
 10 21  1  0  0  0  0
 10 24  1  0  0  0  0
 10 35  1  0  0  0  0
 11 12  1  0  0  0  0
 11 36  1  0  0  0  0
 11 37  1  0  0  0  0
 12 23  1  0  0  0  0
 12 38  1  0  0  0  0
 12 39  1  0  0  0  0
 13 23  1  0  0  0  0
 13 25  4  0  0  0  0
 13 29  4  0  0  0  0
 15 16  4  0  0  0  0
 15 18  4  0  0  0  0
 16 17  4  0  0  0  0
 17 19  4  0  0  0  0
 18 19  4  0  0  0  0
 20 22  1  0  0  0  0
 21 40  1  0  0  0  0
 22 41  1  0  0  0  0
 22 42  1  0  0  0  0
 22 43  1  0  0  0  0
 23 24  1  0  0  0  0
 24 44  1  0  0  0  0
 24 45  1  0  0  0  0
 25 26  4  0  0  0  0
 25 46  1  0  0  0  0
 26 27  4  0  0  0  0
 26 47  1  0  0  0  0
 27 28  4  0  0  0  0
 28 29  4  0  0  0  0
 28 48  1  0  0  0  0
 29 49  1  0  0  0  0
M  END
> <ConfClashScore>
0 

> <ConfOneFourInteractionScore>
-0.983503 

> <ConfScore>
0.216029 

> <ConfScorePBest>
0.00146072 

> <ConfTolerance>
0.806531 

> <HETNAM>
     OWQ A 303  OWQ                                                       

> <pdb_OW>
Q_303 -16.5129 3.80749 7.62812 0.15963 1.39178 -0.28144 -3.20151 0 0 0 -1.30514 0 0 0 0 0 0 0 0 -8.31393

$$$$
6yky_lig_1.pdb
 OpenBabel04162415593D

 49 53  0  0  0  0  0  0  0  0999 V2000
   25.1048    1.8135  -65.3760 C   0  0  0  1  0  0  0  0  0  0  0  0
   26.9167    0.5034  -65.9326 C   0  0  0  1  0  0  0  0  0  0  0  0
   25.4178    1.8283  -64.0982 N   0  0  0  1  0  0  0  0  0  0  0  0
   26.7239    1.3640  -61.1073 C   0  0  0  1  0  0  0  0  0  0  0  0
   25.4696    1.8799  -60.8419 C   0  0  0  1  0  0  0  0  0  0  0  0
   27.3521    1.7085  -58.8195 C   0  0  0  1  0  0  0  0  0  0  0  0
   27.6676    1.2806  -60.0953 C   0  0  0  1  0  0  0  0  0  0  0  0
   26.0941    2.2261  -58.5531 C   0  0  0  1  0  0  0  0  0  0  0  0
   25.1534    2.3092  -59.5623 C   0  0  0  1  0  0  0  0  0  0  0  0
   22.9970    3.0988  -64.9240 C   0  0  0  1  0  0  0  0  0  0  0  0
   23.5798    4.2940  -64.1534 C   0  0  0  1  0  0  0  0  0  0  0  0
   22.6230    4.3885  -62.9549 C   0  0  0  1  0  0  0  0  0  0  0  0
   20.5780    2.9351  -62.4265 C   0  0  0  1  0  0  0  0  0  0  0  0
   25.8297    1.1707  -66.2748 N   0  0  0  1  0  0  0  0  0  0  0  0
   27.2965    0.4857  -64.5857 C   0  0  0  1  0  0  0  0  0  0  0  0
   26.4937    1.1852  -63.6614 C   0  0  0  1  0  0  0  0  0  0  0  0
   27.0809    1.0061  -62.4395 N   0  0  0  1  0  0  0  0  0  0  0  0
   28.3158   -0.0766  -63.9004 N   0  0  0  1  0  0  0  0  0  0  0  0
   28.2164    0.2092  -62.6490 N   0  0  0  1  0  0  0  0  0  0  0  0
   25.7483    2.5666  -57.2684 O   0  0  0  1  0  0  0  0  0  0  0  0
   24.0075    2.4762  -65.7838 N   0  0  0  1  0  0  0  0  0  0  0  0
   24.5144    3.3187  -57.1998 C   0  0  0  1  0  0  0  0  0  0  0  0
   21.8059    3.1390  -63.0045 N   0  0  0  1  0  0  0  0  0  0  0  0
   22.5817    2.1682  -63.7984 C   0  0  0  1  0  0  0  0  0  0  0  0
   19.4199    3.2593  -63.1087 C   0  0  0  1  0  0  0  0  0  0  0  0
   18.2016    2.9495  -62.5349 C   0  0  0  1  0  0  0  0  0  0  0  0
   18.0802    2.3517  -61.3458 N   0  0  0  1  0  0  0  0  0  0  0  0
   19.2110    2.0469  -60.6934 C   0  0  0  1  0  0  0  0  0  0  0  0
   20.4719    2.3175  -61.1956 C   0  0  0  1  0  0  0  0  0  0  0  0
   27.4790    0.0014  -66.6492 H   0  0  0  1  0  0  0  0  0  0  0  0
   24.7630    1.9462  -61.6022 H   0  0  0  1  0  0  0  0  0  0  0  0
   28.0587    1.6423  -58.0593 H   0  0  0  1  0  0  0  0  0  0  0  0
   28.6128    0.8959  -60.2960 H   0  0  0  1  0  0  0  0  0  0  0  0
   24.2081    2.6938  -59.3617 H   0  0  0  1  0  0  0  0  0  0  0  0
   22.1553    3.3916  -65.5165 H   0  0  0  1  0  0  0  0  0  0  0  0
   24.5836    4.1017  -63.8366 H   0  0  0  1  0  0  0  0  0  0  0  0
   23.5560    5.1869  -64.7425 H   0  0  0  1  0  0  0  0  0  0  0  0
   21.9952    5.2505  -63.0435 H   0  0  0  1  0  0  0  0  0  0  0  0
   23.1735    4.4401  -62.0389 H   0  0  0  1  0  0  0  0  0  0  0  0
   23.8702    2.5500  -66.7513 H   0  0  0  1  0  0  0  0  0  0  0  0
   24.6202    4.2294  -57.7514 H   0  0  0  1  0  0  0  0  0  0  0  0
   24.2911    3.5447  -56.1781 H   0  0  0  1  0  0  0  0  0  0  0  0
   23.7194    2.7382  -57.6192 H   0  0  0  1  0  0  0  0  0  0  0  0
   21.9788    1.3555  -64.1463 H   0  0  0  1  0  0  0  0  0  0  0  0
   23.4225    1.7841  -63.2595 H   0  0  0  1  0  0  0  0  0  0  0  0
   19.4650    3.7275  -64.0364 H   0  0  0  1  0  0  0  0  0  0  0  0
   17.3348    3.1940  -63.0550 H   0  0  0  1  0  0  0  0  0  0  0  0
   19.1372    1.5847  -59.7647 H   0  0  0  1  0  0  0  0  0  0  0  0
   21.3234    2.0607  -60.6565 H   0  0  0  1  0  0  0  0  0  0  0  0
  1  3  4  0  0  0  0
  1 14  4  0  0  0  0
  1 21  1  0  0  0  0
  2 14  4  0  0  0  0
  2 15  4  0  0  0  0
  2 30  1  0  0  0  0
  3 16  4  0  0  0  0
  4  5  4  0  0  0  0
  4  7  4  0  0  0  0
  4 17  1  0  0  0  0
  5  9  4  0  0  0  0
  5 31  1  0  0  0  0
  6  7  4  0  0  0  0
  6  8  4  0  0  0  0
  6 32  1  0  0  0  0
  7 33  1  0  0  0  0
  8  9  4  0  0  0  0
  8 20  1  0  0  0  0
  9 34  1  0  0  0  0
 10 11  1  0  0  0  0
 10 21  1  0  0  0  0
 10 24  1  0  0  0  0
 10 35  1  0  0  0  0
 11 12  1  0  0  0  0
 11 36  1  0  0  0  0
 11 37  1  0  0  0  0
 12 23  1  0  0  0  0
 12 38  1  0  0  0  0
 12 39  1  0  0  0  0
 13 23  1  0  0  0  0
 13 25  4  0  0  0  0
 13 29  4  0  0  0  0
 15 16  4  0  0  0  0
 15 18  4  0  0  0  0
 16 17  4  0  0  0  0
 17 19  4  0  0  0  0
 18 19  4  0  0  0  0
 20 22  1  0  0  0  0
 21 40  1  0  0  0  0
 22 41  1  0  0  0  0
 22 42  1  0  0  0  0
 22 43  1  0  0  0  0
 23 24  1  0  0  0  0
 24 44  1  0  0  0  0
 24 45  1  0  0  0  0
 25 26  4  0  0  0  0
 25 46  1  0  0  0  0
 26 27  4  0  0  0  0
 26 47  1  0  0  0  0
 27 28  4  0  0  0  0
 28 29  4  0  0  0  0
 28 48  1  0  0  0  0
 29 49  1  0  0  0  0
M  END
> <ConfClashScore>
0 

> <ConfOneFourInteractionScore>
-0.985577 

> <ConfScore>
0.216607 

> <ConfScorePBest>
0.0014474 

> <ConfTolerance>
0.909507 

> <HETNAM>
     OWQ A 303  OWQ                                                       

> <pdb_OW>
Q_303 -16.5129 3.80749 7.62812 0.15963 1.39178 -0.28144 -3.20151 0 0 0 -1.30514 0 0 0 0 0 0 0 0 -8.31393

$$$$
6yky_lig_1.pdb
 OpenBabel04162415593D

 49 53  0  0  0  0  0  0  0  0999 V2000
   25.1047    1.8135  -65.3760 C   0  0  0  1  0  0  0  0  0  0  0  0
   26.9167    0.5034  -65.9326 C   0  0  0  1  0  0  0  0  0  0  0  0
   25.4178    1.8283  -64.0982 N   0  0  0  1  0  0  0  0  0  0  0  0
   26.7286    1.4698  -61.1391 C   0  0  0  1  0  0  0  0  0  0  0  0
   27.4839    2.4519  -60.5265 C   0  0  0  1  0  0  0  0  0  0  0  0
   25.3948    1.2569  -59.1584 C   0  0  0  1  0  0  0  0  0  0  0  0
   25.6843    0.8695  -60.4532 C   0  0  0  1  0  0  0  0  0  0  0  0
   26.1523    2.2419  -58.5438 C   0  0  0  1  0  0  0  0  0  0  0  0
   27.1936    2.8403  -59.2279 C   0  0  0  1  0  0  0  0  0  0  0  0
   23.6262    2.7684  -67.1142 C   0  0  0  1  0  0  0  0  0  0  0  0
   24.2036    4.1115  -67.5884 C   0  0  0  1  0  0  0  0  0  0  0  0
   23.2534    4.4694  -68.7416 C   0  0  0  1  0  0  0  0  0  0  0  0
   21.2357    3.1272  -69.6582 C   0  0  0  1  0  0  0  0  0  0  0  0
   25.8297    1.1707  -66.2748 N   0  0  0  1  0  0  0  0  0  0  0  0
   27.2965    0.4858  -64.5857 C   0  0  0  1  0  0  0  0  0  0  0  0
   26.4936    1.1851  -63.6614 C   0  0  0  1  0  0  0  0  0  0  0  0
   27.0810    1.0061  -62.4395 N   0  0  0  1  0  0  0  0  0  0  0  0
   28.3159   -0.0766  -63.9004 N   0  0  0  1  0  0  0  0  0  0  0  0
   28.2164    0.2092  -62.6490 N   0  0  0  1  0  0  0  0  0  0  0  0
   25.9307    2.5474  -57.2433 O   0  0  0  1  0  0  0  0  0  0  0  0
   23.9950    2.4927  -65.7365 N   0  0  0  1  0  0  0  0  0  0  0  0
   24.8988    1.8153  -56.5638 C   0  0  0  1  0  0  0  0  0  0  0  0
   22.1249    3.4963  -68.6378 N   0  0  0  1  0  0  0  0  0  0  0  0
   22.1317    3.0010  -67.2488 C   0  0  0  1  0  0  0  0  0  0  0  0
   21.1330    1.8627  -70.2076 C   0  0  0  1  0  0  0  0  0  0  0  0
   20.2044    1.6460  -71.2079 C   0  0  0  1  0  0  0  0  0  0  0  0
   19.3958    2.6001  -71.6791 N   0  0  0  1  0  0  0  0  0  0  0  0
   19.5092    3.8225  -71.1404 C   0  0  0  1  0  0  0  0  0  0  0  0
   20.4087    4.1262  -70.1334 C   0  0  0  1  0  0  0  0  0  0  0  0
   27.4790    0.0013  -66.6492 H   0  0  0  1  0  0  0  0  0  0  0  0
   28.2699    2.8994  -61.0397 H   0  0  0  1  0  0  0  0  0  0  0  0
   24.6088    0.8093  -58.6452 H   0  0  0  1  0  0  0  0  0  0  0  0
   25.1185    0.1277  -60.9129 H   0  0  0  1  0  0  0  0  0  0  0  0
   27.7593    3.5821  -58.7683 H   0  0  0  1  0  0  0  0  0  0  0  0
   23.9518    1.9632  -67.7390 H   0  0  0  1  0  0  0  0  0  0  0  0
   24.1687    4.8469  -66.8120 H   0  0  0  1  0  0  0  0  0  0  0  0
   25.2109    4.0031  -67.9326 H   0  0  0  1  0  0  0  0  0  0  0  0
   23.7513    4.3668  -69.6832 H   0  0  0  1  0  0  0  0  0  0  0  0
   22.8950    5.4719  -68.6344 H   0  0  0  1  0  0  0  0  0  0  0  0
   23.4034    2.8192  -65.0268 H   0  0  0  1  0  0  0  0  0  0  0  0
   24.8930    0.8026  -56.9088 H   0  0  0  1  0  0  0  0  0  0  0  0
   23.9498    2.2662  -56.7660 H   0  0  0  1  0  0  0  0  0  0  0  0
   25.0848    1.8319  -55.5102 H   0  0  0  1  0  0  0  0  0  0  0  0
   21.7716    3.7327  -66.5560 H   0  0  0  1  0  0  0  0  0  0  0  0
   21.5695    2.0973  -67.1383 H   0  0  0  1  0  0  0  0  0  0  0  0
   21.7430    1.0891  -69.8744 H   0  0  0  1  0  0  0  0  0  0  0  0
   20.1310    0.6916  -71.6147 H   0  0  0  1  0  0  0  0  0  0  0  0
   18.8913    4.5793  -71.4966 H   0  0  0  1  0  0  0  0  0  0  0  0
   20.4608    5.0883  -69.7419 H   0  0  0  1  0  0  0  0  0  0  0  0
  1  3  4  0  0  0  0
  1 14  4  0  0  0  0
  1 21  1  0  0  0  0
  2 14  4  0  0  0  0
  2 15  4  0  0  0  0
  2 30  1  0  0  0  0
  3 16  4  0  0  0  0
  4  5  4  0  0  0  0
  4  7  4  0  0  0  0
  4 17  1  0  0  0  0
  5  9  4  0  0  0  0
  5 31  1  0  0  0  0
  6  7  4  0  0  0  0
  6  8  4  0  0  0  0
  6 32  1  0  0  0  0
  7 33  1  0  0  0  0
  8  9  4  0  0  0  0
  8 20  1  0  0  0  0
  9 34  1  0  0  0  0
 10 11  1  0  0  0  0
 10 21  1  0  0  0  0
 10 24  1  0  0  0  0
 10 35  1  0  0  0  0
 11 12  1  0  0  0  0
 11 36  1  0  0  0  0
 11 37  1  0  0  0  0
 12 23  1  0  0  0  0
 12 38  1  0  0  0  0
 12 39  1  0  0  0  0
 13 23  1  0  0  0  0
 13 25  4  0  0  0  0
 13 29  4  0  0  0  0
 15 16  4  0  0  0  0
 15 18  4  0  0  0  0
 16 17  4  0  0  0  0
 17 19  4  0  0  0  0
 18 19  4  0  0  0  0
 20 22  1  0  0  0  0
 21 40  1  0  0  0  0
 22 41  1  0  0  0  0
 22 42  1  0  0  0  0
 22 43  1  0  0  0  0
 23 24  1  0  0  0  0
 24 44  1  0  0  0  0
 24 45  1  0  0  0  0
 25 26  4  0  0  0  0
 25 46  1  0  0  0  0
 26 27  4  0  0  0  0
 26 47  1  0  0  0  0
 27 28  4  0  0  0  0
 28 29  4  0  0  0  0
 28 48  1  0  0  0  0
 29 49  1  0  0  0  0
M  END
> <ConfClashScore>
0 

> <ConfOneFourInteractionScore>
-0.986948 

> <ConfScore>
0.21738 

> <ConfScorePBest>
0.00143407 

> <ConfTolerance>
1.10494 

> <HETNAM>
     OWQ A 303  OWQ                                                       

> <pdb_OW>
Q_303 -16.5129 3.80749 7.62812 0.15963 1.39178 -0.28144 -3.20151 0 0 0 -1.30514 0 0 0 0 0 0 0 0 -8.31393

$$$$
6yky_lig_1.pdb
 OpenBabel04162415593D

 49 53  0  0  0  0  0  0  0  0999 V2000
   25.1047    1.8134  -65.3760 C   0  0  0  1  0  0  0  0  0  0  0  0
   26.9167    0.5034  -65.9326 C   0  0  0  1  0  0  0  0  0  0  0  0
   25.4177    1.8282  -64.0982 N   0  0  0  1  0  0  0  0  0  0  0  0
   26.7285    1.4698  -61.1390 C   0  0  0  1  0  0  0  0  0  0  0  0
   26.4962    2.8230  -60.9811 C   0  0  0  1  0  0  0  0  0  0  0  0
   26.4457    1.1435  -58.7809 C   0  0  0  1  0  0  0  0  0  0  0  0
   26.7059    0.6291  -60.0371 C   0  0  0  1  0  0  0  0  0  0  0  0
   26.2129    2.5008  -58.6222 C   0  0  0  1  0  0  0  0  0  0  0  0
   26.2354    3.3388  -59.7211 C   0  0  0  1  0  0  0  0  0  0  0  0
   23.7070    2.4336  -67.2439 C   0  0  0  1  0  0  0  0  0  0  0  0
   22.3698    3.1016  -67.6018 C   0  0  0  1  0  0  0  0  0  0  0  0
   22.0282    2.4199  -68.9357 C   0  0  0  1  0  0  0  0  0  0  0  0
   23.3808    0.6479  -70.2324 C   0  0  0  1  0  0  0  0  0  0  0  0
   25.8296    1.1706  -66.2748 N   0  0  0  1  0  0  0  0  0  0  0  0
   27.2964    0.4857  -64.5857 C   0  0  0  1  0  0  0  0  0  0  0  0
   26.4936    1.1850  -63.6614 C   0  0  0  1  0  0  0  0  0  0  0  0
   27.0808    1.0061  -62.4395 N   0  0  0  1  0  0  0  0  0  0  0  0
   28.3158   -0.0766  -63.9004 N   0  0  0  1  0  0  0  0  0  0  0  0
   28.2164    0.2092  -62.6490 N   0  0  0  1  0  0  0  0  0  0  0  0
   26.0583    3.0159  -57.3794 O   0  0  0  1  0  0  0  0  0  0  0  0
   23.9670    2.5004  -65.7987 N   0  0  0  1  0  0  0  0  0  0  0  0
   26.0854    4.4464  -57.2540 C   0  0  0  1  0  0  0  0  0  0  0  0
   23.0009    1.2934  -69.0621 N   0  0  0  1  0  0  0  0  0  0  0  0
   23.4777    1.0027  -67.6973 C   0  0  0  1  0  0  0  0  0  0  0  0
   24.6084    0.7812  -70.8541 C   0  0  0  1  0  0  0  0  0  0  0  0
   24.8459    0.0707  -72.0155 C   0  0  0  1  0  0  0  0  0  0  0  0
   23.9457   -0.7422  -72.5766 N   0  0  0  1  0  0  0  0  0  0  0  0
   22.7582   -0.8586  -71.9655 C   0  0  0  1  0  0  0  0  0  0  0  0
   22.4376   -0.1873  -70.7984 C   0  0  0  1  0  0  0  0  0  0  0  0
   27.4790    0.0014  -66.6492 H   0  0  0  1  0  0  0  0  0  0  0  0
   26.5173    3.4542  -61.8072 H   0  0  0  1  0  0  0  0  0  0  0  0
   26.4248    0.5123  -57.9547 H   0  0  0  1  0  0  0  0  0  0  0  0
   26.8846   -0.3886  -60.1555 H   0  0  0  1  0  0  0  0  0  0  0  0
   26.0567    4.3565  -59.6027 H   0  0  0  1  0  0  0  0  0  0  0  0
   24.5201    2.8836  -67.7743 H   0  0  0  1  0  0  0  0  0  0  0  0
   22.4819    4.1589  -67.7218 H   0  0  0  1  0  0  0  0  0  0  0  0
   21.6242    2.9032  -66.8604 H   0  0  0  1  0  0  0  0  0  0  0  0
   22.1429    3.1069  -69.7479 H   0  0  0  1  0  0  0  0  0  0  0  0
   21.0248    2.0487  -68.9208 H   0  0  0  1  0  0  0  0  0  0  0  0
   23.3857    2.9899  -65.1799 H   0  0  0  1  0  0  0  0  0  0  0  0
   25.8995    4.7193  -56.2362 H   0  0  0  1  0  0  0  0  0  0  0  0
   25.3309    4.8736  -57.8809 H   0  0  0  1  0  0  0  0  0  0  0  0
   27.0460    4.8120  -57.5513 H   0  0  0  1  0  0  0  0  0  0  0  0
   22.7373    0.5046  -67.1070 H   0  0  0  1  0  0  0  0  0  0  0  0
   24.3804    0.4282  -67.6972 H   0  0  0  1  0  0  0  0  0  0  0  0
   25.3395    1.4044  -70.4554 H   0  0  0  1  0  0  0  0  0  0  0  0
   25.7725    0.1740  -72.4763 H   0  0  0  1  0  0  0  0  0  0  0  0
   22.0430   -1.4836  -72.3891 H   0  0  0  1  0  0  0  0  0  0  0  0
   21.5043   -0.3096  -70.3561 H   0  0  0  1  0  0  0  0  0  0  0  0
  1  3  4  0  0  0  0
  1 14  4  0  0  0  0
  1 21  1  0  0  0  0
  2 14  4  0  0  0  0
  2 15  4  0  0  0  0
  2 30  1  0  0  0  0
  3 16  4  0  0  0  0
  4  5  4  0  0  0  0
  4  7  4  0  0  0  0
  4 17  1  0  0  0  0
  5  9  4  0  0  0  0
  5 31  1  0  0  0  0
  6  7  4  0  0  0  0
  6  8  4  0  0  0  0
  6 32  1  0  0  0  0
  7 33  1  0  0  0  0
  8  9  4  0  0  0  0
  8 20  1  0  0  0  0
  9 34  1  0  0  0  0
 10 11  1  0  0  0  0
 10 21  1  0  0  0  0
 10 24  1  0  0  0  0
 10 35  1  0  0  0  0
 11 12  1  0  0  0  0
 11 36  1  0  0  0  0
 11 37  1  0  0  0  0
 12 23  1  0  0  0  0
 12 38  1  0  0  0  0
 12 39  1  0  0  0  0
 13 23  1  0  0  0  0
 13 25  4  0  0  0  0
 13 29  4  0  0  0  0
 15 16  4  0  0  0  0
 15 18  4  0  0  0  0
 16 17  4  0  0  0  0
 17 19  4  0  0  0  0
 18 19  4  0  0  0  0
 20 22  1  0  0  0  0
 21 40  1  0  0  0  0
 22 41  1  0  0  0  0
 22 42  1  0  0  0  0
 22 43  1  0  0  0  0
 23 24  1  0  0  0  0
 24 44  1  0  0  0  0
 24 45  1  0  0  0  0
 25 26  4  0  0  0  0
 25 46  1  0  0  0  0
 26 27  4  0  0  0  0
 26 47  1  0  0  0  0
 27 28  4  0  0  0  0
 28 29  4  0  0  0  0
 28 48  1  0  0  0  0
 29 49  1  0  0  0  0
M  END
> <ConfClashScore>
0 

> <ConfOneFourInteractionScore>
-0.984874 

> <ConfScore>
0.221294 

> <ConfScorePBest>
0.00142074 

> <ConfTolerance>
1.18014 

> <HETNAM>
     OWQ A 303  OWQ                                                       

> <pdb_OW>
Q_303 -16.5129 3.80749 7.62812 0.15963 1.39178 -0.28144 -3.20151 0 0 0 -1.30514 0 0 0 0 0 0 0 0 -8.31393

$$$$
6yky_lig_1.pdb
 OpenBabel04162415593D

 49 53  0  0  0  0  0  0  0  0999 V2000
   25.1047    1.8133  -65.3760 C   0  0  0  1  0  0  0  0  0  0  0  0
   26.9167    0.5034  -65.9326 C   0  0  0  1  0  0  0  0  0  0  0  0
   25.4176    1.8281  -64.0982 N   0  0  0  1  0  0  0  0  0  0  0  0
   26.6853    1.4947  -61.1608 C   0  0  0  1  0  0  0  0  0  0  0  0
   27.6425    1.8352  -60.2238 C   0  0  0  1  0  0  0  0  0  0  0  0
   24.9574    1.9306  -59.5573 C   0  0  0  1  0  0  0  0  0  0  0  0
   25.3409    1.5399  -60.8264 C   0  0  0  1  0  0  0  0  0  0  0  0
   25.9172    2.2722  -58.6173 C   0  0  0  1  0  0  0  0  0  0  0  0
   27.2577    2.2271  -58.9511 C   0  0  0  1  0  0  0  0  0  0  0  0
   23.4314    2.3491  -67.1112 C   0  0  0  1  0  0  0  0  0  0  0  0
   23.2497    0.8739  -67.5021 C   0  0  0  1  0  0  0  0  0  0  0  0
   23.2287    0.9583  -69.0362 C   0  0  0  1  0  0  0  0  0  0  0  0
   23.4104    3.0594  -70.5588 C   0  0  0  1  0  0  0  0  0  0  0  0
   25.8295    1.1705  -66.2747 N   0  0  0  1  0  0  0  0  0  0  0  0
   27.2964    0.4857  -64.5858 C   0  0  0  1  0  0  0  0  0  0  0  0
   26.4936    1.1849  -63.6614 C   0  0  0  1  0  0  0  0  0  0  0  0
   27.0808    1.0059  -62.4395 N   0  0  0  1  0  0  0  0  0  0  0  0
   28.3159   -0.0766  -63.9004 N   0  0  0  1  0  0  0  0  0  0  0  0
   28.2164    0.2092  -62.6490 N   0  0  0  1  0  0  0  0  0  0  0  0
   25.4233    2.6330  -57.4092 O   0  0  0  1  0  0  0  0  0  0  0  0
   24.0073    2.4759  -65.7837 N   0  0  0  1  0  0  0  0  0  0  0  0
   26.3719    2.8801  -56.3597 C   0  0  0  1  0  0  0  0  0  0  0  0
   23.6582    2.3521  -69.3592 N   0  0  0  1  0  0  0  0  0  0  0  0
   24.3920    2.8435  -68.1783 C   0  0  0  1  0  0  0  0  0  0  0  0
   23.7221    4.4057  -70.6011 C   0  0  0  1  0  0  0  0  0  0  0  0
   23.4879    5.1058  -71.7693 C   0  0  0  1  0  0  0  0  0  0  0  0
   22.9697    4.5491  -72.8684 N   0  0  0  1  0  0  0  0  0  0  0  0
   22.6682    3.2440  -72.8119 C   0  0  0  1  0  0  0  0  0  0  0  0
   22.8733    2.4671  -71.6850 C   0  0  0  1  0  0  0  0  0  0  0  0
   27.4790    0.0014  -66.6492 H   0  0  0  1  0  0  0  0  0  0  0  0
   28.6514    1.7974  -60.4736 H   0  0  0  1  0  0  0  0  0  0  0  0
   23.9485    1.9684  -59.3075 H   0  0  0  1  0  0  0  0  0  0  0  0
   24.6208    1.2798  -61.5302 H   0  0  0  1  0  0  0  0  0  0  0  0
   27.9778    2.4872  -58.2472 H   0  0  0  1  0  0  0  0  0  0  0  0
   22.5024    2.8786  -67.1496 H   0  0  0  1  0  0  0  0  0  0  0  0
   24.0660    0.2753  -67.1557 H   0  0  0  1  0  0  0  0  0  0  0  0
   22.3308    0.4799  -67.1208 H   0  0  0  1  0  0  0  0  0  0  0  0
   23.9085    0.2489  -69.4599 H   0  0  0  1  0  0  0  0  0  0  0  0
   22.2425    0.7743  -69.4083 H   0  0  0  1  0  0  0  0  0  0  0  0
   23.5704    3.0799  -65.1475 H   0  0  0  1  0  0  0  0  0  0  0  0
   27.0896    3.6018  -56.6895 H   0  0  0  1  0  0  0  0  0  0  0  0
   26.8726    1.9680  -56.1097 H   0  0  0  1  0  0  0  0  0  0  0  0
   25.8603    3.2544  -55.4977 H   0  0  0  1  0  0  0  0  0  0  0  0
   24.4872    3.9093  -68.1752 H   0  0  0  1  0  0  0  0  0  0  0  0
   25.3608    2.3980  -68.0890 H   0  0  0  1  0  0  0  0  0  0  0  0
   24.1252    4.8826  -69.7694 H   0  0  0  1  0  0  0  0  0  0  0  0
   23.7271    6.1177  -71.7946 H   0  0  0  1  0  0  0  0  0  0  0  0
   22.2605    2.7935  -73.6559 H   0  0  0  1  0  0  0  0  0  0  0  0
   22.6275    1.4565  -71.6863 H   0  0  0  1  0  0  0  0  0  0  0  0
  1  3  4  0  0  0  0
  1 14  4  0  0  0  0
  1 21  1  0  0  0  0
  2 14  4  0  0  0  0
  2 15  4  0  0  0  0
  2 30  1  0  0  0  0
  3 16  4  0  0  0  0
  4  5  4  0  0  0  0
  4  7  4  0  0  0  0
  4 17  1  0  0  0  0
  5  9  4  0  0  0  0
  5 31  1  0  0  0  0
  6  7  4  0  0  0  0
  6  8  4  0  0  0  0
  6 32  1  0  0  0  0
  7 33  1  0  0  0  0
  8  9  4  0  0  0  0
  8 20  1  0  0  0  0
  9 34  1  0  0  0  0
 10 11  1  0  0  0  0
 10 21  1  0  0  0  0
 10 24  1  0  0  0  0
 10 35  1  0  0  0  0
 11 12  1  0  0  0  0
 11 36  1  0  0  0  0
 11 37  1  0  0  0  0
 12 23  1  0  0  0  0
 12 38  1  0  0  0  0
 12 39  1  0  0  0  0
 13 23  1  0  0  0  0
 13 25  4  0  0  0  0
 13 29  4  0  0  0  0
 15 16  4  0  0  0  0
 15 18  4  0  0  0  0
 16 17  4  0  0  0  0
 17 19  4  0  0  0  0
 18 19  4  0  0  0  0
 20 22  1  0  0  0  0
 21 40  1  0  0  0  0
 22 41  1  0  0  0  0
 22 42  1  0  0  0  0
 22 43  1  0  0  0  0
 23 24  1  0  0  0  0
 24 44  1  0  0  0  0
 24 45  1  0  0  0  0
 25 26  4  0  0  0  0
 25 46  1  0  0  0  0
 26 27  4  0  0  0  0
 26 47  1  0  0  0  0
 27 28  4  0  0  0  0
 28 29  4  0  0  0  0
 28 48  1  0  0  0  0
 29 49  1  0  0  0  0
M  END
> <ConfClashScore>
0 

> <ConfOneFourInteractionScore>
-0.983503 

> <ConfScore>
0.226483 

> <ConfScorePBest>
0.00140741 

> <ConfTolerance>
1.22832 

> <HETNAM>
     OWQ A 303  OWQ                                                       

> <pdb_OW>
Q_303 -16.5129 3.80749 7.62812 0.15963 1.39178 -0.28144 -3.20151 0 0 0 -1.30514 0 0 0 0 0 0 0 0 -8.31393

$$$$
6yky_lig_1.pdb
 OpenBabel04162415593D

 49 53  0  0  0  0  0  0  0  0999 V2000
   25.1047    1.8134  -65.3760 C   0  0  0  1  0  0  0  0  0  0  0  0
   26.9167    0.5034  -65.9326 C   0  0  0  1  0  0  0  0  0  0  0  0
   25.4178    1.8282  -64.0982 N   0  0  0  1  0  0  0  0  0  0  0  0
   26.7285    1.4698  -61.1391 C   0  0  0  1  0  0  0  0  0  0  0  0
   25.4428    1.2235  -60.6961 C   0  0  0  1  0  0  0  0  0  0  0  0
   27.1757    2.7285  -59.1484 C   0  0  0  1  0  0  0  0  0  0  0  0
   27.5955    2.2257  -60.3654 C   0  0  0  1  0  0  0  0  0  0  0  0
   25.8861    2.4815  -58.7039 C   0  0  0  1  0  0  0  0  0  0  0  0
   25.0218    1.7279  -59.4754 C   0  0  0  1  0  0  0  0  0  0  0  0
   23.5683    2.6505  -67.1674 C   0  0  0  1  0  0  0  0  0  0  0  0
   24.7434    2.9286  -68.0590 C   0  0  0  1  0  0  0  0  0  0  0  0
   24.4388    4.2400  -68.7361 C   0  0  0  1  0  0  0  0  0  0  0  0
   23.5654    6.2469  -67.4066 C   0  0  0  1  0  0  0  0  0  0  0  0
   25.8297    1.1706  -66.2748 N   0  0  0  1  0  0  0  0  0  0  0  0
   27.2964    0.4857  -64.5857 C   0  0  0  1  0  0  0  0  0  0  0  0
   26.4936    1.1851  -63.6614 C   0  0  0  1  0  0  0  0  0  0  0  0
   27.0809    1.0061  -62.4395 N   0  0  0  1  0  0  0  0  0  0  0  0
   28.3158   -0.0766  -63.9004 N   0  0  0  1  0  0  0  0  0  0  0  0
   28.2164    0.2092  -62.6490 N   0  0  0  1  0  0  0  0  0  0  0  0
   25.3689    2.9191  -57.5500 O   0  0  0  1  0  0  0  0  0  0  0  0
   24.0136    2.4725  -65.7815 N   0  0  0  1  0  0  0  0  0  0  0  0
   26.2059    3.5359  -56.5147 C   0  0  0  1  0  0  0  0  0  0  0  0
   23.5557    4.9178  -67.7685 N   0  0  0  1  0  0  0  0  0  0  0  0
   22.6598    3.8553  -67.2749 C   0  0  0  1  0  0  0  0  0  0  0  0
   24.2983    6.6749  -66.3152 C   0  0  0  1  0  0  0  0  0  0  0  0
   24.2833    8.0178  -65.9897 C   0  0  0  1  0  0  0  0  0  0  0  0
   23.5910    8.9324  -66.6756 N   0  0  0  1  0  0  0  0  0  0  0  0
   22.8814    8.5030  -67.7287 C   0  0  0  1  0  0  0  0  0  0  0  0
   22.8431    7.1780  -68.1271 C   0  0  0  1  0  0  0  0  0  0  0  0
   27.4789    0.0013  -66.6492 H   0  0  0  1  0  0  0  0  0  0  0  0
   24.7911    0.6598  -61.2785 H   0  0  0  1  0  0  0  0  0  0  0  0
   27.8274    3.2922  -58.5660 H   0  0  0  1  0  0  0  0  0  0  0  0
   28.5617    2.4144  -60.7006 H   0  0  0  1  0  0  0  0  0  0  0  0
   24.0557    1.5392  -59.1402 H   0  0  0  1  0  0  0  0  0  0  0  0
   23.0558    1.7698  -67.4939 H   0  0  0  1  0  0  0  0  0  0  0  0
   25.6403    3.0068  -67.4808 H   0  0  0  1  0  0  0  0  0  0  0  0
   24.8532    2.1505  -68.7852 H   0  0  0  1  0  0  0  0  0  0  0  0
   23.9384    4.0836  -69.6689 H   0  0  0  1  0  0  0  0  0  0  0  0
   25.3331    4.8041  -68.9007 H   0  0  0  1  0  0  0  0  0  0  0  0
   23.4567    2.8762  -65.0834 H   0  0  0  1  0  0  0  0  0  0  0  0
   27.1908    3.6968  -56.9006 H   0  0  0  1  0  0  0  0  0  0  0  0
   26.2576    2.8874  -55.6651 H   0  0  0  1  0  0  0  0  0  0  0  0
   25.7797    4.4731  -56.2233 H   0  0  0  1  0  0  0  0  0  0  0  0
   21.8642    3.6738  -67.9668 H   0  0  0  1  0  0  0  0  0  0  0  0
   22.2511    4.1125  -66.3201 H   0  0  0  1  0  0  0  0  0  0  0  0
   24.8507    5.9989  -65.7500 H   0  0  0  1  0  0  0  0  0  0  0  0
   24.8389    8.3328  -65.1689 H   0  0  0  1  0  0  0  0  0  0  0  0
   22.3330    9.1991  -68.2729 H   0  0  0  1  0  0  0  0  0  0  0  0
   22.2811    6.8891  -68.9531 H   0  0  0  1  0  0  0  0  0  0  0  0
  1  3  4  0  0  0  0
  1 14  4  0  0  0  0
  1 21  1  0  0  0  0
  2 14  4  0  0  0  0
  2 15  4  0  0  0  0
  2 30  1  0  0  0  0
  3 16  4  0  0  0  0
  4  5  4  0  0  0  0
  4  7  4  0  0  0  0
  4 17  1  0  0  0  0
  5  9  4  0  0  0  0
  5 31  1  0  0  0  0
  6  7  4  0  0  0  0
  6  8  4  0  0  0  0
  6 32  1  0  0  0  0
  7 33  1  0  0  0  0
  8  9  4  0  0  0  0
  8 20  1  0  0  0  0
  9 34  1  0  0  0  0
 10 11  1  0  0  0  0
 10 21  1  0  0  0  0
 10 24  1  0  0  0  0
 10 35  1  0  0  0  0
 11 12  1  0  0  0  0
 11 36  1  0  0  0  0
 11 37  1  0  0  0  0
 12 23  1  0  0  0  0
 12 38  1  0  0  0  0
 12 39  1  0  0  0  0
 13 23  1  0  0  0  0
 13 25  4  0  0  0  0
 13 29  4  0  0  0  0
 15 16  4  0  0  0  0
 15 18  4  0  0  0  0
 16 17  4  0  0  0  0
 17 19  4  0  0  0  0
 18 19  4  0  0  0  0
 20 22  1  0  0  0  0
 21 40  1  0  0  0  0
 22 41  1  0  0  0  0
 22 42  1  0  0  0  0
 22 43  1  0  0  0  0
 23 24  1  0  0  0  0
 24 44  1  0  0  0  0
 24 45  1  0  0  0  0
 25 26  4  0  0  0  0
 25 46  1  0  0  0  0
 26 27  4  0  0  0  0
 26 47  1  0  0  0  0
 27 28  4  0  0  0  0
 28 29  4  0  0  0  0
 28 48  1  0  0  0  0
 29 49  1  0  0  0  0
M  END
> <ConfClashScore>
0 

> <ConfOneFourInteractionScore>
-0.982045 

> <ConfScore>
0.292366 

> <ConfScorePBest>
0.00139408 

> <ConfTolerance>
1.3901 

> <HETNAM>
     OWQ A 303  OWQ                                                       

> <pdb_OW>
Q_303 -16.5129 3.80749 7.62812 0.15963 1.39178 -0.28144 -3.20151 0 0 0 -1.30514 0 0 0 0 0 0 0 0 -8.31393

$$$$
6yky_lig_1.pdb
 OpenBabel04162415593D

 49 53  0  0  0  0  0  0  0  0999 V2000
   25.1048    1.8137  -65.3760 C   0  0  0  1  0  0  0  0  0  0  0  0
   26.9167    0.5034  -65.9326 C   0  0  0  1  0  0  0  0  0  0  0  0
   25.4179    1.8285  -64.0983 N   0  0  0  1  0  0  0  0  0  0  0  0
   26.7671    1.4476  -61.1216 C   0  0  0  1  0  0  0  0  0  0  0  0
   26.0622    0.6229  -60.2652 C   0  0  0  1  0  0  0  0  0  0  0  0
   26.7089    3.1995  -59.4861 C   0  0  0  1  0  0  0  0  0  0  0  0
   27.0887    2.7387  -60.7326 C   0  0  0  1  0  0  0  0  0  0  0  0
   26.0019    2.3725  -58.6270 C   0  0  0  1  0  0  0  0  0  0  0  0
   25.6814    1.0852  -59.0151 C   0  0  0  1  0  0  0  0  0  0  0  0
   23.4610    2.3293  -67.1322 C   0  0  0  1  0  0  0  0  0  0  0  0
   23.3009    0.8392  -67.4839 C   0  0  0  1  0  0  0  0  0  0  0  0
   23.6256    0.7569  -68.9841 C   0  0  0  1  0  0  0  0  0  0  0  0
   25.7696    1.6867  -70.0150 C   0  0  0  1  0  0  0  0  0  0  0  0
   25.8297    1.1707  -66.2748 N   0  0  0  1  0  0  0  0  0  0  0  0
   27.2965    0.4858  -64.5857 C   0  0  0  1  0  0  0  0  0  0  0  0
   26.4937    1.1853  -63.6615 C   0  0  0  1  0  0  0  0  0  0  0  0
   27.0811    1.0063  -62.4395 N   0  0  0  1  0  0  0  0  0  0  0  0
   28.3159   -0.0766  -63.9004 N   0  0  0  1  0  0  0  0  0  0  0  0
   28.2164    0.2092  -62.6490 N   0  0  0  1  0  0  0  0  0  0  0  0
   25.5449    2.8594  -57.4489 O   0  0  0  1  0  0  0  0  0  0  0  0
   23.9921    2.4858  -65.7895 N   0  0  0  1  0  0  0  0  0  0  0  0
   25.8539    4.2325  -57.1398 C   0  0  0  1  0  0  0  0  0  0  0  0
   24.6745    1.7640  -69.1060 N   0  0  0  1  0  0  0  0  0  0  0  0
   24.4492    2.8617  -68.1698 C   0  0  0  1  0  0  0  0  0  0  0  0
   26.9660    2.3193  -69.7324 C   0  0  0  1  0  0  0  0  0  0  0  0
   28.0033    2.2154  -70.6395 C   0  0  0  1  0  0  0  0  0  0  0  0
   27.9117    1.5340  -71.7856 N   0  0  0  1  0  0  0  0  0  0  0  0
   26.7445    0.9292  -72.0488 C   0  0  0  1  0  0  0  0  0  0  0  0
   25.6563    0.9785  -71.1954 C   0  0  0  1  0  0  0  0  0  0  0  0
   27.4788    0.0012  -66.6492 H   0  0  0  1  0  0  0  0  0  0  0  0
   25.8176   -0.3443  -60.5587 H   0  0  0  1  0  0  0  0  0  0  0  0
   26.9536    4.1666  -59.1926 H   0  0  0  1  0  0  0  0  0  0  0  0
   27.6157    3.3604  -61.3785 H   0  0  0  1  0  0  0  0  0  0  0  0
   25.1545    0.4634  -58.3692 H   0  0  0  1  0  0  0  0  0  0  0  0
   22.5230    2.8385  -67.2068 H   0  0  0  1  0  0  0  0  0  0  0  0
   22.2996    0.5125  -67.2961 H   0  0  0  1  0  0  0  0  0  0  0  0
   23.9839    0.2419  -66.9167 H   0  0  0  1  0  0  0  0  0  0  0  0
   22.7741    1.0041  -69.5830 H   0  0  0  1  0  0  0  0  0  0  0  0
   23.9826   -0.2149  -69.2545 H   0  0  0  1  0  0  0  0  0  0  0  0
   23.5394    3.0898  -65.1645 H   0  0  0  1  0  0  0  0  0  0  0  0
   25.1248    4.8729  -57.5906 H   0  0  0  1  0  0  0  0  0  0  0  0
   26.8244    4.4738  -57.5203 H   0  0  0  1  0  0  0  0  0  0  0  0
   25.8420    4.3702  -56.0787 H   0  0  0  1  0  0  0  0  0  0  0  0
   24.0349    3.7064  -68.6793 H   0  0  0  1  0  0  0  0  0  0  0  0
   25.3676    3.1438  -67.6988 H   0  0  0  1  0  0  0  0  0  0  0  0
   27.0832    2.8631  -68.8537 H   0  0  0  1  0  0  0  0  0  0  0  0
   28.9011    2.6917  -70.4191 H   0  0  0  1  0  0  0  0  0  0  0  0
   26.6525    0.3972  -72.9377 H   0  0  0  1  0  0  0  0  0  0  0  0
   24.7699    0.4914  -71.4381 H   0  0  0  1  0  0  0  0  0  0  0  0
  1  3  4  0  0  0  0
  1 14  4  0  0  0  0
  1 21  1  0  0  0  0
  2 14  4  0  0  0  0
  2 15  4  0  0  0  0
  2 30  1  0  0  0  0
  3 16  4  0  0  0  0
  4  5  4  0  0  0  0
  4  7  4  0  0  0  0
  4 17  1  0  0  0  0
  5  9  4  0  0  0  0
  5 31  1  0  0  0  0
  6  7  4  0  0  0  0
  6  8  4  0  0  0  0
  6 32  1  0  0  0  0
  7 33  1  0  0  0  0
  8  9  4  0  0  0  0
  8 20  1  0  0  0  0
  9 34  1  0  0  0  0
 10 11  1  0  0  0  0
 10 21  1  0  0  0  0
 10 24  1  0  0  0  0
 10 35  1  0  0  0  0
 11 12  1  0  0  0  0
 11 36  1  0  0  0  0
 11 37  1  0  0  0  0
 12 23  1  0  0  0  0
 12 38  1  0  0  0  0
 12 39  1  0  0  0  0
 13 23  1  0  0  0  0
 13 25  4  0  0  0  0
 13 29  4  0  0  0  0
 15 16  4  0  0  0  0
 15 18  4  0  0  0  0
 16 17  4  0  0  0  0
 17 19  4  0  0  0  0
 18 19  4  0  0  0  0
 20 22  1  0  0  0  0
 21 40  1  0  0  0  0
 22 41  1  0  0  0  0
 22 42  1  0  0  0  0
 22 43  1  0  0  0  0
 23 24  1  0  0  0  0
 24 44  1  0  0  0  0
 24 45  1  0  0  0  0
 25 26  4  0  0  0  0
 25 46  1  0  0  0  0
 26 27  4  0  0  0  0
 26 47  1  0  0  0  0
 27 28  4  0  0  0  0
 28 29  4  0  0  0  0
 28 48  1  0  0  0  0
 29 49  1  0  0  0  0
M  END
> <ConfClashScore>
0 

> <ConfOneFourInteractionScore>
-0.988311 

> <ConfScore>
0.336321 

> <ConfScorePBest>
0.00138075 

> <ConfTolerance>
1.34792 

> <HETNAM>
     OWQ A 303  OWQ                                                       

> <pdb_OW>
Q_303 -16.5129 3.80749 7.62812 0.15963 1.39178 -0.28144 -3.20151 0 0 0 -1.30514 0 0 0 0 0 0 0 0 -8.31393

$$$$
6yky_lig_1.pdb
 OpenBabel04162415593D

 49 53  0  0  0  0  0  0  0  0999 V2000
   25.1048    1.8136  -65.3760 C   0  0  0  1  0  0  0  0  0  0  0  0
   26.9167    0.5034  -65.9326 C   0  0  0  1  0  0  0  0  0  0  0  0
   25.4178    1.8284  -64.0982 N   0  0  0  1  0  0  0  0  0  0  0  0
   26.7286    1.4699  -61.1391 C   0  0  0  1  0  0  0  0  0  0  0  0
   27.2575    2.6534  -60.6597 C   0  0  0  1  0  0  0  0  0  0  0  0
   25.6563    1.0916  -59.0286 C   0  0  0  1  0  0  0  0  0  0  0  0
   25.9291    0.6865  -60.3216 C   0  0  0  1  0  0  0  0  0  0  0  0
   26.1867    2.2786  -58.5476 C   0  0  0  1  0  0  0  0  0  0  0  0
   26.9839    3.0596  -59.3629 C   0  0  0  1  0  0  0  0  0  0  0  0
   23.1495    3.2752  -64.9750 C   0  0  0  1  0  0  0  0  0  0  0  0
   22.8240    2.5564  -63.6560 C   0  0  0  1  0  0  0  0  0  0  0  0
   21.5298    3.2318  -63.2384 C   0  0  0  1  0  0  0  0  0  0  0  0
   19.4528    2.6565  -64.6638 C   0  0  0  1  0  0  0  0  0  0  0  0
   25.8296    1.1707  -66.2748 N   0  0  0  1  0  0  0  0  0  0  0  0
   27.2965    0.4857  -64.5858 C   0  0  0  1  0  0  0  0  0  0  0  0
   26.4937    1.1852  -63.6614 C   0  0  0  1  0  0  0  0  0  0  0  0
   27.0810    1.0062  -62.4396 N   0  0  0  1  0  0  0  0  0  0  0  0
   28.3159   -0.0766  -63.9004 N   0  0  0  1  0  0  0  0  0  0  0  0
   28.2164    0.2092  -62.6490 N   0  0  0  1  0  0  0  0  0  0  0  0
   25.8564    2.5679  -57.2701 O   0  0  0  1  0  0  0  0  0  0  0  0
   24.0153    2.4643  -65.8221 N   0  0  0  1  0  0  0  0  0  0  0  0
   26.4777    3.6847  -56.6147 C   0  0  0  1  0  0  0  0  0  0  0  0
   20.7957    3.0723  -64.5073 N   0  0  0  1  0  0  0  0  0  0  0  0
   21.7529    3.4374  -65.5944 C   0  0  0  1  0  0  0  0  0  0  0  0
   18.9774    1.5431  -63.9961 C   0  0  0  1  0  0  0  0  0  0  0  0
   17.6576    1.1742  -64.1745 C   0  0  0  1  0  0  0  0  0  0  0  0
   16.8096    1.8381  -64.9658 N   0  0  0  1  0  0  0  0  0  0  0  0
   17.2851    2.9131  -65.6105 C   0  0  0  1  0  0  0  0  0  0  0  0
   18.5909    3.3548  -65.4867 C   0  0  0  1  0  0  0  0  0  0  0  0
   27.4789    0.0013  -66.6492 H   0  0  0  1  0  0  0  0  0  0  0  0
   27.8607    3.2392  -61.2718 H   0  0  0  1  0  0  0  0  0  0  0  0
   25.0531    0.5058  -58.4165 H   0  0  0  1  0  0  0  0  0  0  0  0
   25.5344   -0.2061  -60.6811 H   0  0  0  1  0  0  0  0  0  0  0  0
   27.3786    3.9522  -59.0035 H   0  0  0  1  0  0  0  0  0  0  0  0
   23.6104    4.2246  -64.7983 H   0  0  0  1  0  0  0  0  0  0  0  0
   22.6824    1.5071  -63.8101 H   0  0  0  1  0  0  0  0  0  0  0  0
   23.5945    2.7100  -62.9296 H   0  0  0  1  0  0  0  0  0  0  0  0
   21.0515    2.7241  -62.4270 H   0  0  0  1  0  0  0  0  0  0  0  0
   21.6745    4.2602  -62.9805 H   0  0  0  1  0  0  0  0  0  0  0  0
   23.7903    2.3887  -66.7730 H   0  0  0  1  0  0  0  0  0  0  0  0
   27.4373    3.8666  -57.0517 H   0  0  0  1  0  0  0  0  0  0  0  0
   26.5957    3.4665  -55.5738 H   0  0  0  1  0  0  0  0  0  0  0  0
   25.8630    4.5527  -56.7302 H   0  0  0  1  0  0  0  0  0  0  0  0
   21.6360    2.7823  -66.4323 H   0  0  0  1  0  0  0  0  0  0  0  0
   21.5967    4.4487  -65.9073 H   0  0  0  1  0  0  0  0  0  0  0  0
   19.6012    0.9935  -63.3713 H   0  0  0  1  0  0  0  0  0  0  0  0
   17.3064    0.3371  -63.6672 H   0  0  0  1  0  0  0  0  0  0  0  0
   16.6414    3.4408  -66.2340 H   0  0  0  1  0  0  0  0  0  0  0  0
   18.9168    4.1964  -66.0035 H   0  0  0  1  0  0  0  0  0  0  0  0
  1  3  4  0  0  0  0
  1 14  4  0  0  0  0
  1 21  1  0  0  0  0
  2 14  4  0  0  0  0
  2 15  4  0  0  0  0
  2 30  1  0  0  0  0
  3 16  4  0  0  0  0
  4  5  4  0  0  0  0
  4  7  4  0  0  0  0
  4 17  1  0  0  0  0
  5  9  4  0  0  0  0
  5 31  1  0  0  0  0
  6  7  4  0  0  0  0
  6  8  4  0  0  0  0
  6 32  1  0  0  0  0
  7 33  1  0  0  0  0
  8  9  4  0  0  0  0
  8 20  1  0  0  0  0
  9 34  1  0  0  0  0
 10 11  1  0  0  0  0
 10 21  1  0  0  0  0
 10 24  1  0  0  0  0
 10 35  1  0  0  0  0
 11 12  1  0  0  0  0
 11 36  1  0  0  0  0
 11 37  1  0  0  0  0
 12 23  1  0  0  0  0
 12 38  1  0  0  0  0
 12 39  1  0  0  0  0
 13 23  1  0  0  0  0
 13 25  4  0  0  0  0
 13 29  4  0  0  0  0
 15 16  4  0  0  0  0
 15 18  4  0  0  0  0
 16 17  4  0  0  0  0
 17 19  4  0  0  0  0
 18 19  4  0  0  0  0
 20 22  1  0  0  0  0
 21 40  1  0  0  0  0
 22 41  1  0  0  0  0
 22 42  1  0  0  0  0
 22 43  1  0  0  0  0
 23 24  1  0  0  0  0
 24 44  1  0  0  0  0
 24 45  1  0  0  0  0
 25 26  4  0  0  0  0
 25 46  1  0  0  0  0
 26 27  4  0  0  0  0
 26 47  1  0  0  0  0
 27 28  4  0  0  0  0
 28 29  4  0  0  0  0
 28 48  1  0  0  0  0
 29 49  1  0  0  0  0
M  END
> <ConfClashScore>
0 

> <ConfOneFourInteractionScore>
-0.99264 

> <ConfScore>
0.360867 

> <ConfScorePBest>
0.00136743 

> <ConfTolerance>
1.37872 

> <HETNAM>
     OWQ A 303  OWQ                                                       

> <pdb_OW>
Q_303 -16.5129 3.80749 7.62812 0.15963 1.39178 -0.28144 -3.20151 0 0 0 -1.30514 0 0 0 0 0 0 0 0 -8.31393

$$$$
6yky_lig_1.pdb
 OpenBabel04162415593D

 49 53  0  0  0  0  0  0  0  0999 V2000
   25.1047    1.8134  -65.3760 C   0  0  0  1  0  0  0  0  0  0  0  0
   26.9167    0.5034  -65.9326 C   0  0  0  1  0  0  0  0  0  0  0  0
   25.4177    1.8283  -64.0983 N   0  0  0  1  0  0  0  0  0  0  0  0
   26.7285    1.4699  -61.1390 C   0  0  0  1  0  0  0  0  0  0  0  0
   26.4290    0.5642  -60.1390 C   0  0  0  1  0  0  0  0  0  0  0  0
   26.1708    3.2802  -59.6697 C   0  0  0  1  0  0  0  0  0  0  0  0
   26.5967    2.8298  -60.9050 C   0  0  0  1  0  0  0  0  0  0  0  0
   25.8702    2.3719  -58.6666 C   0  0  0  1  0  0  0  0  0  0  0  0
   26.0018    1.0160  -58.9002 C   0  0  0  1  0  0  0  0  0  0  0  0
   23.0496    3.0896  -64.8804 C   0  0  0  1  0  0  0  0  0  0  0  0
   23.7035    4.2393  -64.0927 C   0  0  0  1  0  0  0  0  0  0  0  0
   23.0407    4.1873  -62.7069 C   0  0  0  1  0  0  0  0  0  0  0  0
   22.9357    2.0812  -61.2824 C   0  0  0  1  0  0  0  0  0  0  0  0
   25.8296    1.1706  -66.2748 N   0  0  0  1  0  0  0  0  0  0  0  0
   27.2965    0.4857  -64.5857 C   0  0  0  1  0  0  0  0  0  0  0  0
   26.4936    1.1851  -63.6614 C   0  0  0  1  0  0  0  0  0  0  0  0
   27.0809    1.0061  -62.4396 N   0  0  0  1  0  0  0  0  0  0  0  0
   28.3159   -0.0766  -63.9004 N   0  0  0  1  0  0  0  0  0  0  0  0
   28.2164    0.2092  -62.6490 N   0  0  0  1  0  0  0  0  0  0  0  0
   25.4447    2.7460  -57.4402 O   0  0  0  1  0  0  0  0  0  0  0  0
   24.0074    2.4761  -65.7837 N   0  0  0  1  0  0  0  0  0  0  0  0
   25.0653    1.7415  -56.4865 C   0  0  0  1  0  0  0  0  0  0  0  0
   22.8650    2.7500  -62.5269 N   0  0  0  1  0  0  0  0  0  0  0  0
   22.6062    2.0961  -63.8066 C   0  0  0  1  0  0  0  0  0  0  0  0
   23.4238    0.7901  -61.2030 C   0  0  0  1  0  0  0  0  0  0  0  0
   23.4791    0.1754  -59.9665 C   0  0  0  1  0  0  0  0  0  0  0  0
   23.0809    0.7641  -58.8347 N   0  0  0  1  0  0  0  0  0  0  0  0
   22.6059    2.0144  -58.9271 C   0  0  0  1  0  0  0  0  0  0  0  0
   22.5187    2.7054  -60.1231 C   0  0  0  1  0  0  0  0  0  0  0  0
   27.4790    0.0013  -66.6492 H   0  0  0  1  0  0  0  0  0  0  0  0
   26.5240   -0.4563  -60.3160 H   0  0  0  1  0  0  0  0  0  0  0  0
   26.0757    4.3006  -59.4928 H   0  0  0  1  0  0  0  0  0  0  0  0
   26.8184    3.5111  -61.6589 H   0  0  0  1  0  0  0  0  0  0  0  0
   25.7802    0.3347  -58.1464 H   0  0  0  1  0  0  0  0  0  0  0  0
   22.2084    3.4440  -65.4386 H   0  0  0  1  0  0  0  0  0  0  0  0
   23.5122    5.1789  -64.5676 H   0  0  0  1  0  0  0  0  0  0  0  0
   24.7597    4.0885  -64.0118 H   0  0  0  1  0  0  0  0  0  0  0  0
   23.6770    4.6014  -61.9529 H   0  0  0  1  0  0  0  0  0  0  0  0
   22.1016    4.7001  -62.7027 H   0  0  0  1  0  0  0  0  0  0  0  0
   23.8444    2.5491  -66.7473 H   0  0  0  1  0  0  0  0  0  0  0  0
   24.0554    1.4389  -56.6692 H   0  0  0  1  0  0  0  0  0  0  0  0
   25.1441    2.1414  -55.4972 H   0  0  0  1  0  0  0  0  0  0  0  0
   25.7137    0.8957  -56.5826 H   0  0  0  1  0  0  0  0  0  0  0  0
   23.1698    1.1899  -63.8823 H   0  0  0  1  0  0  0  0  0  0  0  0
   21.5637    1.8780  -63.9090 H   0  0  0  1  0  0  0  0  0  0  0  0
   23.7432    0.2908  -62.0576 H   0  0  0  1  0  0  0  0  0  0  0  0
   23.8497   -0.7948  -59.9140 H   0  0  0  1  0  0  0  0  0  0  0  0
   22.2873    2.4880  -58.0577 H   0  0  0  1  0  0  0  0  0  0  0  0
   22.1462    3.6761  -60.1483 H   0  0  0  1  0  0  0  0  0  0  0  0
  1  3  4  0  0  0  0
  1 14  4  0  0  0  0
  1 21  1  0  0  0  0
  2 14  4  0  0  0  0
  2 15  4  0  0  0  0
  2 30  1  0  0  0  0
  3 16  4  0  0  0  0
  4  5  4  0  0  0  0
  4  7  4  0  0  0  0
  4 17  1  0  0  0  0
  5  9  4  0  0  0  0
  5 31  1  0  0  0  0
  6  7  4  0  0  0  0
  6  8  4  0  0  0  0
  6 32  1  0  0  0  0
  7 33  1  0  0  0  0
  8  9  4  0  0  0  0
  8 20  1  0  0  0  0
  9 34  1  0  0  0  0
 10 11  1  0  0  0  0
 10 21  1  0  0  0  0
 10 24  1  0  0  0  0
 10 35  1  0  0  0  0
 11 12  1  0  0  0  0
 11 36  1  0  0  0  0
 11 37  1  0  0  0  0
 12 23  1  0  0  0  0
 12 38  1  0  0  0  0
 12 39  1  0  0  0  0
 13 23  1  0  0  0  0
 13 25  4  0  0  0  0
 13 29  4  0  0  0  0
 15 16  4  0  0  0  0
 15 18  4  0  0  0  0
 16 17  4  0  0  0  0
 17 19  4  0  0  0  0
 18 19  4  0  0  0  0
 20 22  1  0  0  0  0
 21 40  1  0  0  0  0
 22 41  1  0  0  0  0
 22 42  1  0  0  0  0
 22 43  1  0  0  0  0
 23 24  1  0  0  0  0
 24 44  1  0  0  0  0
 24 45  1  0  0  0  0
 25 26  4  0  0  0  0
 25 46  1  0  0  0  0
 26 27  4  0  0  0  0
 26 47  1  0  0  0  0
 27 28  4  0  0  0  0
 28 29  4  0  0  0  0
 28 48  1  0  0  0  0
 29 49  1  0  0  0  0
M  END
> <ConfClashScore>
0.000761177 

> <ConfOneFourInteractionScore>
-0.983503 

> <ConfScore>
0.39249 

> <ConfScorePBest>
0.0013541 

> <ConfTolerance>
1.77853 

> <HETNAM>
     OWQ A 303  OWQ                                                       

> <pdb_OW>
Q_303 -16.5129 3.80749 7.62812 0.15963 1.39178 -0.28144 -3.20151 0 0 0 -1.30514 0 0 0 0 0 0 0 0 -8.31393

$$$$
6yky_lig_1.pdb
 OpenBabel04162415593D

 49 53  0  0  0  0  0  0  0  0999 V2000
   25.1049    1.8136  -65.3760 C   0  0  0  1  0  0  0  0  0  0  0  0
   26.9167    0.5034  -65.9325 C   0  0  0  1  0  0  0  0  0  0  0  0
   25.4179    1.8285  -64.0983 N   0  0  0  1  0  0  0  0  0  0  0  0
   26.7240    1.3640  -61.1073 C   0  0  0  1  0  0  0  0  0  0  0  0
   27.4619    0.8153  -60.0755 C   0  0  0  1  0  0  0  0  0  0  0  0
   25.2636    2.4017  -59.5142 C   0  0  0  1  0  0  0  0  0  0  0  0
   25.6217    2.1562  -60.8263 C   0  0  0  1  0  0  0  0  0  0  0  0
   26.0036    1.8514  -58.4792 C   0  0  0  1  0  0  0  0  0  0  0  0
   27.1027    1.0616  -58.7595 C   0  0  0  1  0  0  0  0  0  0  0  0
   22.9240    1.7283  -66.4695 C   0  0  0  1  0  0  0  0  0  0  0  0
   23.3615    1.3133  -67.8918 C   0  0  0  1  0  0  0  0  0  0  0  0
   22.1728    1.4907  -68.8025 C   0  0  0  1  0  0  0  0  0  0  0  0
   20.0465    2.8678  -68.3742 C   0  0  0  1  0  0  0  0  0  0  0  0
   25.8297    1.1707  -66.2748 N   0  0  0  1  0  0  0  0  0  0  0  0
   27.2965    0.4857  -64.5857 C   0  0  0  1  0  0  0  0  0  0  0  0
   26.4937    1.1852  -63.6614 C   0  0  0  1  0  0  0  0  0  0  0  0
   27.0810    1.0062  -62.4395 N   0  0  0  1  0  0  0  0  0  0  0  0
   28.3159   -0.0766  -63.9004 N   0  0  0  1  0  0  0  0  0  0  0  0
   28.2164    0.2093  -62.6490 N   0  0  0  1  0  0  0  0  0  0  0  0
   25.6498    2.0877  -57.1935 O   0  0  0  1  0  0  0  0  0  0  0  0
   23.9767    2.4951  -65.7953 N   0  0  0  1  0  0  0  0  0  0  0  0
   26.3204    1.3256  -56.1777 C   0  0  0  1  0  0  0  0  0  0  0  0
   21.2512    2.3662  -67.9255 N   0  0  0  1  0  0  0  0  0  0  0  0
   21.7047    2.5897  -66.7338 C   0  0  0  1  0  0  0  0  0  0  0  0
   18.9193    2.1508  -68.0177 C   0  0  0  1  0  0  0  0  0  0  0  0
   17.6829    2.6059  -68.4343 C   0  0  0  1  0  0  0  0  0  0  0  0
   17.5156    3.7082  -69.1713 N   0  0  0  1  0  0  0  0  0  0  0  0
   18.6172    4.3912  -69.5134 C   0  0  0  1  0  0  0  0  0  0  0  0
   19.8929    4.0094  -69.1364 C   0  0  0  1  0  0  0  0  0  0  0  0
   27.4788    0.0013  -66.6492 H   0  0  0  1  0  0  0  0  0  0  0  0
   28.2865    0.2178  -60.2864 H   0  0  0  1  0  0  0  0  0  0  0  0
   24.4391    2.9992  -59.3033 H   0  0  0  1  0  0  0  0  0  0  0  0
   25.0641    2.5658  -61.6029 H   0  0  0  1  0  0  0  0  0  0  0  0
   27.6603    0.6520  -57.9830 H   0  0  0  1  0  0  0  0  0  0  0  0
   22.6711    0.8729  -65.8786 H   0  0  0  1  0  0  0  0  0  0  0  0
   23.6732    0.2897  -67.8937 H   0  0  0  1  0  0  0  0  0  0  0  0
   24.1691    1.9333  -68.2208 H   0  0  0  1  0  0  0  0  0  0  0  0
   22.4441    1.9919  -69.7080 H   0  0  0  1  0  0  0  0  0  0  0  0
   21.7151    0.5523  -69.0368 H   0  0  0  1  0  0  0  0  0  0  0  0
   23.8837    3.4593  -65.6465 H   0  0  0  1  0  0  0  0  0  0  0  0
   26.2085    1.8142  -55.2323 H   0  0  0  1  0  0  0  0  0  0  0  0
   27.3602    1.2485  -56.4182 H   0  0  0  1  0  0  0  0  0  0  0  0
   25.8922    0.3464  -56.1257 H   0  0  0  1  0  0  0  0  0  0  0  0
   20.9451    2.3569  -66.0169 H   0  0  0  1  0  0  0  0  0  0  0  0
   21.9747    3.6213  -66.6458 H   0  0  0  1  0  0  0  0  0  0  0  0
   19.0006    1.2854  -67.4468 H   0  0  0  1  0  0  0  0  0  0  0  0
   16.8393    2.0627  -68.1603 H   0  0  0  1  0  0  0  0  0  0  0  0
   18.5079    5.2497  -70.0900 H   0  0  0  1  0  0  0  0  0  0  0  0
   20.7203    4.5713  -69.4217 H   0  0  0  1  0  0  0  0  0  0  0  0
  1  3  4  0  0  0  0
  1 14  4  0  0  0  0
  1 21  1  0  0  0  0
  2 14  4  0  0  0  0
  2 15  4  0  0  0  0
  2 30  1  0  0  0  0
  3 16  4  0  0  0  0
  4  5  4  0  0  0  0
  4  7  4  0  0  0  0
  4 17  1  0  0  0  0
  5  9  4  0  0  0  0
  5 31  1  0  0  0  0
  6  7  4  0  0  0  0
  6  8  4  0  0  0  0
  6 32  1  0  0  0  0
  7 33  1  0  0  0  0
  8  9  4  0  0  0  0
  8 20  1  0  0  0  0
  9 34  1  0  0  0  0
 10 11  1  0  0  0  0
 10 21  1  0  0  0  0
 10 24  1  0  0  0  0
 10 35  1  0  0  0  0
 11 12  1  0  0  0  0
 11 36  1  0  0  0  0
 11 37  1  0  0  0  0
 12 23  1  0  0  0  0
 12 38  1  0  0  0  0
 12 39  1  0  0  0  0
 13 23  1  0  0  0  0
 13 25  4  0  0  0  0
 13 29  4  0  0  0  0
 15 16  4  0  0  0  0
 15 18  4  0  0  0  0
 16 17  4  0  0  0  0
 17 19  4  0  0  0  0
 18 19  4  0  0  0  0
 20 22  1  0  0  0  0
 21 40  1  0  0  0  0
 22 41  1  0  0  0  0
 22 42  1  0  0  0  0
 22 43  1  0  0  0  0
 23 24  1  0  0  0  0
 24 44  1  0  0  0  0
 24 45  1  0  0  0  0
 25 26  4  0  0  0  0
 25 46  1  0  0  0  0
 26 27  4  0  0  0  0
 26 47  1  0  0  0  0
 27 28  4  0  0  0  0
 28 29  4  0  0  0  0
 28 48  1  0  0  0  0
 29 49  1  0  0  0  0
M  END
> <ConfClashScore>
0 

> <ConfOneFourInteractionScore>
-0.981795 

> <ConfScore>
0.57851 

> <ConfScorePBest>
0.00134077 

> <ConfTolerance>
3.84237 

> <HETNAM>
     OWQ A 303  OWQ                                                       

> <pdb_OW>
Q_303 -16.5129 3.80749 7.62812 0.15963 1.39178 -0.28144 -3.20151 0 0 0 -1.30514 0 0 0 0 0 0 0 0 -8.31393

$$$$
